
  -OEChem-05262215553D

 44 43  0     1  0  0  0  0  0999 V2000
   -3.0241   -1.0634   -1.7500 C   0  0  0  0  0  0  0  0  0  0  0  0
   -2.4921   -2.1011   -2.1188 O   0  0  0  0  0  0  0  0  0  0  0  0
   -3.8033   -1.0332   -0.4478 C   0  0  0  0  0  0  0  0  0  0  0  0
   -3.1177   -0.9312    0.3961 H   0  0  0  0  0  0  0  0  0  0  0  0
   -4.4932   -0.1851   -0.4413 H   0  0  0  0  0  0  0  0  0  0  0  0
   -4.3763   -1.9563   -0.3326 H   0  0  0  0  0  0  0  0  0  0  0  0
   -2.8667    0.0848   -2.4917 N   0  0  0  0  0  0  0  0  0  0  0  0
   -2.0075    0.1845   -3.6807 C   0  0  2  0  0  0  0  0  0  0  0  0
   -0.5303    0.4816   -3.3290 C   0  0  0  0  0  0  0  0  0  0  0  0
    0.1866    1.1286   -4.0842 O   0  0  0  0  0  0  0  0  0  0  0  0
   -2.6160    1.2790   -4.5655 C   0  0  0  0  0  0  0  0  0  0  0  0
   -3.0602    0.9610   -1.9842 H   0  0  0  0  0  0  0  0  0  0  0  0
   -2.0264   -0.7576   -4.2371 H   0  0  0  0  0  0  0  0  0  0  0  0
   -2.5660    2.2478   -4.0564 H   0  0  0  0  0  0  0  0  0  0  0  0
   -2.0702    1.3556   -5.5107 H   0  0  0  0  0  0  0  0  0  0  0  0
   -3.6628    1.0535   -4.7879 H   0  0  0  0  0  0  0  0  0  0  0  0
    0.1221   -0.1748   -2.3050 N   0  0  0  0  0  0  0  0  0  0  0  0
    0.6537    0.5593   -1.1374 C   0  0  2  0  0  0  0  0  0  0  0  0
    1.3454   -0.4243   -0.1568 C   0  0  0  0  0  0  0  0  0  0  0  0
    1.3349   -1.6370   -0.3521 O   0  0  0  0  0  0  0  0  0  0  0  0
   -0.5168    1.1597   -0.3013 C   0  0  0  0  0  0  0  0  0  0  0  0
   -1.3236    2.3011   -0.9041 C   0  0  0  0  0  0  0  0  0  0  0  0
   -0.7749    3.0800   -1.7099 O   0  5  0  0  0  0  0  0  0  0  0  0
   -2.5622    2.2578   -0.6862 O   0  0  0  0  0  0  0  0  0  0  0  0
   -0.3746   -1.0226   -2.0296 H   0  0  0  0  0  0  0  0  0  0  0  0
    1.3537    1.3387   -1.4575 H   0  0  0  0  0  0  0  0  0  0  0  0
   -0.1135    1.5682    0.6280 H   0  0  0  0  0  0  0  0  0  0  0  0
   -1.1985    0.3518   -0.0277 H   0  0  0  0  0  0  0  0  0  0  0  0
    1.9265    0.0279    1.0164 N   0  0  0  0  0  0  0  0  0  0  0  0
    2.4823   -0.8416    2.0618 C   0  0  2  0  0  0  0  0  0  0  0  0
    2.4339   -0.1919    3.4602 C   0  0  0  0  0  0  0  0  0  0  0  0
    2.3161    1.0220    3.5852 O   0  0  0  0  0  0  0  0  0  0  0  0
    3.9284   -1.1874    1.6915 C   0  0  0  0  0  0  0  0  0  0  0  0
    1.8270    1.0197    1.2328 H   0  0  0  0  0  0  0  0  0  0  0  0
    1.8937   -1.7635    2.1152 H   0  0  0  0  0  0  0  0  0  0  0  0
    4.5340   -0.2777    1.6295 H   0  0  0  0  0  0  0  0  0  0  0  0
    4.3690   -1.8507    2.4416 H   0  0  0  0  0  0  0  0  0  0  0  0
    3.9615   -1.6946    0.7221 H   0  0  0  0  0  0  0  0  0  0  0  0
    2.5360   -0.9813    4.5922 N   0  0  0  0  0  0  0  0  0  0  0  0
    2.4609   -0.4521    5.9475 C   0  0  0  0  0  0  0  0  0  0  0  0
    2.5846   -1.9867    4.4567 H   0  0  0  0  0  0  0  0  0  0  0  0
    3.2159    0.3265    6.0984 H   0  0  0  0  0  0  0  0  0  0  0  0
    1.4707   -0.0248    6.1363 H   0  0  0  0  0  0  0  0  0  0  0  0
    2.6400   -1.2502    6.6743 H   0  0  0  0  0  0  0  0  0  0  0  0
  1  2  2  0  0  0  0
  1  3  1  0  0  0  0
  1  7  1  0  0  0  0
  3  4  1  0  0  0  0
  3  5  1  0  0  0  0
  3  6  1  0  0  0  0
  7  8  1  0  0  0  0
  7 12  1  0  0  0  0
  8  9  1  0  0  0  0
  8 11  1  0  0  0  0
  8 13  1  0  0  0  0
  9 10  2  0  0  0  0
  9 17  1  0  0  0  0
 11 14  1  0  0  0  0
 11 15  1  0  0  0  0
 11 16  1  0  0  0  0
 17 18  1  0  0  0  0
 17 25  1  0  0  0  0
 18 19  1  0  0  0  0
 18 21  1  0  0  0  0
 18 26  1  0  0  0  0
 19 20  2  0  0  0  0
 19 29  1  0  0  0  0
 21 22  1  0  0  0  0
 21 27  1  0  0  0  0
 21 28  1  0  0  0  0
 22 23  1  0  0  0  0
 22 24  2  0  0  0  0
 29 30  1  0  0  0  0
 29 34  1  0  0  0  0
 30 31  1  0  0  0  0
 30 33  1  0  0  0  0
 30 35  1  0  0  0  0
 31 32  2  0  0  0  0
 31 39  1  0  0  0  0
 33 36  1  0  0  0  0
 33 37  1  0  0  0  0
 33 38  1  0  0  0  0
 39 40  1  0  0  0  0
 39 41  1  0  0  0  0
 40 42  1  0  0  0  0
 40 43  1  0  0  0  0
 40 44  1  0  0  0  0
M  CHG  1  23  -1
M  END
$$$$

  -OEChem-05262215553D

 44 43  0     1  0  0  0  0  0999 V2000
   -2.8841   -1.1003   -1.6714 C   0  0  0  0  0  0  0  0  0  0  0  0
   -2.2391   -2.0801   -2.0196 O   0  0  0  0  0  0  0  0  0  0  0  0
   -3.7121   -1.1460   -0.3998 C   0  0  0  0  0  0  0  0  0  0  0  0
   -3.4776   -0.2875    0.2346 H   0  0  0  0  0  0  0  0  0  0  0  0
   -4.7750   -1.1168   -0.6504 H   0  0  0  0  0  0  0  0  0  0  0  0
   -3.5013   -2.0627    0.1571 H   0  0  0  0  0  0  0  0  0  0  0  0
   -2.8225    0.0548   -2.4165 N   0  0  0  0  0  0  0  0  0  0  0  0
   -1.9618    0.2192   -3.5977 C   0  0  2  0  0  0  0  0  0  0  0  0
   -0.5044    0.5939   -3.2357 C   0  0  0  0  0  0  0  0  0  0  0  0
    0.1705    1.3079   -3.9688 O   0  0  0  0  0  0  0  0  0  0  0  0
   -2.6272    1.2856   -4.4752 C   0  0  0  0  0  0  0  0  0  0  0  0
   -3.0778    0.9130   -1.9057 H   0  0  0  0  0  0  0  0  0  0  0  0
   -1.9242   -0.7160   -4.1646 H   0  0  0  0  0  0  0  0  0  0  0  0
   -2.6397    2.2495   -3.9546 H   0  0  0  0  0  0  0  0  0  0  0  0
   -2.0783    1.4060   -5.4143 H   0  0  0  0  0  0  0  0  0  0  0  0
   -3.6565    0.9996   -4.7103 H   0  0  0  0  0  0  0  0  0  0  0  0
    0.1857   -0.0639   -2.2378 N   0  0  0  0  0  0  0  0  0  0  0  0
    0.6848    0.6478   -1.0409 C   0  0  2  0  0  0  0  0  0  0  0  0
    1.4298   -0.3506   -0.1086 C   0  0  0  0  0  0  0  0  0  0  0  0
    1.7140   -1.4838   -0.4870 O   0  0  0  0  0  0  0  0  0  0  0  0
   -0.5189    1.1738   -0.1977 C   0  0  0  0  0  0  0  0  0  0  0  0
   -1.3650    2.3038   -0.7699 C   0  0  0  0  0  0  0  0  0  0  0  0
   -0.8413    3.1325   -1.5417 O   0  5  0  0  0  0  0  0  0  0  0  0
   -2.6024    2.2064   -0.5634 O   0  0  0  0  0  0  0  0  0  0  0  0
   -0.2650   -0.9483   -2.0005 H   0  0  0  0  0  0  0  0  0  0  0  0
    1.3515    1.4681   -1.3287 H   0  0  0  0  0  0  0  0  0  0  0  0
   -0.1442    1.5766    0.7452 H   0  0  0  0  0  0  0  0  0  0  0  0
   -1.1674    0.3301    0.0472 H   0  0  0  0  0  0  0  0  0  0  0  0
    1.7348   -0.0386    1.2066 N   0  0  0  0  0  0  0  0  0  0  0  0
    2.2672   -0.9916    2.1891 C   0  0  2  0  0  0  0  0  0  0  0  0
    1.8127   -0.6650    3.6264 C   0  0  0  0  0  0  0  0  0  0  0  0
    1.4753    0.4728    3.9341 O   0  0  0  0  0  0  0  0  0  0  0  0
    3.7959   -0.9798    2.0995 C   0  0  0  0  0  0  0  0  0  0  0  0
    1.3996    0.8574    1.5591 H   0  0  0  0  0  0  0  0  0  0  0  0
    1.9015   -1.9973    1.9567 H   0  0  0  0  0  0  0  0  0  0  0  0
    4.1843    0.0168    2.3324 H   0  0  0  0  0  0  0  0  0  0  0  0
    4.2268   -1.6971    2.8042 H   0  0  0  0  0  0  0  0  0  0  0  0
    4.1180   -1.2523    1.0895 H   0  0  0  0  0  0  0  0  0  0  0  0
    1.7915   -1.6599    4.5878 N   0  0  0  0  0  0  0  0  0  0  0  0
    1.3279   -1.4445    5.9521 C   0  0  0  0  0  0  0  0  0  0  0  0
    2.0222   -2.6025    4.2880 H   0  0  0  0  0  0  0  0  0  0  0  0
    1.9231   -0.6657    6.4403 H   0  0  0  0  0  0  0  0  0  0  0  0
    0.2760   -1.1400    5.9556 H   0  0  0  0  0  0  0  0  0  0  0  0
    1.4238   -2.3670    6.5327 H   0  0  0  0  0  0  0  0  0  0  0  0
  1  2  2  0  0  0  0
  1  3  1  0  0  0  0
  1  7  1  0  0  0  0
  3  4  1  0  0  0  0
  3  5  1  0  0  0  0
  3  6  1  0  0  0  0
  7  8  1  0  0  0  0
  7 12  1  0  0  0  0
  8  9  1  0  0  0  0
  8 11  1  0  0  0  0
  8 13  1  0  0  0  0
  9 10  2  0  0  0  0
  9 17  1  0  0  0  0
 11 14  1  0  0  0  0
 11 15  1  0  0  0  0
 11 16  1  0  0  0  0
 17 18  1  0  0  0  0
 17 25  1  0  0  0  0
 18 19  1  0  0  0  0
 18 21  1  0  0  0  0
 18 26  1  0  0  0  0
 19 20  2  0  0  0  0
 19 29  1  0  0  0  0
 21 22  1  0  0  0  0
 21 27  1  0  0  0  0
 21 28  1  0  0  0  0
 22 23  1  0  0  0  0
 22 24  2  0  0  0  0
 29 30  1  0  0  0  0
 29 34  1  0  0  0  0
 30 31  1  0  0  0  0
 30 33  1  0  0  0  0
 30 35  1  0  0  0  0
 31 32  2  0  0  0  0
 31 39  1  0  0  0  0
 33 36  1  0  0  0  0
 33 37  1  0  0  0  0
 33 38  1  0  0  0  0
 39 40  1  0  0  0  0
 39 41  1  0  0  0  0
 40 42  1  0  0  0  0
 40 43  1  0  0  0  0
 40 44  1  0  0  0  0
M  CHG  1  23  -1
M  END
$$$$

  -OEChem-05262215553D

 44 43  0     1  0  0  0  0  0999 V2000
   -2.8436   -1.1203   -1.6609 C   0  0  0  0  0  0  0  0  0  0  0  0
   -2.1362   -2.0694   -1.9730 O   0  0  0  0  0  0  0  0  0  0  0  0
   -3.7150   -1.1940   -0.4199 C   0  0  0  0  0  0  0  0  0  0  0  0
   -3.5696   -0.3033    0.1970 H   0  0  0  0  0  0  0  0  0  0  0  0
   -4.7668   -1.2512   -0.7091 H   0  0  0  0  0  0  0  0  0  0  0  0
   -3.4585   -2.0768    0.1713 H   0  0  0  0  0  0  0  0  0  0  0  0
   -2.8053    0.0318   -2.4122 N   0  0  0  0  0  0  0  0  0  0  0  0
   -1.9149    0.2222   -3.5670 C   0  0  2  0  0  0  0  0  0  0  0  0
   -0.4763    0.6255   -3.1627 C   0  0  0  0  0  0  0  0  0  0  0  0
    0.2012    1.3577   -3.8747 O   0  0  0  0  0  0  0  0  0  0  0  0
   -2.5783    1.2799   -4.4570 C   0  0  0  0  0  0  0  0  0  0  0  0
   -3.1013    0.8829   -1.9114 H   0  0  0  0  0  0  0  0  0  0  0  0
   -1.8424   -0.7087   -4.1375 H   0  0  0  0  0  0  0  0  0  0  0  0
   -2.6207    2.2417   -3.9338 H   0  0  0  0  0  0  0  0  0  0  0  0
   -2.0089    1.4133   -5.3820 H   0  0  0  0  0  0  0  0  0  0  0  0
   -3.5965    0.9769   -4.7180 H   0  0  0  0  0  0  0  0  0  0  0  0
    0.2038   -0.0298   -2.1561 N   0  0  0  0  0  0  0  0  0  0  0  0
    0.6457    0.6780   -0.9337 C   0  0  2  0  0  0  0  0  0  0  0  0
    1.3924   -0.3246   -0.0032 C   0  0  0  0  0  0  0  0  0  0  0  0
    1.9833   -1.2944   -0.4690 O   0  0  0  0  0  0  0  0  0  0  0  0
   -0.5941    1.1811   -0.1281 C   0  0  0  0  0  0  0  0  0  0  0  0
   -1.4356    2.3055   -0.7181 C   0  0  0  0  0  0  0  0  0  0  0  0
   -0.8993    3.1497   -1.4638 O   0  5  0  0  0  0  0  0  0  0  0  0
   -2.6775    2.1863   -0.5547 O   0  0  0  0  0  0  0  0  0  0  0  0
   -0.2398   -0.9245   -1.9465 H   0  0  0  0  0  0  0  0  0  0  0  0
    1.3070    1.5131   -1.1892 H   0  0  0  0  0  0  0  0  0  0  0  0
   -0.2515    1.5923    0.8234 H   0  0  0  0  0  0  0  0  0  0  0  0
   -1.2377    0.3284    0.0973 H   0  0  0  0  0  0  0  0  0  0  0  0
    1.4011   -0.2045    1.3778 N   0  0  0  0  0  0  0  0  0  0  0  0
    1.9612   -1.1966    2.3043 C   0  0  2  0  0  0  0  0  0  0  0  0
    1.2112   -1.2248    3.6523 C   0  0  0  0  0  0  0  0  0  0  0  0
    0.5170   -0.2774    4.0043 O   0  0  0  0  0  0  0  0  0  0  0  0
    3.4413   -0.8715    2.5268 C   0  0  0  0  0  0  0  0  0  0  0  0
    0.8125    0.5241    1.7798 H   0  0  0  0  0  0  0  0  0  0  0  0
    1.8742   -2.1963    1.8661 H   0  0  0  0  0  0  0  0  0  0  0  0
    3.5507    0.1229    2.9711 H   0  0  0  0  0  0  0  0  0  0  0  0
    3.8989   -1.6065    3.1957 H   0  0  0  0  0  0  0  0  0  0  0  0
    3.9809   -0.8889    1.5745 H   0  0  0  0  0  0  0  0  0  0  0  0
    1.3229   -2.3245    4.4843 N   0  0  0  0  0  0  0  0  0  0  0  0
    0.6055   -2.4487    5.7462 C   0  0  0  0  0  0  0  0  0  0  0  0
    1.8639   -3.1136    4.1439 H   0  0  0  0  0  0  0  0  0  0  0  0
    0.8589   -1.6196    6.4150 H   0  0  0  0  0  0  0  0  0  0  0  0
   -0.4757   -2.4449    5.5731 H   0  0  0  0  0  0  0  0  0  0  0  0
    0.8744   -3.3862    6.2417 H   0  0  0  0  0  0  0  0  0  0  0  0
  1  2  2  0  0  0  0
  1  3  1  0  0  0  0
  1  7  1  0  0  0  0
  3  4  1  0  0  0  0
  3  5  1  0  0  0  0
  3  6  1  0  0  0  0
  7  8  1  0  0  0  0
  7 12  1  0  0  0  0
  8  9  1  0  0  0  0
  8 11  1  0  0  0  0
  8 13  1  0  0  0  0
  9 10  2  0  0  0  0
  9 17  1  0  0  0  0
 11 14  1  0  0  0  0
 11 15  1  0  0  0  0
 11 16  1  0  0  0  0
 17 18  1  0  0  0  0
 17 25  1  0  0  0  0
 18 19  1  0  0  0  0
 18 21  1  0  0  0  0
 18 26  1  0  0  0  0
 19 20  2  0  0  0  0
 19 29  1  0  0  0  0
 21 22  1  0  0  0  0
 21 27  1  0  0  0  0
 21 28  1  0  0  0  0
 22 23  1  0  0  0  0
 22 24  2  0  0  0  0
 29 30  1  0  0  0  0
 29 34  1  0  0  0  0
 30 31  1  0  0  0  0
 30 33  1  0  0  0  0
 30 35  1  0  0  0  0
 31 32  2  0  0  0  0
 31 39  1  0  0  0  0
 33 36  1  0  0  0  0
 33 37  1  0  0  0  0
 33 38  1  0  0  0  0
 39 40  1  0  0  0  0
 39 41  1  0  0  0  0
 40 42  1  0  0  0  0
 40 43  1  0  0  0  0
 40 44  1  0  0  0  0
M  CHG  1  23  -1
M  END
$$$$

  -OEChem-05262215553D

 44 43  0     1  0  0  0  0  0999 V2000
   -2.7120   -1.2689   -1.6131 C   0  0  0  0  0  0  0  0  0  0  0  0
   -1.9198   -2.1677   -1.8656 O   0  0  0  0  0  0  0  0  0  0  0  0
   -3.6081   -1.3646   -0.3913 C   0  0  0  0  0  0  0  0  0  0  0  0
   -3.5977   -0.4199    0.1590 H   0  0  0  0  0  0  0  0  0  0  0  0
   -4.6336   -1.5799   -0.7005 H   0  0  0  0  0  0  0  0  0  0  0  0
   -3.2601   -2.1606    0.2724 H   0  0  0  0  0  0  0  0  0  0  0  0
   -2.7367   -0.1438   -2.4054 N   0  0  0  0  0  0  0  0  0  0  0  0
   -1.8317    0.0709   -3.5450 C   0  0  2  0  0  0  0  0  0  0  0  0
   -0.4219    0.5509   -3.1229 C   0  0  0  0  0  0  0  0  0  0  0  0
    0.2442    1.2781   -3.8503 O   0  0  0  0  0  0  0  0  0  0  0  0
   -2.5271    1.0796   -4.4666 C   0  0  0  0  0  0  0  0  0  0  0  0
   -3.1066    0.7008   -1.9446 H   0  0  0  0  0  0  0  0  0  0  0  0
   -1.7031   -0.8655   -4.0959 H   0  0  0  0  0  0  0  0  0  0  0  0
   -2.6240    2.0479   -3.9629 H   0  0  0  0  0  0  0  0  0  0  0  0
   -1.9478    1.2228   -5.3838 H   0  0  0  0  0  0  0  0  0  0  0  0
   -3.5250    0.7247   -4.7403 H   0  0  0  0  0  0  0  0  0  0  0  0
    0.2551   -0.0387   -2.0747 N   0  0  0  0  0  0  0  0  0  0  0  0
    0.6114    0.7302   -0.8618 C   0  0  2  0  0  0  0  0  0  0  0  0
    1.3747   -0.2144    0.1148 C   0  0  0  0  0  0  0  0  0  0  0  0
    2.2342   -0.9813   -0.3076 O   0  0  0  0  0  0  0  0  0  0  0  0
   -0.6742    1.2095   -0.1165 C   0  0  0  0  0  0  0  0  0  0  0  0
   -1.5401    2.2771   -0.7736 C   0  0  0  0  0  0  0  0  0  0  0  0
   -1.0148    3.1173   -1.5316 O   0  5  0  0  0  0  0  0  0  0  0  0
   -2.7808    2.1059   -0.6503 O   0  0  0  0  0  0  0  0  0  0  0  0
   -0.1649   -0.9415   -1.8509 H   0  0  0  0  0  0  0  0  0  0  0  0
    1.2459    1.5851   -1.1213 H   0  0  0  0  0  0  0  0  0  0  0  0
   -0.3721    1.6673    0.8281 H   0  0  0  0  0  0  0  0  0  0  0  0
   -1.2928    0.3420    0.1208 H   0  0  0  0  0  0  0  0  0  0  0  0
    1.1097   -0.2755    1.4745 N   0  0  0  0  0  0  0  0  0  0  0  0
    1.6558   -1.2881    2.3871 C   0  0  2  0  0  0  0  0  0  0  0  0
    0.6619   -1.6622    3.5056 C   0  0  0  0  0  0  0  0  0  0  0  0
   -0.2567   -0.9081    3.8073 O   0  0  0  0  0  0  0  0  0  0  0  0
    2.9582   -0.7495    2.9856 C   0  0  0  0  0  0  0  0  0  0  0  0
    0.3129    0.2661    1.8079 H   0  0  0  0  0  0  0  0  0  0  0  0
    1.8706   -2.2059    1.8301 H   0  0  0  0  0  0  0  0  0  0  0  0
    2.7663    0.1615    3.5614 H   0  0  0  0  0  0  0  0  0  0  0  0
    3.4124   -1.4929    3.6474 H   0  0  0  0  0  0  0  0  0  0  0  0
    3.6717   -0.5149    2.1890 H   0  0  0  0  0  0  0  0  0  0  0  0
    0.8018   -2.8607    4.1825 N   0  0  0  0  0  0  0  0  0  0  0  0
   -0.1300   -3.3133    5.2067 C   0  0  0  0  0  0  0  0  0  0  0  0
    1.5352   -3.4898    3.8695 H   0  0  0  0  0  0  0  0  0  0  0  0
   -0.1524   -2.6069    6.0432 H   0  0  0  0  0  0  0  0  0  0  0  0
   -1.1397   -3.4028    4.7923 H   0  0  0  0  0  0  0  0  0  0  0  0
    0.1761   -4.2918    5.5888 H   0  0  0  0  0  0  0  0  0  0  0  0
  1  2  2  0  0  0  0
  1  3  1  0  0  0  0
  1  7  1  0  0  0  0
  3  4  1  0  0  0  0
  3  5  1  0  0  0  0
  3  6  1  0  0  0  0
  7  8  1  0  0  0  0
  7 12  1  0  0  0  0
  8  9  1  0  0  0  0
  8 11  1  0  0  0  0
  8 13  1  0  0  0  0
  9 10  2  0  0  0  0
  9 17  1  0  0  0  0
 11 14  1  0  0  0  0
 11 15  1  0  0  0  0
 11 16  1  0  0  0  0
 17 18  1  0  0  0  0
 17 25  1  0  0  0  0
 18 19  1  0  0  0  0
 18 21  1  0  0  0  0
 18 26  1  0  0  0  0
 19 20  2  0  0  0  0
 19 29  1  0  0  0  0
 21 22  1  0  0  0  0
 21 27  1  0  0  0  0
 21 28  1  0  0  0  0
 22 23  1  0  0  0  0
 22 24  2  0  0  0  0
 29 30  1  0  0  0  0
 29 34  1  0  0  0  0
 30 31  1  0  0  0  0
 30 33  1  0  0  0  0
 30 35  1  0  0  0  0
 31 32  2  0  0  0  0
 31 39  1  0  0  0  0
 33 36  1  0  0  0  0
 33 37  1  0  0  0  0
 33 38  1  0  0  0  0
 39 40  1  0  0  0  0
 39 41  1  0  0  0  0
 40 42  1  0  0  0  0
 40 43  1  0  0  0  0
 40 44  1  0  0  0  0
M  CHG  1  23  -1
M  END
$$$$

  -OEChem-05262215553D

 44 43  0     1  0  0  0  0  0999 V2000
   -2.7562   -1.2312   -0.7585 C   0  0  0  0  0  0  0  0  0  0  0  0
   -2.1012   -2.2618   -0.6704 O   0  0  0  0  0  0  0  0  0  0  0  0
   -3.5687   -0.7462    0.4284 C   0  0  0  0  0  0  0  0  0  0  0  0
   -3.2058   -1.2115    1.3493 H   0  0  0  0  0  0  0  0  0  0  0  0
   -3.4832    0.3395    0.5271 H   0  0  0  0  0  0  0  0  0  0  0  0
   -4.6209   -1.0043    0.2883 H   0  0  0  0  0  0  0  0  0  0  0  0
   -2.6593   -0.4664   -1.8996 N   0  0  0  0  0  0  0  0  0  0  0  0
   -1.7877   -0.8069   -3.0363 C   0  0  2  0  0  0  0  0  0  0  0  0
   -0.2981   -0.4683   -2.7862 C   0  0  0  0  0  0  0  0  0  0  0  0
    0.4571   -0.1865   -3.7083 O   0  0  0  0  0  0  0  0  0  0  0  0
   -2.3447   -0.0616   -4.2545 C   0  0  0  0  0  0  0  0  0  0  0  0
   -2.8863    0.5312   -1.7759 H   0  0  0  0  0  0  0  0  0  0  0  0
   -1.8454   -1.8814   -3.2354 H   0  0  0  0  0  0  0  0  0  0  0  0
   -2.2593    1.0209   -4.1087 H   0  0  0  0  0  0  0  0  0  0  0  0
   -1.7885   -0.3337   -5.1567 H   0  0  0  0  0  0  0  0  0  0  0  0
   -3.3980   -0.3129   -4.4085 H   0  0  0  0  0  0  0  0  0  0  0  0
    0.3013   -0.7416   -1.5739 N   0  0  0  0  0  0  0  0  0  0  0  0
    0.8318    0.3467   -0.7253 C   0  0  2  0  0  0  0  0  0  0  0  0
    1.4482   -0.2942    0.5522 C   0  0  0  0  0  0  0  0  0  0  0  0
    2.2452   -1.2220    0.4592 O   0  0  0  0  0  0  0  0  0  0  0  0
   -0.3205    1.2823   -0.2422 C   0  0  0  0  0  0  0  0  0  0  0  0
   -1.0232    2.1657   -1.2628 C   0  0  0  0  0  0  0  0  0  0  0  0
   -0.4035    2.5668   -2.2674 O   0  5  0  0  0  0  0  0  0  0  0  0
   -2.2675    2.2628   -1.1035 O   0  0  0  0  0  0  0  0  0  0  0  0
   -0.2740   -1.4027   -1.0502 H   0  0  0  0  0  0  0  0  0  0  0  0
    1.5952    0.9200   -1.2635 H   0  0  0  0  0  0  0  0  0  0  0  0
    0.0986    1.9897    0.4782 H   0  0  0  0  0  0  0  0  0  0  0  0
   -1.0716    0.6846    0.2772 H   0  0  0  0  0  0  0  0  0  0  0  0
    0.9951    0.0008    1.8300 N   0  0  0  0  0  0  0  0  0  0  0  0
    1.2861   -0.8071    3.0248 C   0  0  2  0  0  0  0  0  0  0  0  0
    0.4224   -2.0930    3.0750 C   0  0  0  0  0  0  0  0  0  0  0  0
   -0.3323   -2.3289    4.0135 O   0  0  0  0  0  0  0  0  0  0  0  0
    1.0826    0.1008    4.2438 C   0  0  0  0  0  0  0  0  0  0  0  0
    0.2198    0.6566    1.8771 H   0  0  0  0  0  0  0  0  0  0  0  0
    2.3352   -1.1206    3.0118 H   0  0  0  0  0  0  0  0  0  0  0  0
    0.0415    0.4337    4.3065 H   0  0  0  0  0  0  0  0  0  0  0  0
    1.3306   -0.4375    5.1639 H   0  0  0  0  0  0  0  0  0  0  0  0
    1.7284    0.9812    4.1738 H   0  0  0  0  0  0  0  0  0  0  0  0
    0.4695   -2.9690    2.0087 N   0  0  0  0  0  0  0  0  0  0  0  0
   -0.4756   -4.0574    1.8087 C   0  0  0  0  0  0  0  0  0  0  0  0
    1.0701   -2.6862    1.2292 H   0  0  0  0  0  0  0  0  0  0  0  0
   -0.3952   -4.7897    2.6181 H   0  0  0  0  0  0  0  0  0  0  0  0
   -1.5004   -3.6730    1.7775 H   0  0  0  0  0  0  0  0  0  0  0  0
   -0.2685   -4.5630    0.8608 H   0  0  0  0  0  0  0  0  0  0  0  0
  1  2  2  0  0  0  0
  1  3  1  0  0  0  0
  1  7  1  0  0  0  0
  3  4  1  0  0  0  0
  3  5  1  0  0  0  0
  3  6  1  0  0  0  0
  7  8  1  0  0  0  0
  7 12  1  0  0  0  0
  8  9  1  0  0  0  0
  8 11  1  0  0  0  0
  8 13  1  0  0  0  0
  9 10  2  0  0  0  0
  9 17  1  0  0  0  0
 11 14  1  0  0  0  0
 11 15  1  0  0  0  0
 11 16  1  0  0  0  0
 17 18  1  0  0  0  0
 17 25  1  0  0  0  0
 18 19  1  0  0  0  0
 18 21  1  0  0  0  0
 18 26  1  0  0  0  0
 19 20  2  0  0  0  0
 19 29  1  0  0  0  0
 21 22  1  0  0  0  0
 21 27  1  0  0  0  0
 21 28  1  0  0  0  0
 22 23  1  0  0  0  0
 22 24  2  0  0  0  0
 29 30  1  0  0  0  0
 29 34  1  0  0  0  0
 30 31  1  0  0  0  0
 30 33  1  0  0  0  0
 30 35  1  0  0  0  0
 31 32  2  0  0  0  0
 31 39  1  0  0  0  0
 33 36  1  0  0  0  0
 33 37  1  0  0  0  0
 33 38  1  0  0  0  0
 39 40  1  0  0  0  0
 39 41  1  0  0  0  0
 40 42  1  0  0  0  0
 40 43  1  0  0  0  0
 40 44  1  0  0  0  0
M  CHG  1  23  -1
M  END
$$$$

  -OEChem-05262215553D

 44 43  0     1  0  0  0  0  0999 V2000
   -2.9329   -1.1045   -1.0568 C   0  0  0  0  0  0  0  0  0  0  0  0
   -2.3182   -2.1487   -0.8795 O   0  0  0  0  0  0  0  0  0  0  0  0
   -3.8881   -0.5935    0.0061 C   0  0  0  0  0  0  0  0  0  0  0  0
   -3.7552    0.4825    0.1466 H   0  0  0  0  0  0  0  0  0  0  0  0
   -4.9190   -0.7833   -0.3013 H   0  0  0  0  0  0  0  0  0  0  0  0
   -3.7007   -1.0983    0.9576 H   0  0  0  0  0  0  0  0  0  0  0  0
   -2.6724   -0.3499   -2.1782 N   0  0  0  0  0  0  0  0  0  0  0  0
   -1.6957   -0.7335   -3.2095 C   0  0  2  0  0  0  0  0  0  0  0  0
   -0.2301   -0.4559   -2.7972 C   0  0  0  0  0  0  0  0  0  0  0  0
    0.6263   -0.1923   -3.6321 O   0  0  0  0  0  0  0  0  0  0  0  0
   -2.0852    0.0248   -4.4837 C   0  0  0  0  0  0  0  0  0  0  0  0
   -2.8648    0.6574   -2.0768 H   0  0  0  0  0  0  0  0  0  0  0  0
   -1.7760   -1.8059   -3.4109 H   0  0  0  0  0  0  0  0  0  0  0  0
   -1.9706    1.1037   -4.3317 H   0  0  0  0  0  0  0  0  0  0  0  0
   -1.4461   -0.2764   -5.3196 H   0  0  0  0  0  0  0  0  0  0  0  0
   -3.1253   -0.1836   -4.7509 H   0  0  0  0  0  0  0  0  0  0  0  0
    0.2350   -0.7892   -1.5414 N   0  0  0  0  0  0  0  0  0  0  0  0
    0.7217    0.2547   -0.6151 C   0  0  2  0  0  0  0  0  0  0  0  0
    1.1856   -0.4369    0.6960 C   0  0  0  0  0  0  0  0  0  0  0  0
    2.1616   -1.1791    0.6912 O   0  0  0  0  0  0  0  0  0  0  0  0
   -0.4284    1.2314   -0.2166 C   0  0  0  0  0  0  0  0  0  0  0  0
   -0.9866    2.1717   -1.2759 C   0  0  0  0  0  0  0  0  0  0  0  0
   -0.2533    2.5656   -2.2039 O   0  5  0  0  0  0  0  0  0  0  0  0
   -2.2352    2.3233   -1.2385 O   0  0  0  0  0  0  0  0  0  0  0  0
   -0.4293   -1.4248   -1.0957 H   0  0  0  0  0  0  0  0  0  0  0  0
    1.5572    0.8068   -1.0608 H   0  0  0  0  0  0  0  0  0  0  0  0
   -0.0533    1.8874    0.5740 H   0  0  0  0  0  0  0  0  0  0  0  0
   -1.2590    0.6573    0.1972 H   0  0  0  0  0  0  0  0  0  0  0  0
    0.4455   -0.3934    1.8681 N   0  0  0  0  0  0  0  0  0  0  0  0
    0.7221   -1.2031    3.0646 C   0  0  2  0  0  0  0  0  0  0  0  0
    0.2060   -2.6560    2.9162 C   0  0  0  0  0  0  0  0  0  0  0  0
   -0.5804   -3.1475    3.7198 O   0  0  0  0  0  0  0  0  0  0  0  0
    0.1116   -0.4649    4.2620 C   0  0  0  0  0  0  0  0  0  0  0  0
   -0.4332    0.1152    1.8217 H   0  0  0  0  0  0  0  0  0  0  0  0
    1.8037   -1.2604    3.2248 H   0  0  0  0  0  0  0  0  0  0  0  0
   -0.9746   -0.3853    4.1524 H   0  0  0  0  0  0  0  0  0  0  0  0
    0.3286   -1.0027    5.1903 H   0  0  0  0  0  0  0  0  0  0  0  0
    0.5311    0.5428    4.3408 H   0  0  0  0  0  0  0  0  0  0  0  0
    0.6310   -3.4078    1.8386 N   0  0  0  0  0  0  0  0  0  0  0  0
    0.0623   -4.6953    1.4714 C   0  0  0  0  0  0  0  0  0  0  0  0
    1.2447   -2.9262    1.1752 H   0  0  0  0  0  0  0  0  0  0  0  0
    0.1552   -5.4059    2.2988 H   0  0  0  0  0  0  0  0  0  0  0  0
   -0.9963   -4.5848    1.2138 H   0  0  0  0  0  0  0  0  0  0  0  0
    0.5894   -5.1047    0.6045 H   0  0  0  0  0  0  0  0  0  0  0  0
  1  2  2  0  0  0  0
  1  3  1  0  0  0  0
  1  7  1  0  0  0  0
  3  4  1  0  0  0  0
  3  5  1  0  0  0  0
  3  6  1  0  0  0  0
  7  8  1  0  0  0  0
  7 12  1  0  0  0  0
  8  9  1  0  0  0  0
  8 11  1  0  0  0  0
  8 13  1  0  0  0  0
  9 10  2  0  0  0  0
  9 17  1  0  0  0  0
 11 14  1  0  0  0  0
 11 15  1  0  0  0  0
 11 16  1  0  0  0  0
 17 18  1  0  0  0  0
 17 25  1  0  0  0  0
 18 19  1  0  0  0  0
 18 21  1  0  0  0  0
 18 26  1  0  0  0  0
 19 20  2  0  0  0  0
 19 29  1  0  0  0  0
 21 22  1  0  0  0  0
 21 27  1  0  0  0  0
 21 28  1  0  0  0  0
 22 23  1  0  0  0  0
 22 24  2  0  0  0  0
 29 30  1  0  0  0  0
 29 34  1  0  0  0  0
 30 31  1  0  0  0  0
 30 33  1  0  0  0  0
 30 35  1  0  0  0  0
 31 32  2  0  0  0  0
 31 39  1  0  0  0  0
 33 36  1  0  0  0  0
 33 37  1  0  0  0  0
 33 38  1  0  0  0  0
 39 40  1  0  0  0  0
 39 41  1  0  0  0  0
 40 42  1  0  0  0  0
 40 43  1  0  0  0  0
 40 44  1  0  0  0  0
M  CHG  1  23  -1
M  END
$$$$

  -OEChem-05262215553D

 44 43  0     1  0  0  0  0  0999 V2000
   -3.1699   -0.8375   -1.3639 C   0  0  0  0  0  0  0  0  0  0  0  0
   -2.6537   -1.9323   -1.1763 O   0  0  0  0  0  0  0  0  0  0  0  0
   -4.1752   -0.2863   -0.3689 C   0  0  0  0  0  0  0  0  0  0  0  0
   -5.1524   -0.1908   -0.8479 H   0  0  0  0  0  0  0  0  0  0  0  0
   -4.2653   -0.9548    0.4915 H   0  0  0  0  0  0  0  0  0  0  0  0
   -3.8589    0.7000   -0.0192 H   0  0  0  0  0  0  0  0  0  0  0  0
   -2.7615   -0.0709   -2.4308 N   0  0  0  0  0  0  0  0  0  0  0  0
   -1.7585   -0.5045   -3.4154 C   0  0  2  0  0  0  0  0  0  0  0  0
   -0.3013   -0.3922   -2.9052 C   0  0  0  0  0  0  0  0  0  0  0  0
    0.6231   -0.1642   -3.6755 O   0  0  0  0  0  0  0  0  0  0  0  0
   -1.9915    0.3453   -4.6705 C   0  0  0  0  0  0  0  0  0  0  0  0
   -2.8626    0.9448   -2.2908 H   0  0  0  0  0  0  0  0  0  0  0  0
   -1.9298   -1.5536   -3.6748 H   0  0  0  0  0  0  0  0  0  0  0  0
   -1.7791    1.3990   -4.4586 H   0  0  0  0  0  0  0  0  0  0  0  0
   -1.3360    0.0173   -5.4833 H   0  0  0  0  0  0  0  0  0  0  0  0
   -3.0287    0.2571   -5.0067 H   0  0  0  0  0  0  0  0  0  0  0  0
    0.0627   -0.8597   -1.6584 N   0  0  0  0  0  0  0  0  0  0  0  0
    0.5702    0.0720   -0.6298 C   0  0  2  0  0  0  0  0  0  0  0  0
    0.9066   -0.7409    0.6465 C   0  0  0  0  0  0  0  0  0  0  0  0
    2.0089   -1.2611    0.7798 O   0  0  0  0  0  0  0  0  0  0  0  0
   -0.5079    1.1163   -0.2072 C   0  0  0  0  0  0  0  0  0  0  0  0
   -0.9185    2.1787   -1.2184 C   0  0  0  0  0  0  0  0  0  0  0  0
   -0.1004    2.5662   -2.0756 O   0  5  0  0  0  0  0  0  0  0  0  0
   -2.1479    2.4473   -1.2335 O   0  0  0  0  0  0  0  0  0  0  0  0
   -0.6836   -1.4585   -1.3001 H   0  0  0  0  0  0  0  0  0  0  0  0
    1.4714    0.5816   -0.9908 H   0  0  0  0  0  0  0  0  0  0  0  0
   -0.1211    1.6663    0.6553 H   0  0  0  0  0  0  0  0  0  0  0  0
   -1.4095    0.5955    0.1166 H   0  0  0  0  0  0  0  0  0  0  0  0
   -0.0242   -0.9691    1.6485 N   0  0  0  0  0  0  0  0  0  0  0  0
    0.2346   -1.7277    2.8829 C   0  0  2  0  0  0  0  0  0  0  0  0
    0.2002   -3.2631    2.6706 C   0  0  0  0  0  0  0  0  0  0  0  0
   -0.4784   -3.9990    3.3807 O   0  0  0  0  0  0  0  0  0  0  0  0
   -0.7801   -1.2453    3.9272 C   0  0  0  0  0  0  0  0  0  0  0  0
   -0.9591   -0.6054    1.4874 H   0  0  0  0  0  0  0  0  0  0  0  0
    1.2353   -1.4807    3.2526 H   0  0  0  0  0  0  0  0  0  0  0  0
   -1.8006   -1.4857    3.6122 H   0  0  0  0  0  0  0  0  0  0  0  0
   -0.5919   -1.7281    4.8914 H   0  0  0  0  0  0  0  0  0  0  0  0
   -0.7002   -0.1625    4.0639 H   0  0  0  0  0  0  0  0  0  0  0  0
    0.9822   -3.8228    1.6793 N   0  0  0  0  0  0  0  0  0  0  0  0
    1.0082   -5.2397    1.3507 C   0  0  0  0  0  0  0  0  0  0  0  0
    1.5344   -3.1653    1.1202 H   0  0  0  0  0  0  0  0  0  0  0  0
    1.2923   -5.8312    2.2268 H   0  0  0  0  0  0  0  0  0  0  0  0
    0.0238   -5.5690    1.0031 H   0  0  0  0  0  0  0  0  0  0  0  0
    1.7372   -5.4264    0.5564 H   0  0  0  0  0  0  0  0  0  0  0  0
  1  2  2  0  0  0  0
  1  3  1  0  0  0  0
  1  7  1  0  0  0  0
  3  4  1  0  0  0  0
  3  5  1  0  0  0  0
  3  6  1  0  0  0  0
  7  8  1  0  0  0  0
  7 12  1  0  0  0  0
  8  9  1  0  0  0  0
  8 11  1  0  0  0  0
  8 13  1  0  0  0  0
  9 10  2  0  0  0  0
  9 17  1  0  0  0  0
 11 14  1  0  0  0  0
 11 15  1  0  0  0  0
 11 16  1  0  0  0  0
 17 18  1  0  0  0  0
 17 25  1  0  0  0  0
 18 19  1  0  0  0  0
 18 21  1  0  0  0  0
 18 26  1  0  0  0  0
 19 20  2  0  0  0  0
 19 29  1  0  0  0  0
 21 22  1  0  0  0  0
 21 27  1  0  0  0  0
 21 28  1  0  0  0  0
 22 23  1  0  0  0  0
 22 24  2  0  0  0  0
 29 30  1  0  0  0  0
 29 34  1  0  0  0  0
 30 31  1  0  0  0  0
 30 33  1  0  0  0  0
 30 35  1  0  0  0  0
 31 32  2  0  0  0  0
 31 39  1  0  0  0  0
 33 36  1  0  0  0  0
 33 37  1  0  0  0  0
 33 38  1  0  0  0  0
 39 40  1  0  0  0  0
 39 41  1  0  0  0  0
 40 42  1  0  0  0  0
 40 43  1  0  0  0  0
 40 44  1  0  0  0  0
M  CHG  1  23  -1
M  END
$$$$

  -OEChem-05262215553D

 44 43  0     1  0  0  0  0  0999 V2000
   -3.2608   -0.7861   -1.3874 C   0  0  0  0  0  0  0  0  0  0  0  0
   -2.7304   -1.8678   -1.1627 O   0  0  0  0  0  0  0  0  0  0  0  0
   -4.2534   -0.2081   -0.3949 C   0  0  0  0  0  0  0  0  0  0  0  0
   -3.8907    0.7494   -0.0129 H   0  0  0  0  0  0  0  0  0  0  0  0
   -5.2158   -0.0473   -0.8864 H   0  0  0  0  0  0  0  0  0  0  0  0
   -4.3949   -0.8928    0.4454 H   0  0  0  0  0  0  0  0  0  0  0  0
   -2.8714   -0.0528   -2.4854 N   0  0  0  0  0  0  0  0  0  0  0  0
   -1.8953   -0.5178   -3.4846 C   0  0  2  0  0  0  0  0  0  0  0  0
   -0.4244   -0.4173   -3.0116 C   0  0  0  0  0  0  0  0  0  0  0  0
    0.4877   -0.2112   -3.8020 O   0  0  0  0  0  0  0  0  0  0  0  0
   -2.1436    0.3087   -4.7513 C   0  0  0  0  0  0  0  0  0  0  0  0
   -2.9559    0.9667   -2.3628 H   0  0  0  0  0  0  0  0  0  0  0  0
   -2.0872   -1.5694   -3.7175 H   0  0  0  0  0  0  0  0  0  0  0  0
   -1.9049    1.3624   -4.5689 H   0  0  0  0  0  0  0  0  0  0  0  0
   -1.5159   -0.0515   -5.5721 H   0  0  0  0  0  0  0  0  0  0  0  0
   -3.1905    0.2340   -5.0590 H   0  0  0  0  0  0  0  0  0  0  0  0
   -0.0503   -0.8935   -1.7726 N   0  0  0  0  0  0  0  0  0  0  0  0
    0.4829    0.0247   -0.7470 C   0  0  2  0  0  0  0  0  0  0  0  0
    0.8135   -0.8190    0.5052 C   0  0  0  0  0  0  0  0  0  0  0  0
    1.9693   -1.1265    0.7742 O   0  0  0  0  0  0  0  0  0  0  0  0
   -0.5634    1.0804   -0.2832 C   0  0  0  0  0  0  0  0  0  0  0  0
   -0.9761    2.1580   -1.2780 C   0  0  0  0  0  0  0  0  0  0  0  0
   -0.1684    2.5335   -2.1507 O   0  5  0  0  0  0  0  0  0  0  0  0
   -2.2018    2.4444   -1.2725 O   0  0  0  0  0  0  0  0  0  0  0  0
   -0.8033   -1.4793   -1.4075 H   0  0  0  0  0  0  0  0  0  0  0  0
    1.3891    0.5220   -1.1132 H   0  0  0  0  0  0  0  0  0  0  0  0
   -0.1394    1.6134    0.5722 H   0  0  0  0  0  0  0  0  0  0  0  0
   -1.4637    0.5776    0.0688 H   0  0  0  0  0  0  0  0  0  0  0  0
   -0.1901   -1.2928    1.3354 N   0  0  0  0  0  0  0  0  0  0  0  0
    0.0301   -2.1124    2.5367 C   0  0  2  0  0  0  0  0  0  0  0  0
    0.3177   -3.6012    2.2129 C   0  0  0  0  0  0  0  0  0  0  0  0
   -0.2628   -4.5138    2.7931 O   0  0  0  0  0  0  0  0  0  0  0  0
   -1.1989   -1.9225    3.4334 C   0  0  0  0  0  0  0  0  0  0  0  0
   -1.1453   -1.1416    1.0201 H   0  0  0  0  0  0  0  0  0  0  0  0
    0.9019   -1.7299    3.0770 H   0  0  0  0  0  0  0  0  0  0  0  0
   -2.0955   -2.3121    2.9411 H   0  0  0  0  0  0  0  0  0  0  0  0
   -1.0644   -2.4531    4.3811 H   0  0  0  0  0  0  0  0  0  0  0  0
   -1.3509   -0.8609    3.6510 H   0  0  0  0  0  0  0  0  0  0  0  0
    1.2780   -3.9112    1.2700 N   0  0  0  0  0  0  0  0  0  0  0  0
    1.6393   -5.2628    0.8731 C   0  0  0  0  0  0  0  0  0  0  0  0
    1.7700   -3.1152    0.8536 H   0  0  0  0  0  0  0  0  0  0  0  0
    2.0771   -5.8041    1.7174 H   0  0  0  0  0  0  0  0  0  0  0  0
    0.7571   -5.8068    0.5207 H   0  0  0  0  0  0  0  0  0  0  0  0
    2.3724   -5.2308    0.0615 H   0  0  0  0  0  0  0  0  0  0  0  0
  1  2  2  0  0  0  0
  1  3  1  0  0  0  0
  1  7  1  0  0  0  0
  3  4  1  0  0  0  0
  3  5  1  0  0  0  0
  3  6  1  0  0  0  0
  7  8  1  0  0  0  0
  7 12  1  0  0  0  0
  8  9  1  0  0  0  0
  8 11  1  0  0  0  0
  8 13  1  0  0  0  0
  9 10  2  0  0  0  0
  9 17  1  0  0  0  0
 11 14  1  0  0  0  0
 11 15  1  0  0  0  0
 11 16  1  0  0  0  0
 17 18  1  0  0  0  0
 17 25  1  0  0  0  0
 18 19  1  0  0  0  0
 18 21  1  0  0  0  0
 18 26  1  0  0  0  0
 19 20  2  0  0  0  0
 19 29  1  0  0  0  0
 21 22  1  0  0  0  0
 21 27  1  0  0  0  0
 21 28  1  0  0  0  0
 22 23  1  0  0  0  0
 22 24  2  0  0  0  0
 29 30  1  0  0  0  0
 29 34  1  0  0  0  0
 30 31  1  0  0  0  0
 30 33  1  0  0  0  0
 30 35  1  0  0  0  0
 31 32  2  0  0  0  0
 31 39  1  0  0  0  0
 33 36  1  0  0  0  0
 33 37  1  0  0  0  0
 33 38  1  0  0  0  0
 39 40  1  0  0  0  0
 39 41  1  0  0  0  0
 40 42  1  0  0  0  0
 40 43  1  0  0  0  0
 40 44  1  0  0  0  0
M  CHG  1  23  -1
M  END
$$$$

  -OEChem-05262215553D

 44 43  0     1  0  0  0  0  0999 V2000
   -3.3194   -0.6371   -1.4801 C   0  0  0  0  0  0  0  0  0  0  0  0
   -2.8166   -1.7395   -1.2866 O   0  0  0  0  0  0  0  0  0  0  0  0
   -4.2734   -0.0534   -0.4528 C   0  0  0  0  0  0  0  0  0  0  0  0
   -5.2731    0.0330   -0.8849 H   0  0  0  0  0  0  0  0  0  0  0  0
   -4.3222   -0.6950    0.4309 H   0  0  0  0  0  0  0  0  0  0  0  0
   -3.9370    0.9403   -0.1460 H   0  0  0  0  0  0  0  0  0  0  0  0
   -2.9322    0.1111   -2.5703 N   0  0  0  0  0  0  0  0  0  0  0  0
   -2.0019   -0.3530   -3.6146 C   0  0  2  0  0  0  0  0  0  0  0  0
   -0.5162   -0.3469   -3.1781 C   0  0  0  0  0  0  0  0  0  0  0  0
    0.3899   -0.1586   -3.9796 O   0  0  0  0  0  0  0  0  0  0  0  0
   -2.2366    0.5446   -4.8350 C   0  0  0  0  0  0  0  0  0  0  0  0
   -2.9700    1.1282   -2.4107 H   0  0  0  0  0  0  0  0  0  0  0  0
   -2.2517   -1.3821   -3.8896 H   0  0  0  0  0  0  0  0  0  0  0  0
   -1.9500    1.5770   -4.6053 H   0  0  0  0  0  0  0  0  0  0  0  0
   -1.6392    0.2007   -5.6852 H   0  0  0  0  0  0  0  0  0  0  0  0
   -3.2912    0.5291   -5.1254 H   0  0  0  0  0  0  0  0  0  0  0  0
   -0.1557   -0.9043   -1.9714 N   0  0  0  0  0  0  0  0  0  0  0  0
    0.4467   -0.0762   -0.9093 C   0  0  2  0  0  0  0  0  0  0  0  0
    0.7330   -1.0093    0.2852 C   0  0  0  0  0  0  0  0  0  0  0  0
    1.8683   -1.1610    0.7227 O   0  0  0  0  0  0  0  0  0  0  0  0
   -0.5262    1.0036   -0.3574 C   0  0  0  0  0  0  0  0  0  0  0  0
   -0.8961    2.1545   -1.2852 C   0  0  0  0  0  0  0  0  0  0  0  0
   -0.0833    2.5272   -2.1551 O   0  5  0  0  0  0  0  0  0  0  0  0
   -2.1044    2.5048   -1.2461 O   0  0  0  0  0  0  0  0  0  0  0  0
   -0.9395   -1.4594   -1.6260 H   0  0  0  0  0  0  0  0  0  0  0  0
    1.3762    0.3861   -1.2624 H   0  0  0  0  0  0  0  0  0  0  0  0
   -0.0490    1.4648    0.5121 H   0  0  0  0  0  0  0  0  0  0  0  0
   -1.4415    0.5317   -0.0005 H   0  0  0  0  0  0  0  0  0  0  0  0
   -0.3047   -1.6983    0.8950 N   0  0  0  0  0  0  0  0  0  0  0  0
   -0.1586   -2.5676    2.0715 C   0  0  2  0  0  0  0  0  0  0  0  0
    0.4403   -3.9588    1.7375 C   0  0  0  0  0  0  0  0  0  0  0  0
   -0.0571   -4.9967    2.1637 O   0  0  0  0  0  0  0  0  0  0  0  0
   -1.5428   -2.6551    2.7263 C   0  0  0  0  0  0  0  0  0  0  0  0
   -1.2222   -1.6270    0.4563 H   0  0  0  0  0  0  0  0  0  0  0  0
    0.5215   -2.0911    2.7851 H   0  0  0  0  0  0  0  0  0  0  0  0
   -2.2580   -3.1341    2.0495 H   0  0  0  0  0  0  0  0  0  0  0  0
   -1.4912   -3.2411    3.6491 H   0  0  0  0  0  0  0  0  0  0  0  0
   -1.9110   -1.6547    2.9739 H   0  0  0  0  0  0  0  0  0  0  0  0
    1.5932   -4.0345    0.9808 N   0  0  0  0  0  0  0  0  0  0  0  0
    2.2730   -5.2721    0.6311 C   0  0  0  0  0  0  0  0  0  0  0  0
    2.0011   -3.1386    0.6973 H   0  0  0  0  0  0  0  0  0  0  0  0
    2.6488   -5.7700    1.5306 H   0  0  0  0  0  0  0  0  0  0  0  0
    1.5897   -5.9494    0.1088 H   0  0  0  0  0  0  0  0  0  0  0  0
    3.1198   -5.0601   -0.0283 H   0  0  0  0  0  0  0  0  0  0  0  0
  1  2  2  0  0  0  0
  1  3  1  0  0  0  0
  1  7  1  0  0  0  0
  3  4  1  0  0  0  0
  3  5  1  0  0  0  0
  3  6  1  0  0  0  0
  7  8  1  0  0  0  0
  7 12  1  0  0  0  0
  8  9  1  0  0  0  0
  8 11  1  0  0  0  0
  8 13  1  0  0  0  0
  9 10  2  0  0  0  0
  9 17  1  0  0  0  0
 11 14  1  0  0  0  0
 11 15  1  0  0  0  0
 11 16  1  0  0  0  0
 17 18  1  0  0  0  0
 17 25  1  0  0  0  0
 18 19  1  0  0  0  0
 18 21  1  0  0  0  0
 18 26  1  0  0  0  0
 19 20  2  0  0  0  0
 19 29  1  0  0  0  0
 21 22  1  0  0  0  0
 21 27  1  0  0  0  0
 21 28  1  0  0  0  0
 22 23  1  0  0  0  0
 22 24  2  0  0  0  0
 29 30  1  0  0  0  0
 29 34  1  0  0  0  0
 30 31  1  0  0  0  0
 30 33  1  0  0  0  0
 30 35  1  0  0  0  0
 31 32  2  0  0  0  0
 31 39  1  0  0  0  0
 33 36  1  0  0  0  0
 33 37  1  0  0  0  0
 33 38  1  0  0  0  0
 39 40  1  0  0  0  0
 39 41  1  0  0  0  0
 40 42  1  0  0  0  0
 40 43  1  0  0  0  0
 40 44  1  0  0  0  0
M  CHG  1  23  -1
M  END
$$$$

  -OEChem-05262215553D

 44 43  0     1  0  0  0  0  0999 V2000
   -3.3804   -0.6206   -1.5173 C   0  0  0  0  0  0  0  0  0  0  0  0
   -2.8807   -1.7413   -1.4855 O   0  0  0  0  0  0  0  0  0  0  0  0
   -4.2435   -0.1481   -0.3614 C   0  0  0  0  0  0  0  0  0  0  0  0
   -5.2540    0.0664   -0.7172 H   0  0  0  0  0  0  0  0  0  0  0  0
   -4.2961   -0.9169    0.4139 H   0  0  0  0  0  0  0  0  0  0  0  0
   -3.8246    0.7628    0.0740 H   0  0  0  0  0  0  0  0  0  0  0  0
   -3.0614    0.2454   -2.5408 N   0  0  0  0  0  0  0  0  0  0  0  0
   -2.2090   -0.0943   -3.6947 C   0  0  2  0  0  0  0  0  0  0  0  0
   -0.6984   -0.1560   -3.3610 C   0  0  0  0  0  0  0  0  0  0  0  0
    0.1614    0.0830   -4.1993 O   0  0  0  0  0  0  0  0  0  0  0  0
   -2.5036    0.9519   -4.7751 C   0  0  0  0  0  0  0  0  0  0  0  0
   -3.0816    1.2385   -2.2665 H   0  0  0  0  0  0  0  0  0  0  0  0
   -2.4950   -1.0781   -4.0787 H   0  0  0  0  0  0  0  0  0  0  0  0
   -2.1804    1.9436   -4.4391 H   0  0  0  0  0  0  0  0  0  0  0  0
   -1.9700    0.7085   -5.6991 H   0  0  0  0  0  0  0  0  0  0  0  0
   -3.5748    0.9874   -4.9936 H   0  0  0  0  0  0  0  0  0  0  0  0
   -0.2840   -0.8179   -2.2273 N   0  0  0  0  0  0  0  0  0  0  0  0
    0.4201   -0.1005   -1.1468 C   0  0  2  0  0  0  0  0  0  0  0  0
    0.7501   -1.1238   -0.0394 C   0  0  0  0  0  0  0  0  0  0  0  0
    1.8523   -1.1561    0.4971 O   0  0  0  0  0  0  0  0  0  0  0  0
   -0.4981    0.9318   -0.4358 C   0  0  0  0  0  0  0  0  0  0  0  0
   -0.9220    2.1627   -1.2272 C   0  0  0  0  0  0  0  0  0  0  0  0
   -0.1720    2.6102   -2.1181 O   0  5  0  0  0  0  0  0  0  0  0  0
   -2.1228    2.5067   -1.0710 O   0  0  0  0  0  0  0  0  0  0  0  0
   -1.0652   -1.3727   -1.8793 H   0  0  0  0  0  0  0  0  0  0  0  0
    1.3344    0.3745   -1.5214 H   0  0  0  0  0  0  0  0  0  0  0  0
    0.0445    1.3146    0.4333 H   0  0  0  0  0  0  0  0  0  0  0  0
   -1.3884    0.4304   -0.0550 H   0  0  0  0  0  0  0  0  0  0  0  0
   -0.2116   -2.0339    0.3769 N   0  0  0  0  0  0  0  0  0  0  0  0
   -0.0576   -2.9538    1.5130 C   0  0  2  0  0  0  0  0  0  0  0  0
    0.7837   -4.2116    1.1760 C   0  0  0  0  0  0  0  0  0  0  0  0
    0.4093   -5.3404    1.4792 O   0  0  0  0  0  0  0  0  0  0  0  0
   -1.4744   -3.2944    1.9912 C   0  0  0  0  0  0  0  0  0  0  0  0
   -1.1197   -1.9909   -0.0852 H   0  0  0  0  0  0  0  0  0  0  0  0
    0.4576   -2.4340    2.3275 H   0  0  0  0  0  0  0  0  0  0  0  0
   -2.0233   -3.8313    1.2106 H   0  0  0  0  0  0  0  0  0  0  0  0
   -1.4337   -3.9248    2.8848 H   0  0  0  0  0  0  0  0  0  0  0  0
   -2.0234   -2.3807    2.2391 H   0  0  0  0  0  0  0  0  0  0  0  0
    2.0109   -4.0596    0.5614 N   0  0  0  0  0  0  0  0  0  0  0  0
    2.9011   -5.1571    0.2156 C   0  0  0  0  0  0  0  0  0  0  0  0
    2.3014   -3.0950    0.3760 H   0  0  0  0  0  0  0  0  0  0  0  0
    2.3915   -5.8708   -0.4397 H   0  0  0  0  0  0  0  0  0  0  0  0
    3.7816   -4.7740   -0.3091 H   0  0  0  0  0  0  0  0  0  0  0  0
    3.2337   -5.6793    1.1183 H   0  0  0  0  0  0  0  0  0  0  0  0
  1  2  2  0  0  0  0
  1  3  1  0  0  0  0
  1  7  1  0  0  0  0
  3  4  1  0  0  0  0
  3  5  1  0  0  0  0
  3  6  1  0  0  0  0
  7  8  1  0  0  0  0
  7 12  1  0  0  0  0
  8  9  1  0  0  0  0
  8 11  1  0  0  0  0
  8 13  1  0  0  0  0
  9 10  2  0  0  0  0
  9 17  1  0  0  0  0
 11 14  1  0  0  0  0
 11 15  1  0  0  0  0
 11 16  1  0  0  0  0
 17 18  1  0  0  0  0
 17 25  1  0  0  0  0
 18 19  1  0  0  0  0
 18 21  1  0  0  0  0
 18 26  1  0  0  0  0
 19 20  2  0  0  0  0
 19 29  1  0  0  0  0
 21 22  1  0  0  0  0
 21 27  1  0  0  0  0
 21 28  1  0  0  0  0
 22 23  1  0  0  0  0
 22 24  2  0  0  0  0
 29 30  1  0  0  0  0
 29 34  1  0  0  0  0
 30 31  1  0  0  0  0
 30 33  1  0  0  0  0
 30 35  1  0  0  0  0
 31 32  2  0  0  0  0
 31 39  1  0  0  0  0
 33 36  1  0  0  0  0
 33 37  1  0  0  0  0
 33 38  1  0  0  0  0
 39 40  1  0  0  0  0
 39 41  1  0  0  0  0
 40 42  1  0  0  0  0
 40 43  1  0  0  0  0
 40 44  1  0  0  0  0
M  CHG  1  23  -1
M  END
$$$$

  -OEChem-05262215553D

 44 43  0     1  0  0  0  0  0999 V2000
   -4.7619    0.6471   -2.9170 C   0  0  0  0  0  0  0  0  0  0  0  0
   -5.2039   -0.4205   -3.3275 O   0  0  0  0  0  0  0  0  0  0  0  0
   -5.7159    1.7058   -2.3930 C   0  0  0  0  0  0  0  0  0  0  0  0
   -5.5296    2.6570   -2.8970 H   0  0  0  0  0  0  0  0  0  0  0  0
   -6.7514    1.4058   -2.5708 H   0  0  0  0  0  0  0  0  0  0  0  0
   -5.5678    1.8419   -1.3191 H   0  0  0  0  0  0  0  0  0  0  0  0
   -3.4153    0.9258   -3.0154 N   0  0  0  0  0  0  0  0  0  0  0  0
   -2.3937   -0.0765   -3.3410 C   0  0  2  0  0  0  0  0  0  0  0  0
   -1.0154    0.3916   -2.8293 C   0  0  0  0  0  0  0  0  0  0  0  0
   -0.4217    1.3133   -3.3741 O   0  0  0  0  0  0  0  0  0  0  0  0
   -2.3598   -0.3105   -4.8576 C   0  0  0  0  0  0  0  0  0  0  0  0
   -3.1008    1.7402   -2.4698 H   0  0  0  0  0  0  0  0  0  0  0  0
   -2.6413   -1.0175   -2.8407 H   0  0  0  0  0  0  0  0  0  0  0  0
   -2.1654    0.6291   -5.3849 H   0  0  0  0  0  0  0  0  0  0  0  0
   -1.5718   -1.0245   -5.1141 H   0  0  0  0  0  0  0  0  0  0  0  0
   -3.3158   -0.7114   -5.2056 H   0  0  0  0  0  0  0  0  0  0  0  0
   -0.2763   -0.3258   -1.9091 N   0  0  0  0  0  0  0  0  0  0  0  0
    0.0527    0.3140   -0.6151 C   0  0  2  0  0  0  0  0  0  0  0  0
    0.8980   -0.6367    0.2686 C   0  0  0  0  0  0  0  0  0  0  0  0
    1.7092   -0.1890    1.0711 O   0  0  0  0  0  0  0  0  0  0  0  0
   -1.2226    0.5015    0.2596 C   0  0  0  0  0  0  0  0  0  0  0  0
   -2.2738    1.5108   -0.1805 C   0  0  0  0  0  0  0  0  0  0  0  0
   -1.9444    2.5179   -0.8440 O   0  5  0  0  0  0  0  0  0  0  0  0
   -3.4588    1.2034    0.0837 O   0  0  0  0  0  0  0  0  0  0  0  0
   -0.6876   -1.2417   -1.7868 H   0  0  0  0  0  0  0  0  0  0  0  0
    0.5764    1.2656   -0.7657 H   0  0  0  0  0  0  0  0  0  0  0  0
   -0.9084    0.8244    1.2565 H   0  0  0  0  0  0  0  0  0  0  0  0
   -1.7174   -0.4686    0.3701 H   0  0  0  0  0  0  0  0  0  0  0  0
    0.7673   -2.0135    0.1817 N   0  0  0  0  0  0  0  0  0  0  0  0
    1.6213   -2.9784    0.8827 C   0  0  2  0  0  0  0  0  0  0  0  0
    1.8962   -4.2248    0.0166 C   0  0  0  0  0  0  0  0  0  0  0  0
    1.1646   -4.4970   -0.9305 O   0  0  0  0  0  0  0  0  0  0  0  0
    0.9260   -3.3700    2.1889 C   0  0  0  0  0  0  0  0  0  0  0  0
    0.1948   -2.3825   -0.5711 H   0  0  0  0  0  0  0  0  0  0  0  0
    2.5898   -2.5223    1.1126 H   0  0  0  0  0  0  0  0  0  0  0  0
   -0.0423   -3.8373    1.9820 H   0  0  0  0  0  0  0  0  0  0  0  0
    1.5409   -4.0760    2.7546 H   0  0  0  0  0  0  0  0  0  0  0  0
    0.7599   -2.4825    2.8082 H   0  0  0  0  0  0  0  0  0  0  0  0
    2.9798   -5.0384    0.2938 N   0  0  0  0  0  0  0  0  0  0  0  0
    3.3457   -6.1894   -0.5209 C   0  0  0  0  0  0  0  0  0  0  0  0
    3.5956   -4.7530    1.0494 H   0  0  0  0  0  0  0  0  0  0  0  0
    2.5253   -6.9136   -0.5529 H   0  0  0  0  0  0  0  0  0  0  0  0
    3.5798   -5.8751   -1.5432 H   0  0  0  0  0  0  0  0  0  0  0  0
    4.2261   -6.6840   -0.1000 H   0  0  0  0  0  0  0  0  0  0  0  0
  1  2  2  0  0  0  0
  1  3  1  0  0  0  0
  1  7  1  0  0  0  0
  3  4  1  0  0  0  0
  3  5  1  0  0  0  0
  3  6  1  0  0  0  0
  7  8  1  0  0  0  0
  7 12  1  0  0  0  0
  8  9  1  0  0  0  0
  8 11  1  0  0  0  0
  8 13  1  0  0  0  0
  9 10  2  0  0  0  0
  9 17  1  0  0  0  0
 11 14  1  0  0  0  0
 11 15  1  0  0  0  0
 11 16  1  0  0  0  0
 17 18  1  0  0  0  0
 17 25  1  0  0  0  0
 18 19  1  0  0  0  0
 18 21  1  0  0  0  0
 18 26  1  0  0  0  0
 19 20  2  0  0  0  0
 19 29  1  0  0  0  0
 21 22  1  0  0  0  0
 21 27  1  0  0  0  0
 21 28  1  0  0  0  0
 22 23  1  0  0  0  0
 22 24  2  0  0  0  0
 29 30  1  0  0  0  0
 29 34  1  0  0  0  0
 30 31  1  0  0  0  0
 30 33  1  0  0  0  0
 30 35  1  0  0  0  0
 31 32  2  0  0  0  0
 31 39  1  0  0  0  0
 33 36  1  0  0  0  0
 33 37  1  0  0  0  0
 33 38  1  0  0  0  0
 39 40  1  0  0  0  0
 39 41  1  0  0  0  0
 40 42  1  0  0  0  0
 40 43  1  0  0  0  0
 40 44  1  0  0  0  0
M  CHG  1  23  -1
M  END
$$$$

  -OEChem-05262215553D

 44 43  0     1  0  0  0  0  0999 V2000
   -4.8379    0.7591   -2.9207 C   0  0  0  0  0  0  0  0  0  0  0  0
   -5.3181   -0.2930   -3.3289 O   0  0  0  0  0  0  0  0  0  0  0  0
   -5.7514    1.8478   -2.3863 C   0  0  0  0  0  0  0  0  0  0  0  0
   -5.6414    2.7522   -2.9888 H   0  0  0  0  0  0  0  0  0  0  0  0
   -6.7937    1.5208   -2.4192 H   0  0  0  0  0  0  0  0  0  0  0  0
   -5.4886    2.0803   -1.3512 H   0  0  0  0  0  0  0  0  0  0  0  0
   -3.4847    0.9982   -3.0307 N   0  0  0  0  0  0  0  0  0  0  0  0
   -2.4942   -0.0416   -3.3324 C   0  0  2  0  0  0  0  0  0  0  0  0
   -1.0986    0.4136   -2.8591 C   0  0  0  0  0  0  0  0  0  0  0  0
   -0.5178    1.3411   -3.4082 O   0  0  0  0  0  0  0  0  0  0  0  0
   -2.4805   -0.3390   -4.8380 C   0  0  0  0  0  0  0  0  0  0  0  0
   -3.1453    1.7991   -2.4801 H   0  0  0  0  0  0  0  0  0  0  0  0
   -2.7583   -0.9539   -2.7891 H   0  0  0  0  0  0  0  0  0  0  0  0
   -2.2697    0.5732   -5.4051 H   0  0  0  0  0  0  0  0  0  0  0  0
   -1.7107   -1.0804   -5.0711 H   0  0  0  0  0  0  0  0  0  0  0  0
   -3.4480   -0.7327   -5.1621 H   0  0  0  0  0  0  0  0  0  0  0  0
   -0.3316   -0.3193   -1.9756 N   0  0  0  0  0  0  0  0  0  0  0  0
    0.0125    0.2891   -0.6706 C   0  0  2  0  0  0  0  0  0  0  0  0
    0.8898   -0.6825    0.1603 C   0  0  0  0  0  0  0  0  0  0  0  0
    1.4964   -0.2993    1.1546 O   0  0  0  0  0  0  0  0  0  0  0  0
   -1.2550    0.4431    0.2235 C   0  0  0  0  0  0  0  0  0  0  0  0
   -2.3186    1.4557   -0.1790 C   0  0  0  0  0  0  0  0  0  0  0  0
   -2.0010    2.4820   -0.8196 O   0  5  0  0  0  0  0  0  0  0  0  0
   -3.4994    1.1346    0.0879 O   0  0  0  0  0  0  0  0  0  0  0  0
   -0.7524   -1.2325   -1.8521 H   0  0  0  0  0  0  0  0  0  0  0  0
    0.5247    1.2493   -0.8032 H   0  0  0  0  0  0  0  0  0  0  0  0
   -0.9362    0.7443    1.2257 H   0  0  0  0  0  0  0  0  0  0  0  0
   -1.7381   -0.5349    0.3140 H   0  0  0  0  0  0  0  0  0  0  0  0
    0.9963   -2.0201   -0.1856 N   0  0  0  0  0  0  0  0  0  0  0  0
    1.8892   -2.9767    0.4781 C   0  0  2  0  0  0  0  0  0  0  0  0
    2.4429   -4.0190   -0.5154 C   0  0  0  0  0  0  0  0  0  0  0  0
    1.9015   -4.1898   -1.6033 O   0  0  0  0  0  0  0  0  0  0  0  0
    1.1079   -3.6649    1.6007 C   0  0  0  0  0  0  0  0  0  0  0  0
    0.7044   -2.2653   -1.1288 H   0  0  0  0  0  0  0  0  0  0  0  0
    2.7478   -2.4486    0.9060 H   0  0  0  0  0  0  0  0  0  0  0  0
    0.2439   -4.1992    1.1926 H   0  0  0  0  0  0  0  0  0  0  0  0
    1.7444   -4.3802    2.1299 H   0  0  0  0  0  0  0  0  0  0  0  0
    0.7498   -2.9226    2.3215 H   0  0  0  0  0  0  0  0  0  0  0  0
    3.5644   -4.7613   -0.1921 N   0  0  0  0  0  0  0  0  0  0  0  0
    4.1784   -5.7207   -1.1005 C   0  0  0  0  0  0  0  0  0  0  0  0
    4.0125   -4.5670    0.6986 H   0  0  0  0  0  0  0  0  0  0  0  0
    3.4732   -6.5217   -1.3454 H   0  0  0  0  0  0  0  0  0  0  0  0
    4.4878   -5.2264   -2.0275 H   0  0  0  0  0  0  0  0  0  0  0  0
    5.0619   -6.1679   -0.6353 H   0  0  0  0  0  0  0  0  0  0  0  0
  1  2  2  0  0  0  0
  1  3  1  0  0  0  0
  1  7  1  0  0  0  0
  3  4  1  0  0  0  0
  3  5  1  0  0  0  0
  3  6  1  0  0  0  0
  7  8  1  0  0  0  0
  7 12  1  0  0  0  0
  8  9  1  0  0  0  0
  8 11  1  0  0  0  0
  8 13  1  0  0  0  0
  9 10  2  0  0  0  0
  9 17  1  0  0  0  0
 11 14  1  0  0  0  0
 11 15  1  0  0  0  0
 11 16  1  0  0  0  0
 17 18  1  0  0  0  0
 17 25  1  0  0  0  0
 18 19  1  0  0  0  0
 18 21  1  0  0  0  0
 18 26  1  0  0  0  0
 19 20  2  0  0  0  0
 19 29  1  0  0  0  0
 21 22  1  0  0  0  0
 21 27  1  0  0  0  0
 21 28  1  0  0  0  0
 22 23  1  0  0  0  0
 22 24  2  0  0  0  0
 29 30  1  0  0  0  0
 29 34  1  0  0  0  0
 30 31  1  0  0  0  0
 30 33  1  0  0  0  0
 30 35  1  0  0  0  0
 31 32  2  0  0  0  0
 31 39  1  0  0  0  0
 33 36  1  0  0  0  0
 33 37  1  0  0  0  0
 33 38  1  0  0  0  0
 39 40  1  0  0  0  0
 39 41  1  0  0  0  0
 40 42  1  0  0  0  0
 40 43  1  0  0  0  0
 40 44  1  0  0  0  0
M  CHG  1  23  -1
M  END
$$$$

  -OEChem-05262215553D

 44 43  0     1  0  0  0  0  0999 V2000
   -4.8882    0.6827   -2.8893 C   0  0  0  0  0  0  0  0  0  0  0  0
   -5.3328   -0.3694   -3.3357 O   0  0  0  0  0  0  0  0  0  0  0  0
   -5.8373    1.7136   -2.3047 C   0  0  0  0  0  0  0  0  0  0  0  0
   -5.8260    2.6185   -2.9163 H   0  0  0  0  0  0  0  0  0  0  0  0
   -6.8549    1.3170   -2.2712 H   0  0  0  0  0  0  0  0  0  0  0  0
   -5.5284    1.9712   -1.2889 H   0  0  0  0  0  0  0  0  0  0  0  0
   -3.5453    0.9737   -3.0005 N   0  0  0  0  0  0  0  0  0  0  0  0
   -2.5240   -0.0146   -3.3660 C   0  0  2  0  0  0  0  0  0  0  0  0
   -1.1393    0.4594   -2.8792 C   0  0  0  0  0  0  0  0  0  0  0  0
   -0.5779    1.4109   -3.4071 O   0  0  0  0  0  0  0  0  0  0  0  0
   -2.5191   -0.2266   -4.8864 C   0  0  0  0  0  0  0  0  0  0  0  0
   -3.2265    1.7649   -2.4241 H   0  0  0  0  0  0  0  0  0  0  0  0
   -2.7514   -0.9645   -2.8733 H   0  0  0  0  0  0  0  0  0  0  0  0
   -2.3498    0.7235   -5.4033 H   0  0  0  0  0  0  0  0  0  0  0  0
   -1.7255   -0.9242   -5.1697 H   0  0  0  0  0  0  0  0  0  0  0  0
   -3.4756   -0.6377   -5.2219 H   0  0  0  0  0  0  0  0  0  0  0  0
   -0.3503   -0.2810   -2.0212 N   0  0  0  0  0  0  0  0  0  0  0  0
    0.0043    0.2989   -0.7056 C   0  0  2  0  0  0  0  0  0  0  0  0
    0.9068   -0.6933    0.0769 C   0  0  0  0  0  0  0  0  0  0  0  0
    1.3489   -0.4304    1.1903 O   0  0  0  0  0  0  0  0  0  0  0  0
   -1.2604    0.4179    0.2010 C   0  0  0  0  0  0  0  0  0  0  0  0
   -2.3383    1.4278   -0.1662 C   0  0  0  0  0  0  0  0  0  0  0  0
   -2.0379    2.4737   -0.7821 O   0  5  0  0  0  0  0  0  0  0  0  0
   -3.5133    1.0859    0.1004 O   0  0  0  0  0  0  0  0  0  0  0  0
   -0.7483   -1.2077   -1.9127 H   0  0  0  0  0  0  0  0  0  0  0  0
    0.5063    1.2671   -0.8199 H   0  0  0  0  0  0  0  0  0  0  0  0
   -0.9412    0.7000    1.2080 H   0  0  0  0  0  0  0  0  0  0  0  0
   -1.7316   -0.5675    0.2714 H   0  0  0  0  0  0  0  0  0  0  0  0
    1.2597   -1.9115   -0.4811 N   0  0  0  0  0  0  0  0  0  0  0  0
    2.1951   -2.8630    0.1319 C   0  0  2  0  0  0  0  0  0  0  0  0
    2.9777   -3.6674   -0.9262 C   0  0  0  0  0  0  0  0  0  0  0  0
    2.5731   -3.7364   -2.0822 O   0  0  0  0  0  0  0  0  0  0  0  0
    1.3987   -3.8043    1.0403 C   0  0  0  0  0  0  0  0  0  0  0  0
    1.1129   -2.0006   -1.4857 H   0  0  0  0  0  0  0  0  0  0  0  0
    2.9313   -2.3195    0.7333 H   0  0  0  0  0  0  0  0  0  0  0  0
    0.6657   -4.3700    0.4565 H   0  0  0  0  0  0  0  0  0  0  0  0
    2.0673   -4.5102    1.5414 H   0  0  0  0  0  0  0  0  0  0  0  0
    0.8662   -3.2307    1.8058 H   0  0  0  0  0  0  0  0  0  0  0  0
    4.1523   -4.3102   -0.5790 N   0  0  0  0  0  0  0  0  0  0  0  0
    4.9817   -5.0330   -1.5338 C   0  0  0  0  0  0  0  0  0  0  0  0
    4.4863   -4.1890    0.3726 H   0  0  0  0  0  0  0  0  0  0  0  0
    4.4060   -5.8300   -2.0161 H   0  0  0  0  0  0  0  0  0  0  0  0
    5.3579   -4.3523   -2.3046 H   0  0  0  0  0  0  0  0  0  0  0  0
    5.8370   -5.4857   -1.0233 H   0  0  0  0  0  0  0  0  0  0  0  0
  1  2  2  0  0  0  0
  1  3  1  0  0  0  0
  1  7  1  0  0  0  0
  3  4  1  0  0  0  0
  3  5  1  0  0  0  0
  3  6  1  0  0  0  0
  7  8  1  0  0  0  0
  7 12  1  0  0  0  0
  8  9  1  0  0  0  0
  8 11  1  0  0  0  0
  8 13  1  0  0  0  0
  9 10  2  0  0  0  0
  9 17  1  0  0  0  0
 11 14  1  0  0  0  0
 11 15  1  0  0  0  0
 11 16  1  0  0  0  0
 17 18  1  0  0  0  0
 17 25  1  0  0  0  0
 18 19  1  0  0  0  0
 18 21  1  0  0  0  0
 18 26  1  0  0  0  0
 19 20  2  0  0  0  0
 19 29  1  0  0  0  0
 21 22  1  0  0  0  0
 21 27  1  0  0  0  0
 21 28  1  0  0  0  0
 22 23  1  0  0  0  0
 22 24  2  0  0  0  0
 29 30  1  0  0  0  0
 29 34  1  0  0  0  0
 30 31  1  0  0  0  0
 30 33  1  0  0  0  0
 30 35  1  0  0  0  0
 31 32  2  0  0  0  0
 31 39  1  0  0  0  0
 33 36  1  0  0  0  0
 33 37  1  0  0  0  0
 33 38  1  0  0  0  0
 39 40  1  0  0  0  0
 39 41  1  0  0  0  0
 40 42  1  0  0  0  0
 40 43  1  0  0  0  0
 40 44  1  0  0  0  0
M  CHG  1  23  -1
M  END
$$$$

  -OEChem-05262215553D

 44 43  0     1  0  0  0  0  0999 V2000
   -4.9141    0.5728   -2.8609 C   0  0  0  0  0  0  0  0  0  0  0  0
   -5.3259   -0.5019   -3.2847 O   0  0  0  0  0  0  0  0  0  0  0  0
   -5.8944    1.5813   -2.2889 C   0  0  0  0  0  0  0  0  0  0  0  0
   -5.8861    2.4910   -2.8934 H   0  0  0  0  0  0  0  0  0  0  0  0
   -6.9053    1.1662   -2.2814 H   0  0  0  0  0  0  0  0  0  0  0  0
   -5.6123    1.8367   -1.2647 H   0  0  0  0  0  0  0  0  0  0  0  0
   -3.5836    0.9098   -2.9913 N   0  0  0  0  0  0  0  0  0  0  0  0
   -2.5338   -0.0477   -3.3587 C   0  0  2  0  0  0  0  0  0  0  0  0
   -1.1590    0.4678   -2.8862 C   0  0  0  0  0  0  0  0  0  0  0  0
   -0.6247    1.4266   -3.4286 O   0  0  0  0  0  0  0  0  0  0  0  0
   -2.5367   -0.2686   -4.8778 C   0  0  0  0  0  0  0  0  0  0  0  0
   -3.2872    1.7189   -2.4289 H   0  0  0  0  0  0  0  0  0  0  0  0
   -2.7294   -1.0010   -2.8587 H   0  0  0  0  0  0  0  0  0  0  0  0
   -2.3951    0.6828   -5.4007 H   0  0  0  0  0  0  0  0  0  0  0  0
   -1.7284   -0.9480   -5.1642 H   0  0  0  0  0  0  0  0  0  0  0  0
   -3.4860   -0.7052   -5.2023 H   0  0  0  0  0  0  0  0  0  0  0  0
   -0.3432   -0.2495   -2.0340 N   0  0  0  0  0  0  0  0  0  0  0  0
    0.0110    0.3305   -0.7181 C   0  0  2  0  0  0  0  0  0  0  0  0
    0.9459   -0.6614    0.0306 C   0  0  0  0  0  0  0  0  0  0  0  0
    1.2243   -0.5519    1.2202 O   0  0  0  0  0  0  0  0  0  0  0  0
   -1.2531    0.4423    0.1916 C   0  0  0  0  0  0  0  0  0  0  0  0
   -2.3348    1.4490   -0.1754 C   0  0  0  0  0  0  0  0  0  0  0  0
   -2.0346    2.4953   -0.7910 O   0  5  0  0  0  0  0  0  0  0  0  0
   -3.5101    1.1056    0.0892 O   0  0  0  0  0  0  0  0  0  0  0  0
   -0.6989   -1.1940   -1.9308 H   0  0  0  0  0  0  0  0  0  0  0  0
    0.5010    1.3040   -0.8342 H   0  0  0  0  0  0  0  0  0  0  0  0
   -0.9349    0.7286    1.1974 H   0  0  0  0  0  0  0  0  0  0  0  0
   -1.7187   -0.5453    0.2636 H   0  0  0  0  0  0  0  0  0  0  0  0
    1.5494   -1.6934   -0.6687 N   0  0  0  0  0  0  0  0  0  0  0  0
    2.5538   -2.6083   -0.1119 C   0  0  2  0  0  0  0  0  0  0  0  0
    3.5020   -3.1560   -1.1992 C   0  0  0  0  0  0  0  0  0  0  0  0
    3.1933   -3.0963   -2.3847 O   0  0  0  0  0  0  0  0  0  0  0  0
    1.8297   -3.7627    0.5884 C   0  0  0  0  0  0  0  0  0  0  0  0
    1.4871   -1.6393   -1.6858 H   0  0  0  0  0  0  0  0  0  0  0  0
    3.1698   -2.0725    0.6176 H   0  0  0  0  0  0  0  0  0  0  0  0
    1.2148   -4.3182   -0.1269 H   0  0  0  0  0  0  0  0  0  0  0  0
    2.5507   -4.4513    1.0386 H   0  0  0  0  0  0  0  0  0  0  0  0
    1.1803   -3.3788    1.3815 H   0  0  0  0  0  0  0  0  0  0  0  0
    4.7120   -3.7256   -0.8446 N   0  0  0  0  0  0  0  0  0  0  0  0
    5.6689   -4.2434   -1.8137 C   0  0  0  0  0  0  0  0  0  0  0  0
    4.9549   -3.7322    0.1416 H   0  0  0  0  0  0  0  0  0  0  0  0
    5.2145   -5.0389   -2.4133 H   0  0  0  0  0  0  0  0  0  0  0  0
    6.0058   -3.4451   -2.4831 H   0  0  0  0  0  0  0  0  0  0  0  0
    6.5420   -4.6555   -1.2990 H   0  0  0  0  0  0  0  0  0  0  0  0
  1  2  2  0  0  0  0
  1  3  1  0  0  0  0
  1  7  1  0  0  0  0
  3  4  1  0  0  0  0
  3  5  1  0  0  0  0
  3  6  1  0  0  0  0
  7  8  1  0  0  0  0
  7 12  1  0  0  0  0
  8  9  1  0  0  0  0
  8 11  1  0  0  0  0
  8 13  1  0  0  0  0
  9 10  2  0  0  0  0
  9 17  1  0  0  0  0
 11 14  1  0  0  0  0
 11 15  1  0  0  0  0
 11 16  1  0  0  0  0
 17 18  1  0  0  0  0
 17 25  1  0  0  0  0
 18 19  1  0  0  0  0
 18 21  1  0  0  0  0
 18 26  1  0  0  0  0
 19 20  2  0  0  0  0
 19 29  1  0  0  0  0
 21 22  1  0  0  0  0
 21 27  1  0  0  0  0
 21 28  1  0  0  0  0
 22 23  1  0  0  0  0
 22 24  2  0  0  0  0
 29 30  1  0  0  0  0
 29 34  1  0  0  0  0
 30 31  1  0  0  0  0
 30 33  1  0  0  0  0
 30 35  1  0  0  0  0
 31 32  2  0  0  0  0
 31 39  1  0  0  0  0
 33 36  1  0  0  0  0
 33 37  1  0  0  0  0
 33 38  1  0  0  0  0
 39 40  1  0  0  0  0
 39 41  1  0  0  0  0
 40 42  1  0  0  0  0
 40 43  1  0  0  0  0
 40 44  1  0  0  0  0
M  CHG  1  23  -1
M  END
$$$$

  -OEChem-05262215553D

 44 43  0     1  0  0  0  0  0999 V2000
   -4.9334    0.4634   -2.7999 C   0  0  0  0  0  0  0  0  0  0  0  0
   -5.3310   -0.6304   -3.1863 O   0  0  0  0  0  0  0  0  0  0  0  0
   -5.9241    1.4640   -2.2308 C   0  0  0  0  0  0  0  0  0  0  0  0
   -5.9489    2.3591   -2.8562 H   0  0  0  0  0  0  0  0  0  0  0  0
   -6.9253    1.0276   -2.1929 H   0  0  0  0  0  0  0  0  0  0  0  0
   -5.6282    1.7498   -1.2186 H   0  0  0  0  0  0  0  0  0  0  0  0
   -3.6120    0.8213   -2.9649 N   0  0  0  0  0  0  0  0  0  0  0  0
   -2.5516   -0.1210   -3.3438 C   0  0  2  0  0  0  0  0  0  0  0  0
   -1.1728    0.4287   -2.9226 C   0  0  0  0  0  0  0  0  0  0  0  0
   -0.6574    1.3660   -3.5177 O   0  0  0  0  0  0  0  0  0  0  0  0
   -2.5920   -0.3750   -4.8575 C   0  0  0  0  0  0  0  0  0  0  0  0
   -3.3197    1.6502   -2.4309 H   0  0  0  0  0  0  0  0  0  0  0  0
   -2.7126   -1.0680   -2.8199 H   0  0  0  0  0  0  0  0  0  0  0  0
   -2.4871    0.5667   -5.4058 H   0  0  0  0  0  0  0  0  0  0  0  0
   -1.7766   -1.0421   -5.1519 H   0  0  0  0  0  0  0  0  0  0  0  0
   -3.5389   -0.8403   -5.1455 H   0  0  0  0  0  0  0  0  0  0  0  0
   -0.3283   -0.2543   -2.0710 N   0  0  0  0  0  0  0  0  0  0  0  0
    0.0631    0.3594   -0.7822 C   0  0  2  0  0  0  0  0  0  0  0  0
    1.0233   -0.6252   -0.0557 C   0  0  0  0  0  0  0  0  0  0  0  0
    1.1398   -0.6967    1.1636 O   0  0  0  0  0  0  0  0  0  0  0  0
   -1.1756    0.5311    0.1522 C   0  0  0  0  0  0  0  0  0  0  0  0
   -2.2377    1.5534   -0.2285 C   0  0  0  0  0  0  0  0  0  0  0  0
   -1.9177    2.5674   -0.8853 O   0  5  0  0  0  0  0  0  0  0  0  0
   -3.4189    1.2505    0.0582 O   0  0  0  0  0  0  0  0  0  0  0  0
   -0.6626   -1.2024   -1.9354 H   0  0  0  0  0  0  0  0  0  0  0  0
    0.5620    1.3216   -0.9437 H   0  0  0  0  0  0  0  0  0  0  0  0
   -0.8270    0.8439    1.1400 H   0  0  0  0  0  0  0  0  0  0  0  0
   -1.6630   -0.4416    0.2672 H   0  0  0  0  0  0  0  0  0  0  0  0
    1.8281   -1.4574   -0.8153 N   0  0  0  0  0  0  0  0  0  0  0  0
    2.8543   -2.3582   -0.2748 C   0  0  2  0  0  0  0  0  0  0  0  0
    4.0020   -2.6063   -1.2751 C   0  0  0  0  0  0  0  0  0  0  0  0
    3.8278   -2.4501   -2.4785 O   0  0  0  0  0  0  0  0  0  0  0  0
    2.1875   -3.6842    0.1045 C   0  0  0  0  0  0  0  0  0  0  0  0
    1.8336   -1.2861   -1.8217 H   0  0  0  0  0  0  0  0  0  0  0  0
    3.2969   -1.9087    0.6199 H   0  0  0  0  0  0  0  0  0  0  0  0
    1.7288   -4.1464   -0.7756 H   0  0  0  0  0  0  0  0  0  0  0  0
    2.9235   -4.3788    0.5202 H   0  0  0  0  0  0  0  0  0  0  0  0
    1.4094   -3.5165    0.8560 H   0  0  0  0  0  0  0  0  0  0  0  0
    5.2401   -3.0230   -0.8193 N   0  0  0  0  0  0  0  0  0  0  0  0
    6.3780   -3.2610   -1.6973 C   0  0  0  0  0  0  0  0  0  0  0  0
    5.3629   -3.1141    0.1849 H   0  0  0  0  0  0  0  0  0  0  0  0
    6.1538   -4.0678   -2.4026 H   0  0  0  0  0  0  0  0  0  0  0  0
    6.6227   -2.3552   -2.2618 H   0  0  0  0  0  0  0  0  0  0  0  0
    7.2542   -3.5498   -1.1096 H   0  0  0  0  0  0  0  0  0  0  0  0
  1  2  2  0  0  0  0
  1  3  1  0  0  0  0
  1  7  1  0  0  0  0
  3  4  1  0  0  0  0
  3  5  1  0  0  0  0
  3  6  1  0  0  0  0
  7  8  1  0  0  0  0
  7 12  1  0  0  0  0
  8  9  1  0  0  0  0
  8 11  1  0  0  0  0
  8 13  1  0  0  0  0
  9 10  2  0  0  0  0
  9 17  1  0  0  0  0
 11 14  1  0  0  0  0
 11 15  1  0  0  0  0
 11 16  1  0  0  0  0
 17 18  1  0  0  0  0
 17 25  1  0  0  0  0
 18 19  1  0  0  0  0
 18 21  1  0  0  0  0
 18 26  1  0  0  0  0
 19 20  2  0  0  0  0
 19 29  1  0  0  0  0
 21 22  1  0  0  0  0
 21 27  1  0  0  0  0
 21 28  1  0  0  0  0
 22 23  1  0  0  0  0
 22 24  2  0  0  0  0
 29 30  1  0  0  0  0
 29 34  1  0  0  0  0
 30 31  1  0  0  0  0
 30 33  1  0  0  0  0
 30 35  1  0  0  0  0
 31 32  2  0  0  0  0
 31 39  1  0  0  0  0
 33 36  1  0  0  0  0
 33 37  1  0  0  0  0
 33 38  1  0  0  0  0
 39 40  1  0  0  0  0
 39 41  1  0  0  0  0
 40 42  1  0  0  0  0
 40 43  1  0  0  0  0
 40 44  1  0  0  0  0
M  CHG  1  23  -1
M  END
$$$$

  -OEChem-05262215553D

 44 43  0     1  0  0  0  0  0999 V2000
   -3.3139   -0.5773   -1.3779 C   0  0  0  0  0  0  0  0  0  0  0  0
   -2.8836   -1.7004   -1.6128 O   0  0  0  0  0  0  0  0  0  0  0  0
   -3.7628   -0.2048    0.0232 C   0  0  0  0  0  0  0  0  0  0  0  0
   -3.4187    0.8030    0.2725 H   0  0  0  0  0  0  0  0  0  0  0  0
   -4.8534   -0.2285    0.0808 H   0  0  0  0  0  0  0  0  0  0  0  0
   -3.3494   -0.9059    0.7531 H   0  0  0  0  0  0  0  0  0  0  0  0
   -3.3001    0.3703   -2.3758 N   0  0  0  0  0  0  0  0  0  0  0  0
   -2.7786    0.1246   -3.7281 C   0  0  2  0  0  0  0  0  0  0  0  0
   -1.2329    0.1186   -3.8014 C   0  0  0  0  0  0  0  0  0  0  0  0
   -0.6494    0.3327   -4.8569 O   0  0  0  0  0  0  0  0  0  0  0  0
   -3.3819    1.2063   -4.6310 C   0  0  0  0  0  0  0  0  0  0  0  0
   -3.2693    1.3458   -2.0429 H   0  0  0  0  0  0  0  0  0  0  0  0
   -3.1239   -0.8515   -4.0821 H   0  0  0  0  0  0  0  0  0  0  0  0
   -3.0190    2.1960   -4.3319 H   0  0  0  0  0  0  0  0  0  0  0  0
   -3.1001    1.0355   -5.6745 H   0  0  0  0  0  0  0  0  0  0  0  0
   -4.4736    1.1977   -4.5617 H   0  0  0  0  0  0  0  0  0  0  0  0
   -0.4588   -0.5006   -2.8414 N   0  0  0  0  0  0  0  0  0  0  0  0
    0.4487    0.2940   -1.9833 C   0  0  2  0  0  0  0  0  0  0  0  0
    1.1694   -0.7068   -1.0414 C   0  0  0  0  0  0  0  0  0  0  0  0
    1.3699   -0.5218    0.1563 O   0  0  0  0  0  0  0  0  0  0  0  0
   -0.3390    1.2897   -1.0808 C   0  0  0  0  0  0  0  0  0  0  0  0
   -1.0320    2.4640   -1.7570 C   0  0  0  0  0  0  0  0  0  0  0  0
   -0.5522    2.9262   -2.8133 O   0  5  0  0  0  0  0  0  0  0  0  0
   -2.1750    2.7463   -1.3117 O   0  0  0  0  0  0  0  0  0  0  0  0
   -1.0726   -1.0947   -2.2782 H   0  0  0  0  0  0  0  0  0  0  0  0
    1.1833    0.8320   -2.5926 H   0  0  0  0  0  0  0  0  0  0  0  0
    0.3665    1.7454   -0.3808 H   0  0  0  0  0  0  0  0  0  0  0  0
   -1.0665    0.7352   -0.4858 H   0  0  0  0  0  0  0  0  0  0  0  0
    1.6690   -1.8711   -1.5962 N   0  0  0  0  0  0  0  0  0  0  0  0
    2.2730   -2.9793   -0.8402 C   0  0  2  0  0  0  0  0  0  0  0  0
    3.7497   -2.7160   -0.4496 C   0  0  0  0  0  0  0  0  0  0  0  0
    4.6399   -3.5253   -0.6921 O   0  0  0  0  0  0  0  0  0  0  0  0
    2.0965   -4.2456   -1.6874 C   0  0  0  0  0  0  0  0  0  0  0  0
    1.4788   -1.9994   -2.5882 H   0  0  0  0  0  0  0  0  0  0  0  0
    1.7171   -3.1210    0.0924 H   0  0  0  0  0  0  0  0  0  0  0  0
    2.6475   -4.1571   -2.6293 H   0  0  0  0  0  0  0  0  0  0  0  0
    2.4711   -5.1205   -1.1470 H   0  0  0  0  0  0  0  0  0  0  0  0
    1.0380   -4.4083   -1.9137 H   0  0  0  0  0  0  0  0  0  0  0  0
    4.0705   -1.5526    0.2212 N   0  0  0  0  0  0  0  0  0  0  0  0
    5.4162   -1.1783    0.6270 C   0  0  0  0  0  0  0  0  0  0  0  0
    3.2897   -0.9175    0.4124 H   0  0  0  0  0  0  0  0  0  0  0  0
    5.8193   -1.9095    1.3348 H   0  0  0  0  0  0  0  0  0  0  0  0
    6.0776   -1.1248   -0.2439 H   0  0  0  0  0  0  0  0  0  0  0  0
    5.4019   -0.1974    1.1115 H   0  0  0  0  0  0  0  0  0  0  0  0
  1  2  2  0  0  0  0
  1  3  1  0  0  0  0
  1  7  1  0  0  0  0
  3  4  1  0  0  0  0
  3  5  1  0  0  0  0
  3  6  1  0  0  0  0
  7  8  1  0  0  0  0
  7 12  1  0  0  0  0
  8  9  1  0  0  0  0
  8 11  1  0  0  0  0
  8 13  1  0  0  0  0
  9 10  2  0  0  0  0
  9 17  1  0  0  0  0
 11 14  1  0  0  0  0
 11 15  1  0  0  0  0
 11 16  1  0  0  0  0
 17 18  1  0  0  0  0
 17 25  1  0  0  0  0
 18 19  1  0  0  0  0
 18 21  1  0  0  0  0
 18 26  1  0  0  0  0
 19 20  2  0  0  0  0
 19 29  1  0  0  0  0
 21 22  1  0  0  0  0
 21 27  1  0  0  0  0
 21 28  1  0  0  0  0
 22 23  1  0  0  0  0
 22 24  2  0  0  0  0
 29 30  1  0  0  0  0
 29 34  1  0  0  0  0
 30 31  1  0  0  0  0
 30 33  1  0  0  0  0
 30 35  1  0  0  0  0
 31 32  2  0  0  0  0
 31 39  1  0  0  0  0
 33 36  1  0  0  0  0
 33 37  1  0  0  0  0
 33 38  1  0  0  0  0
 39 40  1  0  0  0  0
 39 41  1  0  0  0  0
 40 42  1  0  0  0  0
 40 43  1  0  0  0  0
 40 44  1  0  0  0  0
M  CHG  1  23  -1
M  END
$$$$

  -OEChem-05262215553D

 44 43  0     1  0  0  0  0  0999 V2000
   -3.1739   -0.7178   -1.2737 C   0  0  0  0  0  0  0  0  0  0  0  0
   -2.7041   -1.8128   -1.5588 O   0  0  0  0  0  0  0  0  0  0  0  0
   -3.5686   -0.4029    0.1576 C   0  0  0  0  0  0  0  0  0  0  0  0
   -3.2330    0.6021    0.4281 H   0  0  0  0  0  0  0  0  0  0  0  0
   -4.6550   -0.4507    0.2619 H   0  0  0  0  0  0  0  0  0  0  0  0
   -3.1103   -1.1211    0.8428 H   0  0  0  0  0  0  0  0  0  0  0  0
   -3.2573    0.2511   -2.2478 N   0  0  0  0  0  0  0  0  0  0  0  0
   -2.7845    0.0619   -3.6272 C   0  0  2  0  0  0  0  0  0  0  0  0
   -1.2455    0.1462   -3.7671 C   0  0  0  0  0  0  0  0  0  0  0  0
   -0.7199    0.4087   -4.8422 O   0  0  0  0  0  0  0  0  0  0  0  0
   -3.4869    1.1244   -4.4803 C   0  0  0  0  0  0  0  0  0  0  0  0
   -3.2710    1.2206   -1.8962 H   0  0  0  0  0  0  0  0  0  0  0  0
   -3.0894   -0.9254   -3.9869 H   0  0  0  0  0  0  0  0  0  0  0  0
   -3.1658    2.1272   -4.1775 H   0  0  0  0  0  0  0  0  0  0  0  0
   -3.2440    0.9887   -5.5386 H   0  0  0  0  0  0  0  0  0  0  0  0
   -4.5722    1.0538   -4.3628 H   0  0  0  0  0  0  0  0  0  0  0  0
   -0.3941   -0.4231   -2.8422 N   0  0  0  0  0  0  0  0  0  0  0  0
    0.4851    0.4280   -2.0124 C   0  0  2  0  0  0  0  0  0  0  0  0
    1.3061   -0.5281   -1.1098 C   0  0  0  0  0  0  0  0  0  0  0  0
    1.2899   -0.5198    0.1187 O   0  0  0  0  0  0  0  0  0  0  0  0
   -0.3270    1.3710   -1.0769 C   0  0  0  0  0  0  0  0  0  0  0  0
   -1.1153    2.5013   -1.7218 C   0  0  0  0  0  0  0  0  0  0  0  0
   -0.7031    2.9931   -2.7937 O   0  5  0  0  0  0  0  0  0  0  0  0
   -2.2569    2.7107   -1.2344 O   0  0  0  0  0  0  0  0  0  0  0  0
   -0.9393   -1.0664   -2.2628 H   0  0  0  0  0  0  0  0  0  0  0  0
    1.1582    1.0170   -2.6453 H   0  0  0  0  0  0  0  0  0  0  0  0
    0.3768    1.8608   -0.3986 H   0  0  0  0  0  0  0  0  0  0  0  0
   -0.9999    0.7718   -0.4616 H   0  0  0  0  0  0  0  0  0  0  0  0
    2.1165   -1.4596   -1.7320 N   0  0  0  0  0  0  0  0  0  0  0  0
    2.8023   -2.5655   -1.0449 C   0  0  2  0  0  0  0  0  0  0  0  0
    4.1156   -2.1313   -0.3446 C   0  0  0  0  0  0  0  0  0  0  0  0
    5.1763   -2.7197   -0.5316 O   0  0  0  0  0  0  0  0  0  0  0  0
    3.0195   -3.6705   -2.0858 C   0  0  0  0  0  0  0  0  0  0  0  0
    2.0537   -1.4823   -2.7476 H   0  0  0  0  0  0  0  0  0  0  0  0
    2.1443   -2.9660   -0.2664 H   0  0  0  0  0  0  0  0  0  0  0  0
    3.6858   -3.3228   -2.8818 H   0  0  0  0  0  0  0  0  0  0  0  0
    3.4687   -4.5516   -1.6167 H   0  0  0  0  0  0  0  0  0  0  0  0
    2.0649   -3.9672   -2.5313 H   0  0  0  0  0  0  0  0  0  0  0  0
    4.0861   -1.0776    0.5470 N   0  0  0  0  0  0  0  0  0  0  0  0
    5.2451   -0.5705    1.2648 C   0  0  0  0  0  0  0  0  0  0  0  0
    3.1746   -0.6278    0.6761 H   0  0  0  0  0  0  0  0  0  0  0  0
    5.6754   -1.3530    1.8977 H   0  0  0  0  0  0  0  0  0  0  0  0
    6.0082   -0.2225    0.5611 H   0  0  0  0  0  0  0  0  0  0  0  0
    4.9525    0.2692    1.9024 H   0  0  0  0  0  0  0  0  0  0  0  0
  1  2  2  0  0  0  0
  1  3  1  0  0  0  0
  1  7  1  0  0  0  0
  3  4  1  0  0  0  0
  3  5  1  0  0  0  0
  3  6  1  0  0  0  0
  7  8  1  0  0  0  0
  7 12  1  0  0  0  0
  8  9  1  0  0  0  0
  8 11  1  0  0  0  0
  8 13  1  0  0  0  0
  9 10  2  0  0  0  0
  9 17  1  0  0  0  0
 11 14  1  0  0  0  0
 11 15  1  0  0  0  0
 11 16  1  0  0  0  0
 17 18  1  0  0  0  0
 17 25  1  0  0  0  0
 18 19  1  0  0  0  0
 18 21  1  0  0  0  0
 18 26  1  0  0  0  0
 19 20  2  0  0  0  0
 19 29  1  0  0  0  0
 21 22  1  0  0  0  0
 21 27  1  0  0  0  0
 21 28  1  0  0  0  0
 22 23  1  0  0  0  0
 22 24  2  0  0  0  0
 29 30  1  0  0  0  0
 29 34  1  0  0  0  0
 30 31  1  0  0  0  0
 30 33  1  0  0  0  0
 30 35  1  0  0  0  0
 31 32  2  0  0  0  0
 31 39  1  0  0  0  0
 33 36  1  0  0  0  0
 33 37  1  0  0  0  0
 33 38  1  0  0  0  0
 39 40  1  0  0  0  0
 39 41  1  0  0  0  0
 40 42  1  0  0  0  0
 40 43  1  0  0  0  0
 40 44  1  0  0  0  0
M  CHG  1  23  -1
M  END
$$$$

  -OEChem-05262215553D

 44 43  0     1  0  0  0  0  0999 V2000
   -3.3127   -0.8514   -1.6561 C   0  0  0  0  0  0  0  0  0  0  0  0
   -2.7362   -1.9118   -1.8630 O   0  0  0  0  0  0  0  0  0  0  0  0
   -3.9675   -0.5860   -0.3130 C   0  0  0  0  0  0  0  0  0  0  0  0
   -3.8432    0.4641   -0.0342 H   0  0  0  0  0  0  0  0  0  0  0  0
   -5.0348   -0.8112   -0.3699 H   0  0  0  0  0  0  0  0  0  0  0  0
   -3.5089   -1.2091    0.4595 H   0  0  0  0  0  0  0  0  0  0  0  0
   -3.2992    0.1225   -2.6287 N   0  0  0  0  0  0  0  0  0  0  0  0
   -2.5772   -0.0128   -3.9023 C   0  0  2  0  0  0  0  0  0  0  0  0
   -1.0553    0.2321   -3.7700 C   0  0  0  0  0  0  0  0  0  0  0  0
   -0.3840    0.5844   -4.7326 O   0  0  0  0  0  0  0  0  0  0  0  0
   -3.2274    0.9700   -4.8822 C   0  0  0  0  0  0  0  0  0  0  0  0
   -3.4565    1.0829   -2.2877 H   0  0  0  0  0  0  0  0  0  0  0  0
   -2.7089   -1.0256   -4.2946 H   0  0  0  0  0  0  0  0  0  0  0  0
   -3.0729    2.0008   -4.5446 H   0  0  0  0  0  0  0  0  0  0  0  0
   -2.7890    0.8633   -5.8792 H   0  0  0  0  0  0  0  0  0  0  0  0
   -4.3026    0.7823   -4.9551 H   0  0  0  0  0  0  0  0  0  0  0  0
   -0.3273   -0.2584   -2.7055 N   0  0  0  0  0  0  0  0  0  0  0  0
    0.3029    0.6661   -1.7413 C   0  0  2  0  0  0  0  0  0  0  0  0
    1.0468   -0.2013   -0.6949 C   0  0  0  0  0  0  0  0  0  0  0  0
    0.6186   -0.4359    0.4321 O   0  0  0  0  0  0  0  0  0  0  0  0
   -0.7503    1.5169   -0.9715 C   0  0  0  0  0  0  0  0  0  0  0  0
   -1.5207    2.5728   -1.7514 C   0  0  0  0  0  0  0  0  0  0  0  0
   -0.9784    3.1158   -2.7371 O   0  5  0  0  0  0  0  0  0  0  0  0
   -2.7442    2.6685   -1.4699 O   0  0  0  0  0  0  0  0  0  0  0  0
   -0.8876   -0.9661   -2.2255 H   0  0  0  0  0  0  0  0  0  0  0  0
    1.0121    1.3272   -2.2519 H   0  0  0  0  0  0  0  0  0  0  0  0
   -0.2282    2.0580   -0.1776 H   0  0  0  0  0  0  0  0  0  0  0  0
   -1.4645    0.8488   -0.4867 H   0  0  0  0  0  0  0  0  0  0  0  0
    2.2367   -0.7951   -1.0739 N   0  0  0  0  0  0  0  0  0  0  0  0
    3.0553   -1.6747   -0.2296 C   0  0  2  0  0  0  0  0  0  0  0  0
    4.5279   -1.2210   -0.1708 C   0  0  0  0  0  0  0  0  0  0  0  0
    5.1560   -0.9981   -1.1997 O   0  0  0  0  0  0  0  0  0  0  0  0
    2.9456   -3.0944   -0.7903 C   0  0  0  0  0  0  0  0  0  0  0  0
    2.5655   -0.5935   -2.0169 H   0  0  0  0  0  0  0  0  0  0  0  0
    2.6755   -1.6802    0.7968 H   0  0  0  0  0  0  0  0  0  0  0  0
    3.3204   -3.1314   -1.8183 H   0  0  0  0  0  0  0  0  0  0  0  0
    3.5286   -3.7914   -0.1811 H   0  0  0  0  0  0  0  0  0  0  0  0
    1.9009   -3.4212   -0.7882 H   0  0  0  0  0  0  0  0  0  0  0  0
    5.1692   -1.1091    1.0498 N   0  0  0  0  0  0  0  0  0  0  0  0
    6.5379   -0.6308    1.1889 C   0  0  0  0  0  0  0  0  0  0  0  0
    4.5935   -1.2003    1.8819 H   0  0  0  0  0  0  0  0  0  0  0  0
    7.2253   -1.2659    0.6202 H   0  0  0  0  0  0  0  0  0  0  0  0
    6.6217    0.3977    0.8229 H   0  0  0  0  0  0  0  0  0  0  0  0
    6.8397   -0.6517    2.2403 H   0  0  0  0  0  0  0  0  0  0  0  0
  1  2  2  0  0  0  0
  1  3  1  0  0  0  0
  1  7  1  0  0  0  0
  3  4  1  0  0  0  0
  3  5  1  0  0  0  0
  3  6  1  0  0  0  0
  7  8  1  0  0  0  0
  7 12  1  0  0  0  0
  8  9  1  0  0  0  0
  8 11  1  0  0  0  0
  8 13  1  0  0  0  0
  9 10  2  0  0  0  0
  9 17  1  0  0  0  0
 11 14  1  0  0  0  0
 11 15  1  0  0  0  0
 11 16  1  0  0  0  0
 17 18  1  0  0  0  0
 17 25  1  0  0  0  0
 18 19  1  0  0  0  0
 18 21  1  0  0  0  0
 18 26  1  0  0  0  0
 19 20  2  0  0  0  0
 19 29  1  0  0  0  0
 21 22  1  0  0  0  0
 21 27  1  0  0  0  0
 21 28  1  0  0  0  0
 22 23  1  0  0  0  0
 22 24  2  0  0  0  0
 29 30  1  0  0  0  0
 29 34  1  0  0  0  0
 30 31  1  0  0  0  0
 30 33  1  0  0  0  0
 30 35  1  0  0  0  0
 31 32  2  0  0  0  0
 31 39  1  0  0  0  0
 33 36  1  0  0  0  0
 33 37  1  0  0  0  0
 33 38  1  0  0  0  0
 39 40  1  0  0  0  0
 39 41  1  0  0  0  0
 40 42  1  0  0  0  0
 40 43  1  0  0  0  0
 40 44  1  0  0  0  0
M  CHG  1  23  -1
M  END
$$$$

  -OEChem-05262215553D

 44 43  0     1  0  0  0  0  0999 V2000
   -3.2736   -0.9245   -1.7276 C   0  0  0  0  0  0  0  0  0  0  0  0
   -2.6856   -1.9820   -1.9147 O   0  0  0  0  0  0  0  0  0  0  0  0
   -3.9885   -0.6670   -0.4139 C   0  0  0  0  0  0  0  0  0  0  0  0
   -5.0589   -0.8479   -0.5329 H   0  0  0  0  0  0  0  0  0  0  0  0
   -3.5963   -1.3272    0.3644 H   0  0  0  0  0  0  0  0  0  0  0  0
   -3.8389    0.3700   -0.1011 H   0  0  0  0  0  0  0  0  0  0  0  0
   -3.2311    0.0506   -2.6979 N   0  0  0  0  0  0  0  0  0  0  0  0
   -2.4517   -0.0713   -3.9382 C   0  0  2  0  0  0  0  0  0  0  0  0
   -0.9424    0.2099   -3.7436 C   0  0  0  0  0  0  0  0  0  0  0  0
   -0.2412    0.5779   -4.6791 O   0  0  0  0  0  0  0  0  0  0  0  0
   -3.0815    0.8964   -4.9465 C   0  0  0  0  0  0  0  0  0  0  0  0
   -3.4275    1.0074   -2.3678 H   0  0  0  0  0  0  0  0  0  0  0  0
   -2.5438   -1.0875   -4.3330 H   0  0  0  0  0  0  0  0  0  0  0  0
   -2.9638    1.9306   -4.6043 H   0  0  0  0  0  0  0  0  0  0  0  0
   -2.5993    0.7990   -5.9239 H   0  0  0  0  0  0  0  0  0  0  0  0
   -4.1483    0.6856   -5.0640 H   0  0  0  0  0  0  0  0  0  0  0  0
   -0.2466   -0.2382   -2.6391 N   0  0  0  0  0  0  0  0  0  0  0  0
    0.3047    0.7265   -1.6676 C   0  0  2  0  0  0  0  0  0  0  0  0
    1.0354   -0.0740   -0.5630 C   0  0  0  0  0  0  0  0  0  0  0  0
    0.4601   -0.5470    0.4138 O   0  0  0  0  0  0  0  0  0  0  0  0
   -0.8066    1.5478   -0.9503 C   0  0  0  0  0  0  0  0  0  0  0  0
   -1.5879    2.5618   -1.7728 C   0  0  0  0  0  0  0  0  0  0  0  0
   -1.0323    3.1113   -2.7472 O   0  5  0  0  0  0  0  0  0  0  0  0
   -2.8219    2.6210   -1.5305 O   0  0  0  0  0  0  0  0  0  0  0  0
   -0.7988   -0.9579   -2.1677 H   0  0  0  0  0  0  0  0  0  0  0  0
    1.0041    1.4070   -2.1662 H   0  0  0  0  0  0  0  0  0  0  0  0
   -0.3360    2.1164   -0.1439 H   0  0  0  0  0  0  0  0  0  0  0  0
   -1.5146    0.8594   -0.4855 H   0  0  0  0  0  0  0  0  0  0  0  0
    2.3781   -0.3626   -0.7238 N   0  0  0  0  0  0  0  0  0  0  0  0
    3.1906   -1.1324    0.2263 C   0  0  2  0  0  0  0  0  0  0  0  0
    4.6409   -0.6164    0.3193 C   0  0  0  0  0  0  0  0  0  0  0  0
    5.1858   -0.0952   -0.6474 O   0  0  0  0  0  0  0  0  0  0  0  0
    3.1747   -2.5995   -0.2101 C   0  0  0  0  0  0  0  0  0  0  0  0
    2.8409    0.0193   -1.5477 H   0  0  0  0  0  0  0  0  0  0  0  0
    2.7565   -1.0538    1.2282 H   0  0  0  0  0  0  0  0  0  0  0  0
    3.6075   -2.7059   -1.2101 H   0  0  0  0  0  0  0  0  0  0  0  0
    3.7522   -3.2126    0.4881 H   0  0  0  0  0  0  0  0  0  0  0  0
    2.1470   -2.9759   -0.2332 H   0  0  0  0  0  0  0  0  0  0  0  0
    5.3506   -0.7616    1.4982 N   0  0  0  0  0  0  0  0  0  0  0  0
    6.7089   -0.2685    1.6803 C   0  0  0  0  0  0  0  0  0  0  0  0
    4.8556   -1.1504    2.2953 H   0  0  0  0  0  0  0  0  0  0  0  0
    7.3900   -0.7564    0.9754 H   0  0  0  0  0  0  0  0  0  0  0  0
    6.7479    0.8138    1.5189 H   0  0  0  0  0  0  0  0  0  0  0  0
    7.0537   -0.4795    2.6968 H   0  0  0  0  0  0  0  0  0  0  0  0
  1  2  2  0  0  0  0
  1  3  1  0  0  0  0
  1  7  1  0  0  0  0
  3  4  1  0  0  0  0
  3  5  1  0  0  0  0
  3  6  1  0  0  0  0
  7  8  1  0  0  0  0
  7 12  1  0  0  0  0
  8  9  1  0  0  0  0
  8 11  1  0  0  0  0
  8 13  1  0  0  0  0
  9 10  2  0  0  0  0
  9 17  1  0  0  0  0
 11 14  1  0  0  0  0
 11 15  1  0  0  0  0
 11 16  1  0  0  0  0
 17 18  1  0  0  0  0
 17 25  1  0  0  0  0
 18 19  1  0  0  0  0
 18 21  1  0  0  0  0
 18 26  1  0  0  0  0
 19 20  2  0  0  0  0
 19 29  1  0  0  0  0
 21 22  1  0  0  0  0
 21 27  1  0  0  0  0
 21 28  1  0  0  0  0
 22 23  1  0  0  0  0
 22 24  2  0  0  0  0
 29 30  1  0  0  0  0
 29 34  1  0  0  0  0
 30 31  1  0  0  0  0
 30 33  1  0  0  0  0
 30 35  1  0  0  0  0
 31 32  2  0  0  0  0
 31 39  1  0  0  0  0
 33 36  1  0  0  0  0
 33 37  1  0  0  0  0
 33 38  1  0  0  0  0
 39 40  1  0  0  0  0
 39 41  1  0  0  0  0
 40 42  1  0  0  0  0
 40 43  1  0  0  0  0
 40 44  1  0  0  0  0
M  CHG  1  23  -1
M  END
$$$$

  -OEChem-05262215553D

 44 43  0     1  0  0  0  0  0999 V2000
   -3.2496   -0.8863   -1.7277 C   0  0  0  0  0  0  0  0  0  0  0  0
   -2.7188   -1.9711   -1.9268 O   0  0  0  0  0  0  0  0  0  0  0  0
   -3.9425   -0.6065   -0.4070 C   0  0  0  0  0  0  0  0  0  0  0  0
   -4.9995   -0.8726   -0.4786 H   0  0  0  0  0  0  0  0  0  0  0  0
   -3.4762   -1.1899    0.3915 H   0  0  0  0  0  0  0  0  0  0  0  0
   -3.8625    0.4549   -0.1557 H   0  0  0  0  0  0  0  0  0  0  0  0
   -3.1595    0.0948   -2.6888 N   0  0  0  0  0  0  0  0  0  0  0  0
   -2.3718   -0.0487   -3.9217 C   0  0  2  0  0  0  0  0  0  0  0  0
   -0.8570    0.1858   -3.7064 C   0  0  0  0  0  0  0  0  0  0  0  0
   -0.1356    0.5519   -4.6273 O   0  0  0  0  0  0  0  0  0  0  0  0
   -2.9621    0.9381   -4.9351 C   0  0  0  0  0  0  0  0  0  0  0  0
   -3.3198    1.0558   -2.3516 H   0  0  0  0  0  0  0  0  0  0  0  0
   -2.4898   -1.0607   -4.3202 H   0  0  0  0  0  0  0  0  0  0  0  0
   -2.8220    1.9676   -4.5877 H   0  0  0  0  0  0  0  0  0  0  0  0
   -2.4693    0.8305   -5.9059 H   0  0  0  0  0  0  0  0  0  0  0  0
   -4.0323    0.7555   -5.0685 H   0  0  0  0  0  0  0  0  0  0  0  0
   -0.1894   -0.2844   -2.5932 N   0  0  0  0  0  0  0  0  0  0  0  0
    0.3817    0.6618   -1.6157 C   0  0  2  0  0  0  0  0  0  0  0  0
    1.0742   -0.1496   -0.4971 C   0  0  0  0  0  0  0  0  0  0  0  0
    0.4396   -0.8148    0.3176 O   0  0  0  0  0  0  0  0  0  0  0  0
   -0.7080    1.5082   -0.8969 C   0  0  0  0  0  0  0  0  0  0  0  0
   -1.4591    2.5455   -1.7185 C   0  0  0  0  0  0  0  0  0  0  0  0
   -0.8865    3.0833   -2.6893 O   0  5  0  0  0  0  0  0  0  0  0  0
   -2.6910    2.6386   -1.4780 O   0  0  0  0  0  0  0  0  0  0  0  0
   -0.7615   -0.9913   -2.1263 H   0  0  0  0  0  0  0  0  0  0  0  0
    1.1029    1.3232   -2.1084 H   0  0  0  0  0  0  0  0  0  0  0  0
   -0.2240    2.0614   -0.0875 H   0  0  0  0  0  0  0  0  0  0  0  0
   -1.4357    0.8375   -0.4358 H   0  0  0  0  0  0  0  0  0  0  0  0
    2.4547   -0.2205   -0.4617 N   0  0  0  0  0  0  0  0  0  0  0  0
    3.2298   -0.9387    0.5572 C   0  0  2  0  0  0  0  0  0  0  0  0
    4.5592   -0.2303    0.8897 C   0  0  0  0  0  0  0  0  0  0  0  0
    5.1190    0.4767    0.0590 O   0  0  0  0  0  0  0  0  0  0  0  0
    3.4941   -2.3583    0.0480 C   0  0  0  0  0  0  0  0  0  0  0  0
    2.9687    0.3431   -1.1377 H   0  0  0  0  0  0  0  0  0  0  0  0
    2.6516   -0.9932    1.4855 H   0  0  0  0  0  0  0  0  0  0  0  0
    4.0751   -2.3297   -0.8793 H   0  0  0  0  0  0  0  0  0  0  0  0
    4.0509   -2.9353    0.7921 H   0  0  0  0  0  0  0  0  0  0  0  0
    2.5475   -2.8714   -0.1499 H   0  0  0  0  0  0  0  0  0  0  0  0
    5.1407   -0.3989    2.1337 N   0  0  0  0  0  0  0  0  0  0  0  0
    6.3689    0.2705    2.5403 C   0  0  0  0  0  0  0  0  0  0  0  0
    4.6311   -0.9531    2.8153 H   0  0  0  0  0  0  0  0  0  0  0  0
    7.1999   -0.0298    1.8939 H   0  0  0  0  0  0  0  0  0  0  0  0
    6.2500    1.3574    2.4817 H   0  0  0  0  0  0  0  0  0  0  0  0
    6.6192    0.0053    3.5715 H   0  0  0  0  0  0  0  0  0  0  0  0
  1  2  2  0  0  0  0
  1  3  1  0  0  0  0
  1  7  1  0  0  0  0
  3  4  1  0  0  0  0
  3  5  1  0  0  0  0
  3  6  1  0  0  0  0
  7  8  1  0  0  0  0
  7 12  1  0  0  0  0
  8  9  1  0  0  0  0
  8 11  1  0  0  0  0
  8 13  1  0  0  0  0
  9 10  2  0  0  0  0
  9 17  1  0  0  0  0
 11 14  1  0  0  0  0
 11 15  1  0  0  0  0
 11 16  1  0  0  0  0
 17 18  1  0  0  0  0
 17 25  1  0  0  0  0
 18 19  1  0  0  0  0
 18 21  1  0  0  0  0
 18 26  1  0  0  0  0
 19 20  2  0  0  0  0
 19 29  1  0  0  0  0
 21 22  1  0  0  0  0
 21 27  1  0  0  0  0
 21 28  1  0  0  0  0
 22 23  1  0  0  0  0
 22 24  2  0  0  0  0
 29 30  1  0  0  0  0
 29 34  1  0  0  0  0
 30 31  1  0  0  0  0
 30 33  1  0  0  0  0
 30 35  1  0  0  0  0
 31 32  2  0  0  0  0
 31 39  1  0  0  0  0
 33 36  1  0  0  0  0
 33 37  1  0  0  0  0
 33 38  1  0  0  0  0
 39 40  1  0  0  0  0
 39 41  1  0  0  0  0
 40 42  1  0  0  0  0
 40 43  1  0  0  0  0
 40 44  1  0  0  0  0
M  CHG  1  23  -1
M  END
$$$$

  -OEChem-05262215553D

 44 43  0     1  0  0  0  0  0999 V2000
   -3.2293   -0.8728   -1.7079 C   0  0  0  0  0  0  0  0  0  0  0  0
   -2.7594   -1.9818   -1.9245 O   0  0  0  0  0  0  0  0  0  0  0  0
   -3.9256   -0.5822   -0.3909 C   0  0  0  0  0  0  0  0  0  0  0  0
   -5.0047   -0.7052   -0.5065 H   0  0  0  0  0  0  0  0  0  0  0  0
   -3.5660   -1.2654    0.3833 H   0  0  0  0  0  0  0  0  0  0  0  0
   -3.7202    0.4442   -0.0749 H   0  0  0  0  0  0  0  0  0  0  0  0
   -3.0783    0.1208   -2.6484 N   0  0  0  0  0  0  0  0  0  0  0  0
   -2.2886   -0.0370   -3.8786 C   0  0  2  0  0  0  0  0  0  0  0  0
   -0.7696    0.1556   -3.6523 C   0  0  0  0  0  0  0  0  0  0  0  0
   -0.0330    0.5193   -4.5622 O   0  0  0  0  0  0  0  0  0  0  0  0
   -2.8472    0.9710   -4.8896 C   0  0  0  0  0  0  0  0  0  0  0  0
   -3.2060    1.0821   -2.2986 H   0  0  0  0  0  0  0  0  0  0  0  0
   -2.4308   -1.0431   -4.2841 H   0  0  0  0  0  0  0  0  0  0  0  0
   -2.6770    1.9948   -4.5389 H   0  0  0  0  0  0  0  0  0  0  0  0
   -2.3563    0.8522   -5.8603 H   0  0  0  0  0  0  0  0  0  0  0  0
   -3.9224    0.8216   -5.0249 H   0  0  0  0  0  0  0  0  0  0  0  0
   -0.1255   -0.3343   -2.5337 N   0  0  0  0  0  0  0  0  0  0  0  0
    0.4719    0.5928   -1.5538 C   0  0  2  0  0  0  0  0  0  0  0  0
    1.1308   -0.2292   -0.4250 C   0  0  0  0  0  0  0  0  0  0  0  0
    0.4918   -1.0519    0.2261 O   0  0  0  0  0  0  0  0  0  0  0  0
   -0.5947    1.4586   -0.8270 C   0  0  0  0  0  0  0  0  0  0  0  0
   -1.3240    2.5162   -1.6417 C   0  0  0  0  0  0  0  0  0  0  0  0
   -0.7422    3.0452   -2.6117 O   0  5  0  0  0  0  0  0  0  0  0  0
   -2.5522    2.6375   -1.3956 O   0  0  0  0  0  0  0  0  0  0  0  0
   -0.7118   -1.0307   -2.0693 H   0  0  0  0  0  0  0  0  0  0  0  0
    1.2111    1.2348   -2.0455 H   0  0  0  0  0  0  0  0  0  0  0  0
   -0.0974    1.9973   -0.0157 H   0  0  0  0  0  0  0  0  0  0  0  0
   -1.3347    0.7992   -0.3682 H   0  0  0  0  0  0  0  0  0  0  0  0
    2.4853   -0.1036   -0.1772 N   0  0  0  0  0  0  0  0  0  0  0  0
    3.2018   -0.7964    0.9002 C   0  0  2  0  0  0  0  0  0  0  0  0
    4.3466    0.0559    1.4857 C   0  0  0  0  0  0  0  0  0  0  0  0
    4.8843    0.9301    0.8148 O   0  0  0  0  0  0  0  0  0  0  0  0
    3.7478   -2.1137    0.3439 C   0  0  0  0  0  0  0  0  0  0  0  0
    2.9908    0.6142   -0.6949 H   0  0  0  0  0  0  0  0  0  0  0  0
    2.5089   -1.0133    1.7199 H   0  0  0  0  0  0  0  0  0  0  0  0
    4.4467   -1.9209   -0.4763 H   0  0  0  0  0  0  0  0  0  0  0  0
    4.2706   -2.6729    1.1253 H   0  0  0  0  0  0  0  0  0  0  0  0
    2.9281   -2.7325   -0.0350 H   0  0  0  0  0  0  0  0  0  0  0  0
    4.7823   -0.1656    2.7801 N   0  0  0  0  0  0  0  0  0  0  0  0
    5.8016    0.6481    3.4297 C   0  0  0  0  0  0  0  0  0  0  0  0
    4.2749   -0.8521    3.3306 H   0  0  0  0  0  0  0  0  0  0  0  0
    6.7299    0.6362    2.8491 H   0  0  0  0  0  0  0  0  0  0  0  0
    5.4587    1.6834    3.5266 H   0  0  0  0  0  0  0  0  0  0  0  0
    6.0157    0.2575    4.4289 H   0  0  0  0  0  0  0  0  0  0  0  0
  1  2  2  0  0  0  0
  1  3  1  0  0  0  0
  1  7  1  0  0  0  0
  3  4  1  0  0  0  0
  3  5  1  0  0  0  0
  3  6  1  0  0  0  0
  7  8  1  0  0  0  0
  7 12  1  0  0  0  0
  8  9  1  0  0  0  0
  8 11  1  0  0  0  0
  8 13  1  0  0  0  0
  9 10  2  0  0  0  0
  9 17  1  0  0  0  0
 11 14  1  0  0  0  0
 11 15  1  0  0  0  0
 11 16  1  0  0  0  0
 17 18  1  0  0  0  0
 17 25  1  0  0  0  0
 18 19  1  0  0  0  0
 18 21  1  0  0  0  0
 18 26  1  0  0  0  0
 19 20  2  0  0  0  0
 19 29  1  0  0  0  0
 21 22  1  0  0  0  0
 21 27  1  0  0  0  0
 21 28  1  0  0  0  0
 22 23  1  0  0  0  0
 22 24  2  0  0  0  0
 29 30  1  0  0  0  0
 29 34  1  0  0  0  0
 30 31  1  0  0  0  0
 30 33  1  0  0  0  0
 30 35  1  0  0  0  0
 31 32  2  0  0  0  0
 31 39  1  0  0  0  0
 33 36  1  0  0  0  0
 33 37  1  0  0  0  0
 33 38  1  0  0  0  0
 39 40  1  0  0  0  0
 39 41  1  0  0  0  0
 40 42  1  0  0  0  0
 40 43  1  0  0  0  0
 40 44  1  0  0  0  0
M  CHG  1  23  -1
M  END
$$$$

  -OEChem-05262215553D

 44 43  0     1  0  0  0  0  0999 V2000
   -4.5611    0.1720   -2.6057 C   0  0  0  0  0  0  0  0  0  0  0  0
   -4.9374   -0.9516   -2.9212 O   0  0  0  0  0  0  0  0  0  0  0  0
   -5.5531    1.1586   -2.0160 C   0  0  0  0  0  0  0  0  0  0  0  0
   -5.5857    2.0638   -2.6268 H   0  0  0  0  0  0  0  0  0  0  0  0
   -6.5518    0.7166   -1.9793 H   0  0  0  0  0  0  0  0  0  0  0  0
   -5.2511    1.4293   -1.0016 H   0  0  0  0  0  0  0  0  0  0  0  0
   -3.2687    0.5742   -2.8666 N   0  0  0  0  0  0  0  0  0  0  0  0
   -2.1913   -0.3316   -3.2846 C   0  0  2  0  0  0  0  0  0  0  0  0
   -0.8217    0.3095   -2.9826 C   0  0  0  0  0  0  0  0  0  0  0  0
   -0.4154    1.2679   -3.6287 O   0  0  0  0  0  0  0  0  0  0  0  0
   -2.3233   -0.6461   -4.7811 C   0  0  0  0  0  0  0  0  0  0  0  0
   -2.9821    1.4480   -2.4057 H   0  0  0  0  0  0  0  0  0  0  0  0
   -2.2627   -1.2634   -2.7156 H   0  0  0  0  0  0  0  0  0  0  0  0
   -2.3192    0.2785   -5.3674 H   0  0  0  0  0  0  0  0  0  0  0  0
   -1.4899   -1.2727   -5.1119 H   0  0  0  0  0  0  0  0  0  0  0  0
   -3.2570   -1.1793   -4.9811 H   0  0  0  0  0  0  0  0  0  0  0  0
    0.0920   -0.2547   -2.1178 N   0  0  0  0  0  0  0  0  0  0  0  0
    0.4820    0.4705   -0.8974 C   0  0  2  0  0  0  0  0  0  0  0  0
    1.5174   -0.3879   -0.1397 C   0  0  0  0  0  0  0  0  0  0  0  0
    1.3922   -1.6097   -0.0745 O   0  0  0  0  0  0  0  0  0  0  0  0
   -0.6830    0.6126    0.1226 C   0  0  0  0  0  0  0  0  0  0  0  0
   -1.8486    1.5208   -0.2408 C   0  0  0  0  0  0  0  0  0  0  0  0
   -1.6585    2.5023   -0.9910 O   0  5  0  0  0  0  0  0  0  0  0  0
   -2.9699    1.1848    0.2032 O   0  0  0  0  0  0  0  0  0  0  0  0
   -0.1190   -1.2264   -1.9062 H   0  0  0  0  0  0  0  0  0  0  0  0
    0.8973    1.4524   -1.1515 H   0  0  0  0  0  0  0  0  0  0  0  0
   -0.2748    1.0058    1.0578 H   0  0  0  0  0  0  0  0  0  0  0  0
   -1.0881   -0.3826    0.3320 H   0  0  0  0  0  0  0  0  0  0  0  0
    2.6594    0.1907    0.3819 N   0  0  0  0  0  0  0  0  0  0  0  0
    3.7071   -0.5413    1.1040 C   0  0  2  0  0  0  0  0  0  0  0  0
    4.4211    0.3351    2.1541 C   0  0  0  0  0  0  0  0  0  0  0  0
    4.4002    1.5578    2.0680 O   0  0  0  0  0  0  0  0  0  0  0  0
    4.7185   -1.0695    0.0817 C   0  0  0  0  0  0  0  0  0  0  0  0
    2.7181    1.2087    0.3696 H   0  0  0  0  0  0  0  0  0  0  0  0
    3.2584   -1.3862    1.6370 H   0  0  0  0  0  0  0  0  0  0  0  0
    5.1803   -0.2392   -0.4621 H   0  0  0  0  0  0  0  0  0  0  0  0
    5.5059   -1.6417    0.5810 H   0  0  0  0  0  0  0  0  0  0  0  0
    4.2211   -1.7244   -0.6406 H   0  0  0  0  0  0  0  0  0  0  0  0
    5.1106   -0.2568    3.1975 N   0  0  0  0  0  0  0  0  0  0  0  0
    5.7871    0.5008    4.2419 C   0  0  0  0  0  0  0  0  0  0  0  0
    5.0772   -1.2695    3.2652 H   0  0  0  0  0  0  0  0  0  0  0  0
    6.5528    1.1524    3.8082 H   0  0  0  0  0  0  0  0  0  0  0  0
    5.0691    1.1168    4.7932 H   0  0  0  0  0  0  0  0  0  0  0  0
    6.2733   -0.1798    4.9471 H   0  0  0  0  0  0  0  0  0  0  0  0
  1  2  2  0  0  0  0
  1  3  1  0  0  0  0
  1  7  1  0  0  0  0
  3  4  1  0  0  0  0
  3  5  1  0  0  0  0
  3  6  1  0  0  0  0
  7  8  1  0  0  0  0
  7 12  1  0  0  0  0
  8  9  1  0  0  0  0
  8 11  1  0  0  0  0
  8 13  1  0  0  0  0
  9 10  2  0  0  0  0
  9 17  1  0  0  0  0
 11 14  1  0  0  0  0
 11 15  1  0  0  0  0
 11 16  1  0  0  0  0
 17 18  1  0  0  0  0
 17 25  1  0  0  0  0
 18 19  1  0  0  0  0
 18 21  1  0  0  0  0
 18 26  1  0  0  0  0
 19 20  2  0  0  0  0
 19 29  1  0  0  0  0
 21 22  1  0  0  0  0
 21 27  1  0  0  0  0
 21 28  1  0  0  0  0
 22 23  1  0  0  0  0
 22 24  2  0  0  0  0
 29 30  1  0  0  0  0
 29 34  1  0  0  0  0
 30 31  1  0  0  0  0
 30 33  1  0  0  0  0
 30 35  1  0  0  0  0
 31 32  2  0  0  0  0
 31 39  1  0  0  0  0
 33 36  1  0  0  0  0
 33 37  1  0  0  0  0
 33 38  1  0  0  0  0
 39 40  1  0  0  0  0
 39 41  1  0  0  0  0
 40 42  1  0  0  0  0
 40 43  1  0  0  0  0
 40 44  1  0  0  0  0
M  CHG  1  23  -1
M  END
$$$$

  -OEChem-05262215553D

 44 43  0     1  0  0  0  0  0999 V2000
   -4.5033    0.1225   -2.5791 C   0  0  0  0  0  0  0  0  0  0  0  0
   -4.8468   -0.9983   -2.9386 O   0  0  0  0  0  0  0  0  0  0  0  0
   -5.5274    1.0604   -1.9651 C   0  0  0  0  0  0  0  0  0  0  0  0
   -5.6141    1.9640   -2.5727 H   0  0  0  0  0  0  0  0  0  0  0  0
   -6.5040    0.5731   -1.9099 H   0  0  0  0  0  0  0  0  0  0  0  0
   -5.2177    1.3429   -0.9561 H   0  0  0  0  0  0  0  0  0  0  0  0
   -3.2213    0.5691   -2.8188 N   0  0  0  0  0  0  0  0  0  0  0  0
   -2.1199   -0.2892   -3.2734 C   0  0  2  0  0  0  0  0  0  0  0  0
   -0.7665    0.3732   -2.9451 C   0  0  0  0  0  0  0  0  0  0  0  0
   -0.3872    1.3692   -3.5495 O   0  0  0  0  0  0  0  0  0  0  0  0
   -2.2462   -0.5430   -4.7820 C   0  0  0  0  0  0  0  0  0  0  0  0
   -2.9590    1.4320   -2.3242 H   0  0  0  0  0  0  0  0  0  0  0  0
   -2.1670   -1.2457   -2.7440 H   0  0  0  0  0  0  0  0  0  0  0  0
   -2.2540    0.4054   -5.3290 H   0  0  0  0  0  0  0  0  0  0  0  0
   -1.4042   -1.1440   -5.1370 H   0  0  0  0  0  0  0  0  0  0  0  0
   -3.1721   -1.0803   -5.0064 H   0  0  0  0  0  0  0  0  0  0  0  0
    0.1598   -0.2014   -2.1001 N   0  0  0  0  0  0  0  0  0  0  0  0
    0.5449    0.4884   -0.8568 C   0  0  2  0  0  0  0  0  0  0  0  0
    1.5990   -0.3669   -0.1183 C   0  0  0  0  0  0  0  0  0  0  0  0
    1.6183   -1.5904   -0.2441 O   0  0  0  0  0  0  0  0  0  0  0  0
   -0.6253    0.5627    0.1655 C   0  0  0  0  0  0  0  0  0  0  0  0
   -1.8135    1.4554   -0.1636 C   0  0  0  0  0  0  0  0  0  0  0  0
   -1.6483    2.4702   -0.8740 O   0  5  0  0  0  0  0  0  0  0  0  0
   -2.9270    1.0701    0.2602 O   0  0  0  0  0  0  0  0  0  0  0  0
   -0.0174   -1.1876   -1.9296 H   0  0  0  0  0  0  0  0  0  0  0  0
    0.9376    1.4870   -1.0775 H   0  0  0  0  0  0  0  0  0  0  0  0
   -0.2313    0.9283    1.1177 H   0  0  0  0  0  0  0  0  0  0  0  0
   -1.0041   -0.4504    0.3340 H   0  0  0  0  0  0  0  0  0  0  0  0
    2.5573    0.2340    0.6776 N   0  0  0  0  0  0  0  0  0  0  0  0
    3.5670   -0.4928    1.4575 C   0  0  2  0  0  0  0  0  0  0  0  0
    3.9857    0.2670    2.7339 C   0  0  0  0  0  0  0  0  0  0  0  0
    3.8328    1.4805    2.8182 O   0  0  0  0  0  0  0  0  0  0  0  0
    4.7866   -0.7356    0.5631 C   0  0  0  0  0  0  0  0  0  0  0  0
    2.4673    1.2365    0.8421 H   0  0  0  0  0  0  0  0  0  0  0  0
    3.1554   -1.4565    1.7744 H   0  0  0  0  0  0  0  0  0  0  0  0
    5.2134    0.2171    0.2333 H   0  0  0  0  0  0  0  0  0  0  0  0
    5.5553   -1.2938    1.1056 H   0  0  0  0  0  0  0  0  0  0  0  0
    4.5002   -1.3137   -0.3212 H   0  0  0  0  0  0  0  0  0  0  0  0
    4.5555   -0.4179    3.7930 N   0  0  0  0  0  0  0  0  0  0  0  0
    4.9354    0.2189    5.0472 C   0  0  0  0  0  0  0  0  0  0  0  0
    4.6236   -1.4280    3.7135 H   0  0  0  0  0  0  0  0  0  0  0  0
    5.6728    1.0081    4.8684 H   0  0  0  0  0  0  0  0  0  0  0  0
    4.0584    0.6579    5.5340 H   0  0  0  0  0  0  0  0  0  0  0  0
    5.3766   -0.5173    5.7258 H   0  0  0  0  0  0  0  0  0  0  0  0
  1  2  2  0  0  0  0
  1  3  1  0  0  0  0
  1  7  1  0  0  0  0
  3  4  1  0  0  0  0
  3  5  1  0  0  0  0
  3  6  1  0  0  0  0
  7  8  1  0  0  0  0
  7 12  1  0  0  0  0
  8  9  1  0  0  0  0
  8 11  1  0  0  0  0
  8 13  1  0  0  0  0
  9 10  2  0  0  0  0
  9 17  1  0  0  0  0
 11 14  1  0  0  0  0
 11 15  1  0  0  0  0
 11 16  1  0  0  0  0
 17 18  1  0  0  0  0
 17 25  1  0  0  0  0
 18 19  1  0  0  0  0
 18 21  1  0  0  0  0
 18 26  1  0  0  0  0
 19 20  2  0  0  0  0
 19 29  1  0  0  0  0
 21 22  1  0  0  0  0
 21 27  1  0  0  0  0
 21 28  1  0  0  0  0
 22 23  1  0  0  0  0
 22 24  2  0  0  0  0
 29 30  1  0  0  0  0
 29 34  1  0  0  0  0
 30 31  1  0  0  0  0
 30 33  1  0  0  0  0
 30 35  1  0  0  0  0
 31 32  2  0  0  0  0
 31 39  1  0  0  0  0
 33 36  1  0  0  0  0
 33 37  1  0  0  0  0
 33 38  1  0  0  0  0
 39 40  1  0  0  0  0
 39 41  1  0  0  0  0
 40 42  1  0  0  0  0
 40 43  1  0  0  0  0
 40 44  1  0  0  0  0
M  CHG  1  23  -1
M  END
$$$$

  -OEChem-05262215553D

 44 43  0     1  0  0  0  0  0999 V2000
   -4.4340    0.0260   -2.5600 C   0  0  0  0  0  0  0  0  0  0  0  0
   -4.7215   -1.0932   -2.9701 O   0  0  0  0  0  0  0  0  0  0  0  0
   -5.5011    0.8848   -1.9044 C   0  0  0  0  0  0  0  0  0  0  0  0
   -5.5863    1.8379   -2.4317 H   0  0  0  0  0  0  0  0  0  0  0  0
   -6.4681    0.3762   -1.9297 H   0  0  0  0  0  0  0  0  0  0  0  0
   -5.2346    1.0815   -0.8631 H   0  0  0  0  0  0  0  0  0  0  0  0
   -3.1755    0.5446   -2.7765 N   0  0  0  0  0  0  0  0  0  0  0  0
   -2.0345   -0.2357   -3.2719 C   0  0  2  0  0  0  0  0  0  0  0  0
   -0.7151    0.4670   -2.8947 C   0  0  0  0  0  0  0  0  0  0  0  0
   -0.3705    1.5042   -3.4486 O   0  0  0  0  0  0  0  0  0  0  0  0
   -2.1411   -0.4080   -4.7930 C   0  0  0  0  0  0  0  0  0  0  0  0
   -2.9557    1.3974   -2.2452 H   0  0  0  0  0  0  0  0  0  0  0  0
   -2.0397   -1.2225   -2.7992 H   0  0  0  0  0  0  0  0  0  0  0  0
   -2.1954    0.5684   -5.2849 H   0  0  0  0  0  0  0  0  0  0  0  0
   -1.2673   -0.9433   -5.1760 H   0  0  0  0  0  0  0  0  0  0  0  0
   -3.0375   -0.9780   -5.0527 H   0  0  0  0  0  0  0  0  0  0  0  0
    0.2206   -0.1075   -2.0606 N   0  0  0  0  0  0  0  0  0  0  0  0
    0.5876    0.5509   -0.7946 C   0  0  2  0  0  0  0  0  0  0  0  0
    1.6596   -0.2987   -0.0723 C   0  0  0  0  0  0  0  0  0  0  0  0
    1.8464   -1.4758   -0.3767 O   0  0  0  0  0  0  0  0  0  0  0  0
   -0.5964    0.5497    0.2171 C   0  0  0  0  0  0  0  0  0  0  0  0
   -1.8116    1.4139   -0.0883 C   0  0  0  0  0  0  0  0  0  0  0  0
   -1.6774    2.4604   -0.7573 O   0  5  0  0  0  0  0  0  0  0  0  0
   -2.9138    0.9725    0.3092 O   0  0  0  0  0  0  0  0  0  0  0  0
    0.0842   -1.1063   -1.9330 H   0  0  0  0  0  0  0  0  0  0  0  0
    0.9529    1.5677   -0.9768 H   0  0  0  0  0  0  0  0  0  0  0  0
   -0.2289    0.8963    1.1867 H   0  0  0  0  0  0  0  0  0  0  0  0
   -0.9416   -0.4811    0.3454 H   0  0  0  0  0  0  0  0  0  0  0  0
    2.3953    0.2372    0.9692 N   0  0  0  0  0  0  0  0  0  0  0  0
    3.3471   -0.5190    1.7915 C   0  0  2  0  0  0  0  0  0  0  0  0
    3.4687    0.0529    3.2189 C   0  0  0  0  0  0  0  0  0  0  0  0
    3.1872    1.2234    3.4496 O   0  0  0  0  0  0  0  0  0  0  0  0
    4.7117   -0.4982    1.0963 C   0  0  0  0  0  0  0  0  0  0  0  0
    2.1444    1.1747    1.2838 H   0  0  0  0  0  0  0  0  0  0  0  0
    3.0038   -1.5548    1.8834 H   0  0  0  0  0  0  0  0  0  0  0  0
    5.0673    0.5313    0.9868 H   0  0  0  0  0  0  0  0  0  0  0  0
    5.4474   -1.0623    1.6771 H   0  0  0  0  0  0  0  0  0  0  0  0
    4.6382   -0.9491    0.1015 H   0  0  0  0  0  0  0  0  0  0  0  0
    3.9146   -0.7519    4.2519 N   0  0  0  0  0  0  0  0  0  0  0  0
    4.0125   -0.2997    5.6333 C   0  0  0  0  0  0  0  0  0  0  0  0
    4.0939   -1.7284    4.0386 H   0  0  0  0  0  0  0  0  0  0  0  0
    4.6900    0.5573    5.7083 H   0  0  0  0  0  0  0  0  0  0  0  0
    3.0272   -0.0064    6.0105 H   0  0  0  0  0  0  0  0  0  0  0  0
    4.4010   -1.1033    6.2661 H   0  0  0  0  0  0  0  0  0  0  0  0
  1  2  2  0  0  0  0
  1  3  1  0  0  0  0
  1  7  1  0  0  0  0
  3  4  1  0  0  0  0
  3  5  1  0  0  0  0
  3  6  1  0  0  0  0
  7  8  1  0  0  0  0
  7 12  1  0  0  0  0
  8  9  1  0  0  0  0
  8 11  1  0  0  0  0
  8 13  1  0  0  0  0
  9 10  2  0  0  0  0
  9 17  1  0  0  0  0
 11 14  1  0  0  0  0
 11 15  1  0  0  0  0
 11 16  1  0  0  0  0
 17 18  1  0  0  0  0
 17 25  1  0  0  0  0
 18 19  1  0  0  0  0
 18 21  1  0  0  0  0
 18 26  1  0  0  0  0
 19 20  2  0  0  0  0
 19 29  1  0  0  0  0
 21 22  1  0  0  0  0
 21 27  1  0  0  0  0
 21 28  1  0  0  0  0
 22 23  1  0  0  0  0
 22 24  2  0  0  0  0
 29 30  1  0  0  0  0
 29 34  1  0  0  0  0
 30 31  1  0  0  0  0
 30 33  1  0  0  0  0
 30 35  1  0  0  0  0
 31 32  2  0  0  0  0
 31 39  1  0  0  0  0
 33 36  1  0  0  0  0
 33 37  1  0  0  0  0
 33 38  1  0  0  0  0
 39 40  1  0  0  0  0
 39 41  1  0  0  0  0
 40 42  1  0  0  0  0
 40 43  1  0  0  0  0
 40 44  1  0  0  0  0
M  CHG  1  23  -1
M  END
$$$$

  -OEChem-05262215553D

 44 43  0     1  0  0  0  0  0999 V2000
   -4.3788   -0.1554   -2.5586 C   0  0  0  0  0  0  0  0  0  0  0  0
   -4.6202   -1.2078   -3.1398 O   0  0  0  0  0  0  0  0  0  0  0  0
   -5.4650    0.5170   -1.7381 C   0  0  0  0  0  0  0  0  0  0  0  0
   -5.6063    1.5449   -2.0802 H   0  0  0  0  0  0  0  0  0  0  0  0
   -6.4081   -0.0256   -1.8395 H   0  0  0  0  0  0  0  0  0  0  0  0
   -5.1809    0.5335   -0.6834 H   0  0  0  0  0  0  0  0  0  0  0  0
   -3.1578    0.4627   -2.7223 N   0  0  0  0  0  0  0  0  0  0  0  0
   -2.0046   -0.1455   -3.3977 C   0  0  2  0  0  0  0  0  0  0  0  0
   -0.6999    0.5194   -2.9120 C   0  0  0  0  0  0  0  0  0  0  0  0
   -0.3425    1.6085   -3.3481 O   0  0  0  0  0  0  0  0  0  0  0  0
   -2.1687   -0.0013   -4.9169 C   0  0  0  0  0  0  0  0  0  0  0  0
   -2.9626    1.2392   -2.0736 H   0  0  0  0  0  0  0  0  0  0  0  0
   -1.9538   -1.2092   -3.1466 H   0  0  0  0  0  0  0  0  0  0  0  0
   -2.2765    1.0532   -5.1905 H   0  0  0  0  0  0  0  0  0  0  0  0
   -1.2941   -0.4078   -5.4332 H   0  0  0  0  0  0  0  0  0  0  0  0
   -3.0557   -0.5414   -5.2602 H   0  0  0  0  0  0  0  0  0  0  0  0
    0.1761   -0.1193   -2.0562 N   0  0  0  0  0  0  0  0  0  0  0  0
    0.5991    0.5605   -0.8190 C   0  0  2  0  0  0  0  0  0  0  0  0
    1.8483   -0.1350   -0.2173 C   0  0  0  0  0  0  0  0  0  0  0  0
    2.3008   -1.1700   -0.7027 O   0  0  0  0  0  0  0  0  0  0  0  0
   -0.5048    0.3557    0.2597 C   0  0  0  0  0  0  0  0  0  0  0  0
   -1.8394    1.0572    0.0496 C   0  0  0  0  0  0  0  0  0  0  0  0
   -1.8880    2.1345   -0.5843 O   0  5  0  0  0  0  0  0  0  0  0  0
   -2.8480    0.4458    0.4689 O   0  0  0  0  0  0  0  0  0  0  0  0
   -0.0315   -1.1025   -1.9170 H   0  0  0  0  0  0  0  0  0  0  0  0
    0.8012    1.6240   -0.9908 H   0  0  0  0  0  0  0  0  0  0  0  0
   -0.1370    0.7207    1.2216 H   0  0  0  0  0  0  0  0  0  0  0  0
   -0.6948   -0.7168    0.3672 H   0  0  0  0  0  0  0  0  0  0  0  0
    2.4271    0.3342    0.9496 N   0  0  0  0  0  0  0  0  0  0  0  0
    3.5089   -0.3401    1.6784 C   0  0  2  0  0  0  0  0  0  0  0  0
    3.4647   -0.0506    3.1932 C   0  0  0  0  0  0  0  0  0  0  0  0
    2.9107    0.9554    3.6220 O   0  0  0  0  0  0  0  0  0  0  0  0
    4.8478    0.1166    1.0915 C   0  0  0  0  0  0  0  0  0  0  0  0
    1.9698    1.1205    1.4110 H   0  0  0  0  0  0  0  0  0  0  0  0
    3.4114   -1.4233    1.5541 H   0  0  0  0  0  0  0  0  0  0  0  0
    4.9643    1.1989    1.2078 H   0  0  0  0  0  0  0  0  0  0  0  0
    5.6794   -0.3813    1.5991 H   0  0  0  0  0  0  0  0  0  0  0  0
    4.8980   -0.1270    0.0253 H   0  0  0  0  0  0  0  0  0  0  0  0
    4.0633   -0.9246    4.0835 N   0  0  0  0  0  0  0  0  0  0  0  0
    4.0146   -0.7528    5.5296 C   0  0  0  0  0  0  0  0  0  0  0  0
    4.4704   -1.7730    3.7017 H   0  0  0  0  0  0  0  0  0  0  0  0
    4.4811    0.1944    5.8196 H   0  0  0  0  0  0  0  0  0  0  0  0
    2.9773   -0.7590    5.8807 H   0  0  0  0  0  0  0  0  0  0  0  0
    4.5525   -1.5672    6.0238 H   0  0  0  0  0  0  0  0  0  0  0  0
  1  2  2  0  0  0  0
  1  3  1  0  0  0  0
  1  7  1  0  0  0  0
  3  4  1  0  0  0  0
  3  5  1  0  0  0  0
  3  6  1  0  0  0  0
  7  8  1  0  0  0  0
  7 12  1  0  0  0  0
  8  9  1  0  0  0  0
  8 11  1  0  0  0  0
  8 13  1  0  0  0  0
  9 10  2  0  0  0  0
  9 17  1  0  0  0  0
 11 14  1  0  0  0  0
 11 15  1  0  0  0  0
 11 16  1  0  0  0  0
 17 18  1  0  0  0  0
 17 25  1  0  0  0  0
 18 19  1  0  0  0  0
 18 21  1  0  0  0  0
 18 26  1  0  0  0  0
 19 20  2  0  0  0  0
 19 29  1  0  0  0  0
 21 22  1  0  0  0  0
 21 27  1  0  0  0  0
 21 28  1  0  0  0  0
 22 23  1  0  0  0  0
 22 24  2  0  0  0  0
 29 30  1  0  0  0  0
 29 34  1  0  0  0  0
 30 31  1  0  0  0  0
 30 33  1  0  0  0  0
 30 35  1  0  0  0  0
 31 32  2  0  0  0  0
 31 39  1  0  0  0  0
 33 36  1  0  0  0  0
 33 37  1  0  0  0  0
 33 38  1  0  0  0  0
 39 40  1  0  0  0  0
 39 41  1  0  0  0  0
 40 42  1  0  0  0  0
 40 43  1  0  0  0  0
 40 44  1  0  0  0  0
M  CHG  1  23  -1
M  END
$$$$

  -OEChem-05262215553D

 44 43  0     1  0  0  0  0  0999 V2000
   -4.3368   -0.2464   -2.5971 C   0  0  0  0  0  0  0  0  0  0  0  0
   -4.5172   -1.3069   -3.1855 O   0  0  0  0  0  0  0  0  0  0  0  0
   -5.4726    0.3771   -1.8056 C   0  0  0  0  0  0  0  0  0  0  0  0
   -5.6197    1.4128   -2.1203 H   0  0  0  0  0  0  0  0  0  0  0  0
   -6.3990   -0.1793   -1.9686 H   0  0  0  0  0  0  0  0  0  0  0  0
   -5.2360    0.3634   -0.7390 H   0  0  0  0  0  0  0  0  0  0  0  0
   -3.1389    0.4226   -2.7282 N   0  0  0  0  0  0  0  0  0  0  0  0
   -1.9455   -0.1392   -3.3722 C   0  0  2  0  0  0  0  0  0  0  0  0
   -0.6808    0.5633   -2.8375 C   0  0  0  0  0  0  0  0  0  0  0  0
   -0.3489    1.6692   -3.2502 O   0  0  0  0  0  0  0  0  0  0  0  0
   -2.0668    0.0143   -4.8944 C   0  0  0  0  0  0  0  0  0  0  0  0
   -2.9924    1.2067   -2.0763 H   0  0  0  0  0  0  0  0  0  0  0  0
   -1.8669   -1.2032   -3.1298 H   0  0  0  0  0  0  0  0  0  0  0  0
   -2.2059    1.0665   -5.1622 H   0  0  0  0  0  0  0  0  0  0  0  0
   -1.1617   -0.3540   -5.3861 H   0  0  0  0  0  0  0  0  0  0  0  0
   -2.9215   -0.5554   -5.2702 H   0  0  0  0  0  0  0  0  0  0  0  0
    0.1910   -0.0611   -1.9666 N   0  0  0  0  0  0  0  0  0  0  0  0
    0.5734    0.6159   -0.7136 C   0  0  2  0  0  0  0  0  0  0  0  0
    1.8289   -0.0649   -0.0975 C   0  0  0  0  0  0  0  0  0  0  0  0
    2.4635   -0.9120   -0.7221 O   0  0  0  0  0  0  0  0  0  0  0  0
   -0.5683    0.3853    0.3245 C   0  0  0  0  0  0  0  0  0  0  0  0
   -1.9060    1.0703    0.0769 C   0  0  0  0  0  0  0  0  0  0  0  0
   -1.9505    2.1535   -0.5458 O   0  5  0  0  0  0  0  0  0  0  0  0
   -2.9184    0.4398    0.4573 O   0  0  0  0  0  0  0  0  0  0  0  0
    0.0079   -1.0513   -1.8483 H   0  0  0  0  0  0  0  0  0  0  0  0
    0.7620    1.6840   -0.8701 H   0  0  0  0  0  0  0  0  0  0  0  0
   -0.2477    0.7523    1.3018 H   0  0  0  0  0  0  0  0  0  0  0  0
   -0.7448   -0.6906    0.4188 H   0  0  0  0  0  0  0  0  0  0  0  0
    2.2168    0.1687    1.2117 N   0  0  0  0  0  0  0  0  0  0  0  0
    3.3010   -0.5376    1.9064 C   0  0  2  0  0  0  0  0  0  0  0  0
    3.0597   -0.6247    3.4268 C   0  0  0  0  0  0  0  0  0  0  0  0
    2.3871    0.2230    4.0023 O   0  0  0  0  0  0  0  0  0  0  0  0
    4.6173    0.1910    1.6206 C   0  0  0  0  0  0  0  0  0  0  0  0
    1.6273    0.7875    1.7680 H   0  0  0  0  0  0  0  0  0  0  0  0
    3.3686   -1.5636    1.5301 H   0  0  0  0  0  0  0  0  0  0  0  0
    4.5720    1.2199    1.9917 H   0  0  0  0  0  0  0  0  0  0  0  0
    5.4524   -0.3205    2.1084 H   0  0  0  0  0  0  0  0  0  0  0  0
    4.8099    0.2170    0.5433 H   0  0  0  0  0  0  0  0  0  0  0  0
    3.6153   -1.6591    4.1582 N   0  0  0  0  0  0  0  0  0  0  0  0
    3.3841   -1.8419    5.5848 C   0  0  0  0  0  0  0  0  0  0  0  0
    4.1184   -2.3761    3.6444 H   0  0  0  0  0  0  0  0  0  0  0  0
    3.7393   -0.9703    6.1444 H   0  0  0  0  0  0  0  0  0  0  0  0
    2.3163   -1.9796    5.7854 H   0  0  0  0  0  0  0  0  0  0  0  0
    3.9206   -2.7254    5.9439 H   0  0  0  0  0  0  0  0  0  0  0  0
  1  2  2  0  0  0  0
  1  3  1  0  0  0  0
  1  7  1  0  0  0  0
  3  4  1  0  0  0  0
  3  5  1  0  0  0  0
  3  6  1  0  0  0  0
  7  8  1  0  0  0  0
  7 12  1  0  0  0  0
  8  9  1  0  0  0  0
  8 11  1  0  0  0  0
  8 13  1  0  0  0  0
  9 10  2  0  0  0  0
  9 17  1  0  0  0  0
 11 14  1  0  0  0  0
 11 15  1  0  0  0  0
 11 16  1  0  0  0  0
 17 18  1  0  0  0  0
 17 25  1  0  0  0  0
 18 19  1  0  0  0  0
 18 21  1  0  0  0  0
 18 26  1  0  0  0  0
 19 20  2  0  0  0  0
 19 29  1  0  0  0  0
 21 22  1  0  0  0  0
 21 27  1  0  0  0  0
 21 28  1  0  0  0  0
 22 23  1  0  0  0  0
 22 24  2  0  0  0  0
 29 30  1  0  0  0  0
 29 34  1  0  0  0  0
 30 31  1  0  0  0  0
 30 33  1  0  0  0  0
 30 35  1  0  0  0  0
 31 32  2  0  0  0  0
 31 39  1  0  0  0  0
 33 36  1  0  0  0  0
 33 37  1  0  0  0  0
 33 38  1  0  0  0  0
 39 40  1  0  0  0  0
 39 41  1  0  0  0  0
 40 42  1  0  0  0  0
 40 43  1  0  0  0  0
 40 44  1  0  0  0  0
M  CHG  1  23  -1
M  END
$$$$

  -OEChem-05262215553D

 44 43  0     1  0  0  0  0  0999 V2000
   -2.9781   -1.1708   -1.9134 C   0  0  0  0  0  0  0  0  0  0  0  0
   -2.2873   -2.1055   -2.2970 O   0  0  0  0  0  0  0  0  0  0  0  0
   -3.8696   -1.3317   -0.6956 C   0  0  0  0  0  0  0  0  0  0  0  0
   -4.8879   -1.0185   -0.9380 H   0  0  0  0  0  0  0  0  0  0  0  0
   -3.8871   -2.3757   -0.3724 H   0  0  0  0  0  0  0  0  0  0  0  0
   -3.4988   -0.7128    0.1249 H   0  0  0  0  0  0  0  0  0  0  0  0
   -2.9017    0.0405   -2.5623 N   0  0  0  0  0  0  0  0  0  0  0  0
   -1.9991    0.3096   -3.6944 C   0  0  2  0  0  0  0  0  0  0  0  0
   -0.5483    0.6181   -3.2528 C   0  0  0  0  0  0  0  0  0  0  0  0
    0.1667    1.3910   -3.8818 O   0  0  0  0  0  0  0  0  0  0  0  0
   -2.6190    1.4718   -4.4788 C   0  0  0  0  0  0  0  0  0  0  0  0
   -3.1780    0.8482   -1.9852 H   0  0  0  0  0  0  0  0  0  0  0  0
   -1.9578   -0.5649   -4.3505 H   0  0  0  0  0  0  0  0  0  0  0  0
   -2.6340    2.3784   -3.8638 H   0  0  0  0  0  0  0  0  0  0  0  0
   -2.0381    1.6764   -5.3833 H   0  0  0  0  0  0  0  0  0  0  0  0
   -3.6446    1.2312   -4.7732 H   0  0  0  0  0  0  0  0  0  0  0  0
    0.0485   -0.1040   -2.2394 N   0  0  0  0  0  0  0  0  0  0  0  0
    0.5999    0.5820   -1.0534 C   0  0  2  0  0  0  0  0  0  0  0  0
    1.5430   -0.3699   -0.2615 C   0  0  0  0  0  0  0  0  0  0  0  0
    2.1536   -1.2732   -0.8253 O   0  0  0  0  0  0  0  0  0  0  0  0
   -0.5899    0.9625   -0.1178 C   0  0  0  0  0  0  0  0  0  0  0  0
   -1.5460    2.0475   -0.6025 C   0  0  0  0  0  0  0  0  0  0  0  0
   -1.1226    2.9437   -1.3606 O   0  5  0  0  0  0  0  0  0  0  0  0
   -2.7629    1.8478   -0.3555 O   0  0  0  0  0  0  0  0  0  0  0  0
   -0.4842   -0.9455   -2.0200 H   0  0  0  0  0  0  0  0  0  0  0  0
    1.1600    1.4769   -1.3474 H   0  0  0  0  0  0  0  0  0  0  0  0
   -0.1954    1.3534    0.8218 H   0  0  0  0  0  0  0  0  0  0  0  0
   -1.1601    0.0589    0.1138 H   0  0  0  0  0  0  0  0  0  0  0  0
    1.7140   -0.2728    1.1106 N   0  0  0  0  0  0  0  0  0  0  0  0
    2.5442   -1.1718    1.9230 C   0  0  2  0  0  0  0  0  0  0  0  0
    2.0891   -1.2235    3.3966 C   0  0  0  0  0  0  0  0  0  0  0  0
    1.3814   -0.3401    3.8678 O   0  0  0  0  0  0  0  0  0  0  0  0
    4.0008   -0.7015    1.8407 C   0  0  0  0  0  0  0  0  0  0  0  0
    1.1434    0.4131    1.6034 H   0  0  0  0  0  0  0  0  0  0  0  0
    2.4701   -2.1891    1.5248 H   0  0  0  0  0  0  0  0  0  0  0  0
    4.0966    0.3145    2.2369 H   0  0  0  0  0  0  0  0  0  0  0  0
    4.6517   -1.3650    2.4176 H   0  0  0  0  0  0  0  0  0  0  0  0
    4.3436   -0.7032    0.8011 H   0  0  0  0  0  0  0  0  0  0  0  0
    2.4973   -2.2657    4.2102 N   0  0  0  0  0  0  0  0  0  0  0  0
    2.1196   -2.3848    5.6122 C   0  0  0  0  0  0  0  0  0  0  0  0
    3.0643   -2.9940    3.7867 H   0  0  0  0  0  0  0  0  0  0  0  0
    2.4779   -1.5199    6.1799 H   0  0  0  0  0  0  0  0  0  0  0  0
    1.0311   -2.4468    5.7115 H   0  0  0  0  0  0  0  0  0  0  0  0
    2.5589   -3.2884    6.0451 H   0  0  0  0  0  0  0  0  0  0  0  0
  1  2  2  0  0  0  0
  1  3  1  0  0  0  0
  1  7  1  0  0  0  0
  3  4  1  0  0  0  0
  3  5  1  0  0  0  0
  3  6  1  0  0  0  0
  7  8  1  0  0  0  0
  7 12  1  0  0  0  0
  8  9  1  0  0  0  0
  8 11  1  0  0  0  0
  8 13  1  0  0  0  0
  9 10  2  0  0  0  0
  9 17  1  0  0  0  0
 11 14  1  0  0  0  0
 11 15  1  0  0  0  0
 11 16  1  0  0  0  0
 17 18  1  0  0  0  0
 17 25  1  0  0  0  0
 18 19  1  0  0  0  0
 18 21  1  0  0  0  0
 18 26  1  0  0  0  0
 19 20  2  0  0  0  0
 19 29  1  0  0  0  0
 21 22  1  0  0  0  0
 21 27  1  0  0  0  0
 21 28  1  0  0  0  0
 22 23  1  0  0  0  0
 22 24  2  0  0  0  0
 29 30  1  0  0  0  0
 29 34  1  0  0  0  0
 30 31  1  0  0  0  0
 30 33  1  0  0  0  0
 30 35  1  0  0  0  0
 31 32  2  0  0  0  0
 31 39  1  0  0  0  0
 33 36  1  0  0  0  0
 33 37  1  0  0  0  0
 33 38  1  0  0  0  0
 39 40  1  0  0  0  0
 39 41  1  0  0  0  0
 40 42  1  0  0  0  0
 40 43  1  0  0  0  0
 40 44  1  0  0  0  0
M  CHG  1  23  -1
M  END
$$$$

  -OEChem-05262215553D

 44 43  0     1  0  0  0  0  0999 V2000
   -4.3474   -0.1721   -2.7064 C   0  0  0  0  0  0  0  0  0  0  0  0
   -4.5373   -1.2712   -3.2162 O   0  0  0  0  0  0  0  0  0  0  0  0
   -5.5017    0.5648   -2.0508 C   0  0  0  0  0  0  0  0  0  0  0  0
   -5.6051    1.5599   -2.4898 H   0  0  0  0  0  0  0  0  0  0  0  0
   -6.4344    0.0138   -2.1940 H   0  0  0  0  0  0  0  0  0  0  0  0
   -5.3161    0.6707   -0.9794 H   0  0  0  0  0  0  0  0  0  0  0  0
   -3.1132    0.4332   -2.8055 N   0  0  0  0  0  0  0  0  0  0  0  0
   -1.9046   -0.2352   -3.3023 C   0  0  2  0  0  0  0  0  0  0  0  0
   -0.6504    0.4694   -2.7469 C   0  0  0  0  0  0  0  0  0  0  0  0
   -0.2772    1.5435   -3.2035 O   0  0  0  0  0  0  0  0  0  0  0  0
   -1.9094   -0.2316   -4.8370 C   0  0  0  0  0  0  0  0  0  0  0  0
   -2.9737    1.2573   -2.2030 H   0  0  0  0  0  0  0  0  0  0  0  0
   -1.8925   -1.2712   -2.9513 H   0  0  0  0  0  0  0  0  0  0  0  0
   -1.9799    0.7929   -5.2165 H   0  0  0  0  0  0  0  0  0  0  0  0
   -0.9894   -0.6832   -5.2200 H   0  0  0  0  0  0  0  0  0  0  0  0
   -2.7611   -0.8025   -5.2186 H   0  0  0  0  0  0  0  0  0  0  0  0
    0.1652   -0.1234   -1.8026 N   0  0  0  0  0  0  0  0  0  0  0  0
    0.4580    0.6006   -0.5508 C   0  0  2  0  0  0  0  0  0  0  0  0
    1.6775   -0.0688    0.1504 C   0  0  0  0  0  0  0  0  0  0  0  0
    2.6546   -0.4133   -0.5072 O   0  0  0  0  0  0  0  0  0  0  0  0
   -0.7607    0.4616    0.4138 C   0  0  0  0  0  0  0  0  0  0  0  0
   -2.0557    1.1718    0.0405 C   0  0  0  0  0  0  0  0  0  0  0  0
   -2.0272    2.2217   -0.6378 O   0  5  0  0  0  0  0  0  0  0  0  0
   -3.1087    0.5934    0.3910 O   0  0  0  0  0  0  0  0  0  0  0  0
   -0.0557   -1.1009   -1.6558 H   0  0  0  0  0  0  0  0  0  0  0  0
    0.6824    1.6567   -0.7421 H   0  0  0  0  0  0  0  0  0  0  0  0
   -0.4919    0.8858    1.3842 H   0  0  0  0  0  0  0  0  0  0  0  0
   -0.9802   -0.6013    0.5571 H   0  0  0  0  0  0  0  0  0  0  0  0
    1.7163   -0.3463    1.5083 N   0  0  0  0  0  0  0  0  0  0  0  0
    2.8074   -1.0531    2.1936 C   0  0  2  0  0  0  0  0  0  0  0  0
    2.2991   -2.0027    3.2971 C   0  0  0  0  0  0  0  0  0  0  0  0
    1.2173   -1.8122    3.8405 O   0  0  0  0  0  0  0  0  0  0  0  0
    3.7518   -0.0044    2.7856 C   0  0  0  0  0  0  0  0  0  0  0  0
    0.8574   -0.1871    2.0346 H   0  0  0  0  0  0  0  0  0  0  0  0
    3.3623   -1.6675    1.4775 H   0  0  0  0  0  0  0  0  0  0  0  0
    3.2215    0.6228    3.5097 H   0  0  0  0  0  0  0  0  0  0  0  0
    4.5929   -0.4877    3.2915 H   0  0  0  0  0  0  0  0  0  0  0  0
    4.1476    0.6374    1.9919 H   0  0  0  0  0  0  0  0  0  0  0  0
    3.0761   -3.0775    3.6919 N   0  0  0  0  0  0  0  0  0  0  0  0
    2.6427   -4.0583    4.6781 C   0  0  0  0  0  0  0  0  0  0  0  0
    3.9401   -3.2394    3.1830 H   0  0  0  0  0  0  0  0  0  0  0  0
    2.3931   -3.5669    5.6244 H   0  0  0  0  0  0  0  0  0  0  0  0
    1.7618   -4.5991    4.3171 H   0  0  0  0  0  0  0  0  0  0  0  0
    3.4417   -4.7818    4.8661 H   0  0  0  0  0  0  0  0  0  0  0  0
  1  2  2  0  0  0  0
  1  3  1  0  0  0  0
  1  7  1  0  0  0  0
  3  4  1  0  0  0  0
  3  5  1  0  0  0  0
  3  6  1  0  0  0  0
  7  8  1  0  0  0  0
  7 12  1  0  0  0  0
  8  9  1  0  0  0  0
  8 11  1  0  0  0  0
  8 13  1  0  0  0  0
  9 10  2  0  0  0  0
  9 17  1  0  0  0  0
 11 14  1  0  0  0  0
 11 15  1  0  0  0  0
 11 16  1  0  0  0  0
 17 18  1  0  0  0  0
 17 25  1  0  0  0  0
 18 19  1  0  0  0  0
 18 21  1  0  0  0  0
 18 26  1  0  0  0  0
 19 20  2  0  0  0  0
 19 29  1  0  0  0  0
 21 22  1  0  0  0  0
 21 27  1  0  0  0  0
 21 28  1  0  0  0  0
 22 23  1  0  0  0  0
 22 24  2  0  0  0  0
 29 30  1  0  0  0  0
 29 34  1  0  0  0  0
 30 31  1  0  0  0  0
 30 33  1  0  0  0  0
 30 35  1  0  0  0  0
 31 32  2  0  0  0  0
 31 39  1  0  0  0  0
 33 36  1  0  0  0  0
 33 37  1  0  0  0  0
 33 38  1  0  0  0  0
 39 40  1  0  0  0  0
 39 41  1  0  0  0  0
 40 42  1  0  0  0  0
 40 43  1  0  0  0  0
 40 44  1  0  0  0  0
M  CHG  1  23  -1
M  END
$$$$

  -OEChem-05262215553D

 44 43  0     1  0  0  0  0  0999 V2000
   -2.8114   -1.3058   -1.8160 C   0  0  0  0  0  0  0  0  0  0  0  0
   -2.0371   -2.2011   -2.1292 O   0  0  0  0  0  0  0  0  0  0  0  0
   -3.7154   -1.4685   -0.6071 C   0  0  0  0  0  0  0  0  0  0  0  0
   -4.7488   -1.2484   -0.8852 H   0  0  0  0  0  0  0  0  0  0  0  0
   -3.6607   -2.4915   -0.2256 H   0  0  0  0  0  0  0  0  0  0  0  0
   -3.4121   -0.7800    0.1854 H   0  0  0  0  0  0  0  0  0  0  0  0
   -2.8056   -0.1276   -2.5282 N   0  0  0  0  0  0  0  0  0  0  0  0
   -1.8989    0.1481   -3.6566 C   0  0  2  0  0  0  0  0  0  0  0  0
   -0.4680    0.5371   -3.2111 C   0  0  0  0  0  0  0  0  0  0  0  0
    0.2250    1.3068   -3.8670 O   0  0  0  0  0  0  0  0  0  0  0  0
   -2.5594    1.2554   -4.4860 C   0  0  0  0  0  0  0  0  0  0  0  0
   -3.1510    0.6872   -2.0003 H   0  0  0  0  0  0  0  0  0  0  0  0
   -1.8098   -0.7445   -4.2828 H   0  0  0  0  0  0  0  0  0  0  0  0
   -2.6245    2.1794   -3.9008 H   0  0  0  0  0  0  0  0  0  0  0  0
   -1.9752    1.4585   -5.3887 H   0  0  0  0  0  0  0  0  0  0  0  0
   -3.5683    0.9585   -4.7864 H   0  0  0  0  0  0  0  0  0  0  0  0
    0.1410   -0.1207   -2.1618 N   0  0  0  0  0  0  0  0  0  0  0  0
    0.6085    0.6364   -0.9843 C   0  0  2  0  0  0  0  0  0  0  0  0
    1.5810   -0.2422   -0.1502 C   0  0  0  0  0  0  0  0  0  0  0  0
    2.6123   -0.6785   -0.6502 O   0  0  0  0  0  0  0  0  0  0  0  0
   -0.6148    1.0054   -0.0914 C   0  0  0  0  0  0  0  0  0  0  0  0
   -1.6017    2.0301   -0.6402 C   0  0  0  0  0  0  0  0  0  0  0  0
   -1.1995    2.9117   -1.4259 O   0  5  0  0  0  0  0  0  0  0  0  0
   -2.8142    1.7877   -0.4110 O   0  0  0  0  0  0  0  0  0  0  0  0
   -0.3761   -0.9680   -1.9252 H   0  0  0  0  0  0  0  0  0  0  0  0
    1.1357    1.5454   -1.2967 H   0  0  0  0  0  0  0  0  0  0  0  0
   -0.2445    1.4437    0.8388 H   0  0  0  0  0  0  0  0  0  0  0  0
   -1.1590    0.0922    0.1622 H   0  0  0  0  0  0  0  0  0  0  0  0
    1.3313   -0.5809    1.1708 N   0  0  0  0  0  0  0  0  0  0  0  0
    2.1411   -1.5101    1.9679 C   0  0  2  0  0  0  0  0  0  0  0  0
    1.2768   -2.4041    2.8798 C   0  0  0  0  0  0  0  0  0  0  0  0
    0.1928   -2.0120    3.2978 O   0  0  0  0  0  0  0  0  0  0  0  0
    3.1253   -0.6870    2.8021 C   0  0  0  0  0  0  0  0  0  0  0  0
    0.4246   -0.3075    1.5479 H   0  0  0  0  0  0  0  0  0  0  0  0
    2.7034   -2.1760    1.3055 H   0  0  0  0  0  0  0  0  0  0  0  0
    2.5855   -0.0151    3.4773 H   0  0  0  0  0  0  0  0  0  0  0  0
    3.7640   -1.3443    3.3995 H   0  0  0  0  0  0  0  0  0  0  0  0
    3.7635   -0.0851    2.1471 H   0  0  0  0  0  0  0  0  0  0  0  0
    1.7325   -3.6572    3.2495 N   0  0  0  0  0  0  0  0  0  0  0  0
    0.9489   -4.5880    4.0501 C   0  0  0  0  0  0  0  0  0  0  0  0
    2.5952   -3.9809    2.8219 H   0  0  0  0  0  0  0  0  0  0  0  0
    0.6803   -4.1358    5.0104 H   0  0  0  0  0  0  0  0  0  0  0  0
    0.0316   -4.8683    3.5221 H   0  0  0  0  0  0  0  0  0  0  0  0
    1.5278   -5.4953    4.2466 H   0  0  0  0  0  0  0  0  0  0  0  0
  1  2  2  0  0  0  0
  1  3  1  0  0  0  0
  1  7  1  0  0  0  0
  3  4  1  0  0  0  0
  3  5  1  0  0  0  0
  3  6  1  0  0  0  0
  7  8  1  0  0  0  0
  7 12  1  0  0  0  0
  8  9  1  0  0  0  0
  8 11  1  0  0  0  0
  8 13  1  0  0  0  0
  9 10  2  0  0  0  0
  9 17  1  0  0  0  0
 11 14  1  0  0  0  0
 11 15  1  0  0  0  0
 11 16  1  0  0  0  0
 17 18  1  0  0  0  0
 17 25  1  0  0  0  0
 18 19  1  0  0  0  0
 18 21  1  0  0  0  0
 18 26  1  0  0  0  0
 19 20  2  0  0  0  0
 19 29  1  0  0  0  0
 21 22  1  0  0  0  0
 21 27  1  0  0  0  0
 21 28  1  0  0  0  0
 22 23  1  0  0  0  0
 22 24  2  0  0  0  0
 29 30  1  0  0  0  0
 29 34  1  0  0  0  0
 30 31  1  0  0  0  0
 30 33  1  0  0  0  0
 30 35  1  0  0  0  0
 31 32  2  0  0  0  0
 31 39  1  0  0  0  0
 33 36  1  0  0  0  0
 33 37  1  0  0  0  0
 33 38  1  0  0  0  0
 39 40  1  0  0  0  0
 39 41  1  0  0  0  0
 40 42  1  0  0  0  0
 40 43  1  0  0  0  0
 40 44  1  0  0  0  0
M  CHG  1  23  -1
M  END
$$$$

  -OEChem-05262215553D

 44 43  0     1  0  0  0  0  0999 V2000
   -3.0187   -1.1001   -1.4258 C   0  0  0  0  0  0  0  0  0  0  0  0
   -2.4366   -2.1740   -1.3419 O   0  0  0  0  0  0  0  0  0  0  0  0
   -4.0093   -0.6845   -0.3531 C   0  0  0  0  0  0  0  0  0  0  0  0
   -4.9426   -0.3576   -0.8177 H   0  0  0  0  0  0  0  0  0  0  0  0
   -4.2209   -1.5240    0.3144 H   0  0  0  0  0  0  0  0  0  0  0  0
   -3.6032    0.1417    0.2354 H   0  0  0  0  0  0  0  0  0  0  0  0
   -2.7100   -0.2448   -2.4592 N   0  0  0  0  0  0  0  0  0  0  0  0
   -1.7198   -0.5450   -3.5081 C   0  0  2  0  0  0  0  0  0  0  0  0
   -0.2563   -0.3432   -3.0456 C   0  0  0  0  0  0  0  0  0  0  0  0
    0.6218    0.0189   -3.8201 O   0  0  0  0  0  0  0  0  0  0  0  0
   -2.0690    0.3453   -4.7061 C   0  0  0  0  0  0  0  0  0  0  0  0
   -2.8827    0.7491   -2.2516 H   0  0  0  0  0  0  0  0  0  0  0  0
   -1.8186   -1.5903   -3.8166 H   0  0  0  0  0  0  0  0  0  0  0  0
   -1.9376    1.4009   -4.4440 H   0  0  0  0  0  0  0  0  0  0  0  0
   -1.4191    0.1164   -5.5563 H   0  0  0  0  0  0  0  0  0  0  0  0
   -3.1071    0.1858   -5.0116 H   0  0  0  0  0  0  0  0  0  0  0  0
    0.1453   -0.7602   -1.7927 N   0  0  0  0  0  0  0  0  0  0  0  0
    0.7343    0.2096   -0.8503 C   0  0  2  0  0  0  0  0  0  0  0  0
    1.4462   -0.5486    0.2997 C   0  0  0  0  0  0  0  0  0  0  0  0
    2.4991   -1.1447    0.1010 O   0  0  0  0  0  0  0  0  0  0  0  0
   -0.3948    1.0832   -0.2260 C   0  0  0  0  0  0  0  0  0  0  0  0
   -1.1061    2.0720   -1.1424 C   0  0  0  0  0  0  0  0  0  0  0  0
   -0.4949    2.5651   -2.1109 O   0  5  0  0  0  0  0  0  0  0  0  0
   -2.3463    2.1725   -0.9628 O   0  0  0  0  0  0  0  0  0  0  0  0
   -0.5721   -1.3553   -1.3756 H   0  0  0  0  0  0  0  0  0  0  0  0
    1.4669    0.8463   -1.3607 H   0  0  0  0  0  0  0  0  0  0  0  0
    0.0423    1.6883    0.5728 H   0  0  0  0  0  0  0  0  0  0  0  0
   -1.1474    0.4290    0.2214 H   0  0  0  0  0  0  0  0  0  0  0  0
    0.9027   -0.6430    1.5716 N   0  0  0  0  0  0  0  0  0  0  0  0
    1.5342   -1.3247    2.7128 C   0  0  2  0  0  0  0  0  0  0  0  0
    1.3763   -2.8664    2.6666 C   0  0  0  0  0  0  0  0  0  0  0  0
    0.9670   -3.5028    3.6330 O   0  0  0  0  0  0  0  0  0  0  0  0
    0.9408   -0.7043    3.9837 C   0  0  0  0  0  0  0  0  0  0  0  0
    0.0042   -0.1893    1.7112 H   0  0  0  0  0  0  0  0  0  0  0  0
    2.6087   -1.1137    2.7066 H   0  0  0  0  0  0  0  0  0  0  0  0
   -0.1329   -0.9098    4.0454 H   0  0  0  0  0  0  0  0  0  0  0  0
    1.4257   -1.1207    4.8723 H   0  0  0  0  0  0  0  0  0  0  0  0
    1.0917    0.3797    3.9854 H   0  0  0  0  0  0  0  0  0  0  0  0
    1.7277   -3.5469    1.5179 N   0  0  0  0  0  0  0  0  0  0  0  0
    1.5786   -4.9816    1.3323 C   0  0  0  0  0  0  0  0  0  0  0  0
    2.0734   -2.9713    0.7437 H   0  0  0  0  0  0  0  0  0  0  0  0
    2.1521   -5.5274    2.0885 H   0  0  0  0  0  0  0  0  0  0  0  0
    0.5249   -5.2685    1.4090 H   0  0  0  0  0  0  0  0  0  0  0  0
    1.9459   -5.2714    0.3431 H   0  0  0  0  0  0  0  0  0  0  0  0
  1  2  2  0  0  0  0
  1  3  1  0  0  0  0
  1  7  1  0  0  0  0
  3  4  1  0  0  0  0
  3  5  1  0  0  0  0
  3  6  1  0  0  0  0
  7  8  1  0  0  0  0
  7 12  1  0  0  0  0
  8  9  1  0  0  0  0
  8 11  1  0  0  0  0
  8 13  1  0  0  0  0
  9 10  2  0  0  0  0
  9 17  1  0  0  0  0
 11 14  1  0  0  0  0
 11 15  1  0  0  0  0
 11 16  1  0  0  0  0
 17 18  1  0  0  0  0
 17 25  1  0  0  0  0
 18 19  1  0  0  0  0
 18 21  1  0  0  0  0
 18 26  1  0  0  0  0
 19 20  2  0  0  0  0
 19 29  1  0  0  0  0
 21 22  1  0  0  0  0
 21 27  1  0  0  0  0
 21 28  1  0  0  0  0
 22 23  1  0  0  0  0
 22 24  2  0  0  0  0
 29 30  1  0  0  0  0
 29 34  1  0  0  0  0
 30 31  1  0  0  0  0
 30 33  1  0  0  0  0
 30 35  1  0  0  0  0
 31 32  2  0  0  0  0
 31 39  1  0  0  0  0
 33 36  1  0  0  0  0
 33 37  1  0  0  0  0
 33 38  1  0  0  0  0
 39 40  1  0  0  0  0
 39 41  1  0  0  0  0
 40 42  1  0  0  0  0
 40 43  1  0  0  0  0
 40 44  1  0  0  0  0
M  CHG  1  23  -1
M  END
$$$$

  -OEChem-05262215553D

 44 43  0     1  0  0  0  0  0999 V2000
   -3.1390   -0.9573   -1.5319 C   0  0  0  0  0  0  0  0  0  0  0  0
   -2.5993   -2.0518   -1.4291 O   0  0  0  0  0  0  0  0  0  0  0  0
   -4.1286   -0.4972   -0.4770 C   0  0  0  0  0  0  0  0  0  0  0  0
   -4.9178    0.0988   -0.9420 H   0  0  0  0  0  0  0  0  0  0  0  0
   -4.5826   -1.3593    0.0184 H   0  0  0  0  0  0  0  0  0  0  0  0
   -3.6214    0.1183    0.2697 H   0  0  0  0  0  0  0  0  0  0  0  0
   -2.7743   -0.1191   -2.5612 N   0  0  0  0  0  0  0  0  0  0  0  0
   -1.7788   -0.4642   -3.5910 C   0  0  2  0  0  0  0  0  0  0  0  0
   -0.3169   -0.3240   -3.1018 C   0  0  0  0  0  0  0  0  0  0  0  0
    0.5870    0.0202   -3.8539 O   0  0  0  0  0  0  0  0  0  0  0  0
   -2.0678    0.4345   -4.7984 C   0  0  0  0  0  0  0  0  0  0  0  0
   -2.8991    0.8810   -2.3501 H   0  0  0  0  0  0  0  0  0  0  0  0
   -1.9166   -1.5054   -3.8980 H   0  0  0  0  0  0  0  0  0  0  0  0
   -1.9001    1.4851   -4.5371 H   0  0  0  0  0  0  0  0  0  0  0  0
   -1.4100    0.1761   -5.6340 H   0  0  0  0  0  0  0  0  0  0  0  0
   -3.1048    0.3147   -5.1250 H   0  0  0  0  0  0  0  0  0  0  0  0
    0.0496   -0.7957   -1.8581 N   0  0  0  0  0  0  0  0  0  0  0  0
    0.6604    0.1223   -0.8790 C   0  0  2  0  0  0  0  0  0  0  0  0
    1.3234   -0.7009    0.2512 C   0  0  0  0  0  0  0  0  0  0  0  0
    2.4822   -1.0888    0.1508 O   0  0  0  0  0  0  0  0  0  0  0  0
   -0.4351    1.0184   -0.2305 C   0  0  0  0  0  0  0  0  0  0  0  0
   -1.0997    2.0644   -1.1188 C   0  0  0  0  0  0  0  0  0  0  0  0
   -0.4625    2.5624   -2.0682 O   0  5  0  0  0  0  0  0  0  0  0  0
   -2.3367    2.2082   -0.9446 O   0  0  0  0  0  0  0  0  0  0  0  0
   -0.7030   -1.3666   -1.4695 H   0  0  0  0  0  0  0  0  0  0  0  0
    1.4241    0.7459   -1.3598 H   0  0  0  0  0  0  0  0  0  0  0  0
    0.0210    1.5700    0.5963 H   0  0  0  0  0  0  0  0  0  0  0  0
   -1.2191    0.3824    0.1865 H   0  0  0  0  0  0  0  0  0  0  0  0
    0.6263   -1.0678    1.3913 N   0  0  0  0  0  0  0  0  0  0  0  0
    1.1888   -1.8364    2.5127 C   0  0  2  0  0  0  0  0  0  0  0  0
    1.2968   -3.3551    2.2187 C   0  0  0  0  0  0  0  0  0  0  0  0
    0.8485   -4.1969    2.9913 O   0  0  0  0  0  0  0  0  0  0  0  0
    0.3240   -1.5281    3.7413 C   0  0  0  0  0  0  0  0  0  0  0  0
   -0.3490   -0.7864    1.4338 H   0  0  0  0  0  0  0  0  0  0  0  0
    2.2034   -1.4796    2.7187 H   0  0  0  0  0  0  0  0  0  0  0  0
   -0.7004   -1.8826    3.5879 H   0  0  0  0  0  0  0  0  0  0  0  0
    0.7330   -2.0221    4.6284 H   0  0  0  0  0  0  0  0  0  0  0  0
    0.2986   -0.4503    3.9289 H   0  0  0  0  0  0  0  0  0  0  0  0
    1.9439   -3.7757    1.0737 N   0  0  0  0  0  0  0  0  0  0  0  0
    2.0762   -5.1650    0.6641 C   0  0  0  0  0  0  0  0  0  0  0  0
    2.3068   -3.0342    0.4664 H   0  0  0  0  0  0  0  0  0  0  0  0
    2.6377   -5.7327    1.4130 H   0  0  0  0  0  0  0  0  0  0  0  0
    1.0893   -5.6217    0.5379 H   0  0  0  0  0  0  0  0  0  0  0  0
    2.6099   -5.2250   -0.2892 H   0  0  0  0  0  0  0  0  0  0  0  0
  1  2  2  0  0  0  0
  1  3  1  0  0  0  0
  1  7  1  0  0  0  0
  3  4  1  0  0  0  0
  3  5  1  0  0  0  0
  3  6  1  0  0  0  0
  7  8  1  0  0  0  0
  7 12  1  0  0  0  0
  8  9  1  0  0  0  0
  8 11  1  0  0  0  0
  8 13  1  0  0  0  0
  9 10  2  0  0  0  0
  9 17  1  0  0  0  0
 11 14  1  0  0  0  0
 11 15  1  0  0  0  0
 11 16  1  0  0  0  0
 17 18  1  0  0  0  0
 17 25  1  0  0  0  0
 18 19  1  0  0  0  0
 18 21  1  0  0  0  0
 18 26  1  0  0  0  0
 19 20  2  0  0  0  0
 19 29  1  0  0  0  0
 21 22  1  0  0  0  0
 21 27  1  0  0  0  0
 21 28  1  0  0  0  0
 22 23  1  0  0  0  0
 22 24  2  0  0  0  0
 29 30  1  0  0  0  0
 29 34  1  0  0  0  0
 30 31  1  0  0  0  0
 30 33  1  0  0  0  0
 30 35  1  0  0  0  0
 31 32  2  0  0  0  0
 31 39  1  0  0  0  0
 33 36  1  0  0  0  0
 33 37  1  0  0  0  0
 33 38  1  0  0  0  0
 39 40  1  0  0  0  0
 39 41  1  0  0  0  0
 40 42  1  0  0  0  0
 40 43  1  0  0  0  0
 40 44  1  0  0  0  0
M  CHG  1  23  -1
M  END
$$$$

  -OEChem-05262215553D

 44 43  0     1  0  0  0  0  0999 V2000
   -3.2472   -0.8581   -1.6021 C   0  0  0  0  0  0  0  0  0  0  0  0
   -2.7257   -1.9650   -1.5461 O   0  0  0  0  0  0  0  0  0  0  0  0
   -4.2221   -0.4254   -0.5218 C   0  0  0  0  0  0  0  0  0  0  0  0
   -5.0789    0.0789   -0.9751 H   0  0  0  0  0  0  0  0  0  0  0  0
   -4.5798   -1.2938    0.0373 H   0  0  0  0  0  0  0  0  0  0  0  0
   -3.7350    0.2660    0.1700 H   0  0  0  0  0  0  0  0  0  0  0  0
   -2.8796    0.0130   -2.6031 N   0  0  0  0  0  0  0  0  0  0  0  0
   -1.9176   -0.3114   -3.6719 C   0  0  2  0  0  0  0  0  0  0  0  0
   -0.4403   -0.2661   -3.2106 C   0  0  0  0  0  0  0  0  0  0  0  0
    0.4667    0.0501   -3.9710 O   0  0  0  0  0  0  0  0  0  0  0  0
   -2.1868    0.6725   -4.8164 C   0  0  0  0  0  0  0  0  0  0  0  0
   -2.9725    1.0062   -2.3474 H   0  0  0  0  0  0  0  0  0  0  0  0
   -2.1086   -1.3247   -4.0375 H   0  0  0  0  0  0  0  0  0  0  0  0
   -1.9582    1.6958   -4.4984 H   0  0  0  0  0  0  0  0  0  0  0  0
   -1.5626    0.4323   -5.6826 H   0  0  0  0  0  0  0  0  0  0  0  0
   -3.2358    0.6263   -5.1229 H   0  0  0  0  0  0  0  0  0  0  0  0
   -0.0760   -0.8050   -1.9944 N   0  0  0  0  0  0  0  0  0  0  0  0
    0.5872    0.0459   -0.9897 C   0  0  2  0  0  0  0  0  0  0  0  0
    1.2302   -0.8482    0.0934 C   0  0  0  0  0  0  0  0  0  0  0  0
    2.4405   -1.0430    0.1194 O   0  0  0  0  0  0  0  0  0  0  0  0
   -0.4541    0.9538   -0.2757 C   0  0  0  0  0  0  0  0  0  0  0  0
   -1.0915    2.0621   -1.1068 C   0  0  0  0  0  0  0  0  0  0  0  0
   -0.4515    2.5707   -2.0489 O   0  5  0  0  0  0  0  0  0  0  0  0
   -2.3181    2.2502   -0.9038 O   0  0  0  0  0  0  0  0  0  0  0  0
   -0.8500   -1.3551   -1.6185 H   0  0  0  0  0  0  0  0  0  0  0  0
    1.3673    0.6588   -1.4584 H   0  0  0  0  0  0  0  0  0  0  0  0
    0.0441    1.4487    0.5621 H   0  0  0  0  0  0  0  0  0  0  0  0
   -1.2537    0.3347    0.1367 H   0  0  0  0  0  0  0  0  0  0  0  0
    0.4551   -1.4758    1.0553 N   0  0  0  0  0  0  0  0  0  0  0  0
    0.9820   -2.3106    2.1459 C   0  0  2  0  0  0  0  0  0  0  0  0
    1.3759   -3.7386    1.6874 C   0  0  0  0  0  0  0  0  0  0  0  0
    0.9681   -4.7400    2.2682 O   0  0  0  0  0  0  0  0  0  0  0  0
   -0.0763   -2.3137    3.2561 C   0  0  0  0  0  0  0  0  0  0  0  0
   -0.5505   -1.3518    0.9784 H   0  0  0  0  0  0  0  0  0  0  0  0
    1.8878   -1.8443    2.5473 H   0  0  0  0  0  0  0  0  0  0  0  0
   -0.9983   -2.7890    2.9059 H   0  0  0  0  0  0  0  0  0  0  0  0
    0.2894   -2.8656    4.1279 H   0  0  0  0  0  0  0  0  0  0  0  0
   -0.3057   -1.2903    3.5683 H   0  0  0  0  0  0  0  0  0  0  0  0
    2.2362   -3.8900    0.6181 N   0  0  0  0  0  0  0  0  0  0  0  0
    2.6439   -5.1709    0.0624 C   0  0  0  0  0  0  0  0  0  0  0  0
    2.5478   -3.0235    0.1685 H   0  0  0  0  0  0  0  0  0  0  0  0
    3.1287   -5.7847    0.8284 H   0  0  0  0  0  0  0  0  0  0  0  0
    1.7758   -5.7109   -0.3290 H   0  0  0  0  0  0  0  0  0  0  0  0
    3.3535   -5.0148   -0.7557 H   0  0  0  0  0  0  0  0  0  0  0  0
  1  2  2  0  0  0  0
  1  3  1  0  0  0  0
  1  7  1  0  0  0  0
  3  4  1  0  0  0  0
  3  5  1  0  0  0  0
  3  6  1  0  0  0  0
  7  8  1  0  0  0  0
  7 12  1  0  0  0  0
  8  9  1  0  0  0  0
  8 11  1  0  0  0  0
  8 13  1  0  0  0  0
  9 10  2  0  0  0  0
  9 17  1  0  0  0  0
 11 14  1  0  0  0  0
 11 15  1  0  0  0  0
 11 16  1  0  0  0  0
 17 18  1  0  0  0  0
 17 25  1  0  0  0  0
 18 19  1  0  0  0  0
 18 21  1  0  0  0  0
 18 26  1  0  0  0  0
 19 20  2  0  0  0  0
 19 29  1  0  0  0  0
 21 22  1  0  0  0  0
 21 27  1  0  0  0  0
 21 28  1  0  0  0  0
 22 23  1  0  0  0  0
 22 24  2  0  0  0  0
 29 30  1  0  0  0  0
 29 34  1  0  0  0  0
 30 31  1  0  0  0  0
 30 33  1  0  0  0  0
 30 35  1  0  0  0  0
 31 32  2  0  0  0  0
 31 39  1  0  0  0  0
 33 36  1  0  0  0  0
 33 37  1  0  0  0  0
 33 38  1  0  0  0  0
 39 40  1  0  0  0  0
 39 41  1  0  0  0  0
 40 42  1  0  0  0  0
 40 43  1  0  0  0  0
 40 44  1  0  0  0  0
M  CHG  1  23  -1
M  END
$$$$

  -OEChem-05262215553D

 44 43  0     1  0  0  0  0  0999 V2000
   -3.3576   -0.8056   -1.6027 C   0  0  0  0  0  0  0  0  0  0  0  0
   -2.8402   -1.9164   -1.5824 O   0  0  0  0  0  0  0  0  0  0  0  0
   -4.2641   -0.3734   -0.4645 C   0  0  0  0  0  0  0  0  0  0  0  0
   -3.7177    0.2715    0.2278 H   0  0  0  0  0  0  0  0  0  0  0  0
   -5.1172    0.1828   -0.8608 H   0  0  0  0  0  0  0  0  0  0  0  0
   -4.6332   -1.2464    0.0796 H   0  0  0  0  0  0  0  0  0  0  0  0
   -3.0410    0.0723   -2.6155 N   0  0  0  0  0  0  0  0  0  0  0  0
   -2.1525   -0.2462   -3.7486 C   0  0  2  0  0  0  0  0  0  0  0  0
   -0.6484   -0.2378   -3.3805 C   0  0  0  0  0  0  0  0  0  0  0  0
    0.2203    0.0676   -4.1884 O   0  0  0  0  0  0  0  0  0  0  0  0
   -2.4717    0.7686   -4.8518 C   0  0  0  0  0  0  0  0  0  0  0  0
   -3.1034    1.0624   -2.3393 H   0  0  0  0  0  0  0  0  0  0  0  0
   -2.3868   -1.2474   -4.1224 H   0  0  0  0  0  0  0  0  0  0  0  0
   -2.2021    1.7795   -4.5261 H   0  0  0  0  0  0  0  0  0  0  0  0
   -1.9078    0.5361   -5.7605 H   0  0  0  0  0  0  0  0  0  0  0  0
   -3.5385    0.7504   -5.0928 H   0  0  0  0  0  0  0  0  0  0  0  0
   -0.2331   -0.8066   -2.1958 N   0  0  0  0  0  0  0  0  0  0  0  0
    0.5090    0.0042   -1.2144 C   0  0  2  0  0  0  0  0  0  0  0  0
    1.1794   -0.9314   -0.1877 C   0  0  0  0  0  0  0  0  0  0  0  0
    2.3940   -0.9330   -0.0194 O   0  0  0  0  0  0  0  0  0  0  0  0
   -0.4638    0.9116   -0.4126 C   0  0  0  0  0  0  0  0  0  0  0  0
   -1.1276    2.0527   -1.1768 C   0  0  0  0  0  0  0  0  0  0  0  0
   -0.5353    2.5700   -2.1454 O   0  5  0  0  0  0  0  0  0  0  0  0
   -2.3380    2.2545   -0.9013 O   0  0  0  0  0  0  0  0  0  0  0  0
   -1.0044   -1.3369   -1.7891 H   0  0  0  0  0  0  0  0  0  0  0  0
    1.2767    0.6093   -1.7122 H   0  0  0  0  0  0  0  0  0  0  0  0
    0.0992    1.3762    0.4013 H   0  0  0  0  0  0  0  0  0  0  0  0
   -1.2447    0.2965    0.0402 H   0  0  0  0  0  0  0  0  0  0  0  0
    0.4108   -1.7823    0.5909 N   0  0  0  0  0  0  0  0  0  0  0  0
    0.9326   -2.6297    1.6742 C   0  0  2  0  0  0  0  0  0  0  0  0
    1.6316   -3.9169    1.1653 C   0  0  0  0  0  0  0  0  0  0  0  0
    1.3695   -5.0224    1.6297 O   0  0  0  0  0  0  0  0  0  0  0  0
   -0.2442   -2.9219    2.6134 C   0  0  0  0  0  0  0  0  0  0  0  0
   -0.5874   -1.7993    0.3982 H   0  0  0  0  0  0  0  0  0  0  0  0
    1.6806   -2.0648    2.2403 H   0  0  0  0  0  0  0  0  0  0  0  0
   -1.0127   -3.5052    2.0958 H   0  0  0  0  0  0  0  0  0  0  0  0
    0.0964   -3.4904    3.4845 H   0  0  0  0  0  0  0  0  0  0  0  0
   -0.6913   -1.9875    2.9664 H   0  0  0  0  0  0  0  0  0  0  0  0
    2.6077   -3.8166    0.1938 N   0  0  0  0  0  0  0  0  0  0  0  0
    3.3388   -4.9447   -0.3614 C   0  0  0  0  0  0  0  0  0  0  0  0
    2.8145   -2.8693   -0.1368 H   0  0  0  0  0  0  0  0  0  0  0  0
    3.9248   -5.4416    0.4184 H   0  0  0  0  0  0  0  0  0  0  0  0
    2.6470   -5.6694   -0.8028 H   0  0  0  0  0  0  0  0  0  0  0  0
    4.0224   -4.5995   -1.1429 H   0  0  0  0  0  0  0  0  0  0  0  0
  1  2  2  0  0  0  0
  1  3  1  0  0  0  0
  1  7  1  0  0  0  0
  3  4  1  0  0  0  0
  3  5  1  0  0  0  0
  3  6  1  0  0  0  0
  7  8  1  0  0  0  0
  7 12  1  0  0  0  0
  8  9  1  0  0  0  0
  8 11  1  0  0  0  0
  8 13  1  0  0  0  0
  9 10  2  0  0  0  0
  9 17  1  0  0  0  0
 11 14  1  0  0  0  0
 11 15  1  0  0  0  0
 11 16  1  0  0  0  0
 17 18  1  0  0  0  0
 17 25  1  0  0  0  0
 18 19  1  0  0  0  0
 18 21  1  0  0  0  0
 18 26  1  0  0  0  0
 19 20  2  0  0  0  0
 19 29  1  0  0  0  0
 21 22  1  0  0  0  0
 21 27  1  0  0  0  0
 21 28  1  0  0  0  0
 22 23  1  0  0  0  0
 22 24  2  0  0  0  0
 29 30  1  0  0  0  0
 29 34  1  0  0  0  0
 30 31  1  0  0  0  0
 30 33  1  0  0  0  0
 30 35  1  0  0  0  0
 31 32  2  0  0  0  0
 31 39  1  0  0  0  0
 33 36  1  0  0  0  0
 33 37  1  0  0  0  0
 33 38  1  0  0  0  0
 39 40  1  0  0  0  0
 39 41  1  0  0  0  0
 40 42  1  0  0  0  0
 40 43  1  0  0  0  0
 40 44  1  0  0  0  0
M  CHG  1  23  -1
M  END
$$$$

  -OEChem-05262215553D

 44 43  0     1  0  0  0  0  0999 V2000
   -3.4047   -0.7368   -1.7144 C   0  0  0  0  0  0  0  0  0  0  0  0
   -2.8929   -1.8473   -1.8044 O   0  0  0  0  0  0  0  0  0  0  0  0
   -4.2695   -0.4009   -0.5133 C   0  0  0  0  0  0  0  0  0  0  0  0
   -5.1315    0.1910   -0.8305 H   0  0  0  0  0  0  0  0  0  0  0  0
   -4.6264   -1.3160   -0.0340 H   0  0  0  0  0  0  0  0  0  0  0  0
   -3.6954    0.1789    0.2135 H   0  0  0  0  0  0  0  0  0  0  0  0
   -3.1059    0.2271   -2.6526 N   0  0  0  0  0  0  0  0  0  0  0  0
   -2.2422    0.0121   -3.8294 C   0  0  2  0  0  0  0  0  0  0  0  0
   -0.7315   -0.0258   -3.4920 C   0  0  0  0  0  0  0  0  0  0  0  0
    0.1294    0.3224   -4.2910 O   0  0  0  0  0  0  0  0  0  0  0  0
   -2.5718    1.1303   -4.8238 C   0  0  0  0  0  0  0  0  0  0  0  0
   -3.1574    1.1888   -2.2873 H   0  0  0  0  0  0  0  0  0  0  0  0
   -2.4926   -0.9473   -4.2922 H   0  0  0  0  0  0  0  0  0  0  0  0
   -2.2904    2.1031   -4.4058 H   0  0  0  0  0  0  0  0  0  0  0  0
   -2.0242    0.9838   -5.7597 H   0  0  0  0  0  0  0  0  0  0  0  0
   -3.6424    1.1409   -5.0477 H   0  0  0  0  0  0  0  0  0  0  0  0
   -0.3128   -0.6896   -2.3599 N   0  0  0  0  0  0  0  0  0  0  0  0
    0.4646    0.0251   -1.3319 C   0  0  2  0  0  0  0  0  0  0  0  0
    1.1263   -0.9994   -0.3875 C   0  0  0  0  0  0  0  0  0  0  0  0
    2.2850   -0.8665   -0.0083 O   0  0  0  0  0  0  0  0  0  0  0  0
   -0.4822    0.8693   -0.4384 C   0  0  0  0  0  0  0  0  0  0  0  0
   -1.1471    2.0753   -1.0943 C   0  0  0  0  0  0  0  0  0  0  0  0
   -0.5652    2.6638   -2.0285 O   0  5  0  0  0  0  0  0  0  0  0  0
   -2.3527    2.2603   -0.7875 O   0  0  0  0  0  0  0  0  0  0  0  0
   -1.0981   -1.2190   -1.9816 H   0  0  0  0  0  0  0  0  0  0  0  0
    1.2351    0.6570   -1.7900 H   0  0  0  0  0  0  0  0  0  0  0  0
    0.1009    1.2610    0.3998 H   0  0  0  0  0  0  0  0  0  0  0  0
   -1.2569    0.2220   -0.0203 H   0  0  0  0  0  0  0  0  0  0  0  0
    0.3983   -2.0758    0.0962 N   0  0  0  0  0  0  0  0  0  0  0  0
    0.8754   -3.0229    1.1149 C   0  0  2  0  0  0  0  0  0  0  0  0
    1.8520   -4.0885    0.5544 C   0  0  0  0  0  0  0  0  0  0  0  0
    1.6835   -5.2884    0.7507 O   0  0  0  0  0  0  0  0  0  0  0  0
   -0.3707   -3.6385    1.7639 C   0  0  0  0  0  0  0  0  0  0  0  0
   -0.5487   -2.1834   -0.2581 H   0  0  0  0  0  0  0  0  0  0  0  0
    1.4176   -2.4706    1.8892 H   0  0  0  0  0  0  0  0  0  0  0  0
   -0.9448   -4.2114    1.0282 H   0  0  0  0  0  0  0  0  0  0  0  0
   -0.0827   -4.3100    2.5789 H   0  0  0  0  0  0  0  0  0  0  0  0
   -1.0130   -2.8537    2.1751 H   0  0  0  0  0  0  0  0  0  0  0  0
    2.9669   -3.6777   -0.1490 N   0  0  0  0  0  0  0  0  0  0  0  0
    3.9344   -4.5767   -0.7590 C   0  0  0  0  0  0  0  0  0  0  0  0
    3.0599   -2.6669   -0.2884 H   0  0  0  0  0  0  0  0  0  0  0  0
    4.3724   -5.2378   -0.0044 H   0  0  0  0  0  0  0  0  0  0  0  0
    3.4545   -5.1867   -1.5311 H   0  0  0  0  0  0  0  0  0  0  0  0
    4.7407   -4.0008   -1.2232 H   0  0  0  0  0  0  0  0  0  0  0  0
  1  2  2  0  0  0  0
  1  3  1  0  0  0  0
  1  7  1  0  0  0  0
  3  4  1  0  0  0  0
  3  5  1  0  0  0  0
  3  6  1  0  0  0  0
  7  8  1  0  0  0  0
  7 12  1  0  0  0  0
  8  9  1  0  0  0  0
  8 11  1  0  0  0  0
  8 13  1  0  0  0  0
  9 10  2  0  0  0  0
  9 17  1  0  0  0  0
 11 14  1  0  0  0  0
 11 15  1  0  0  0  0
 11 16  1  0  0  0  0
 17 18  1  0  0  0  0
 17 25  1  0  0  0  0
 18 19  1  0  0  0  0
 18 21  1  0  0  0  0
 18 26  1  0  0  0  0
 19 20  2  0  0  0  0
 19 29  1  0  0  0  0
 21 22  1  0  0  0  0
 21 27  1  0  0  0  0
 21 28  1  0  0  0  0
 22 23  1  0  0  0  0
 22 24  2  0  0  0  0
 29 30  1  0  0  0  0
 29 34  1  0  0  0  0
 30 31  1  0  0  0  0
 30 33  1  0  0  0  0
 30 35  1  0  0  0  0
 31 32  2  0  0  0  0
 31 39  1  0  0  0  0
 33 36  1  0  0  0  0
 33 37  1  0  0  0  0
 33 38  1  0  0  0  0
 39 40  1  0  0  0  0
 39 41  1  0  0  0  0
 40 42  1  0  0  0  0
 40 43  1  0  0  0  0
 40 44  1  0  0  0  0
M  CHG  1  23  -1
M  END
$$$$

  -OEChem-05262215553D

 44 43  0     1  0  0  0  0  0999 V2000
   -4.7610    0.2420   -2.6062 C   0  0  0  0  0  0  0  0  0  0  0  0
   -5.1614   -0.8159   -3.0789 O   0  0  0  0  0  0  0  0  0  0  0  0
   -5.6996    1.0929   -1.7704 C   0  0  0  0  0  0  0  0  0  0  0  0
   -5.3280    2.1197   -1.7129 H   0  0  0  0  0  0  0  0  0  0  0  0
   -6.6976    1.1010   -2.2144 H   0  0  0  0  0  0  0  0  0  0  0  0
   -5.7577    0.6884   -0.7567 H   0  0  0  0  0  0  0  0  0  0  0  0
   -3.4833    0.6792   -2.8824 N   0  0  0  0  0  0  0  0  0  0  0  0
   -2.4590   -0.1302   -3.5514 C   0  0  2  0  0  0  0  0  0  0  0  0
   -1.0485    0.2968   -3.0884 C   0  0  0  0  0  0  0  0  0  0  0  0
   -0.4176    1.1606   -3.6860 O   0  0  0  0  0  0  0  0  0  0  0  0
   -2.6327    0.0092   -5.0700 C   0  0  0  0  0  0  0  0  0  0  0  0
   -3.1608    1.4870   -2.3290 H   0  0  0  0  0  0  0  0  0  0  0  0
   -2.5898   -1.1829   -3.2833 H   0  0  0  0  0  0  0  0  0  0  0  0
   -2.5584    1.0599   -5.3685 H   0  0  0  0  0  0  0  0  0  0  0  0
   -1.8584   -0.5583   -5.5947 H   0  0  0  0  0  0  0  0  0  0  0  0
   -3.6113   -0.3712   -5.3775 H   0  0  0  0  0  0  0  0  0  0  0  0
   -0.3488   -0.4077   -2.1246 N   0  0  0  0  0  0  0  0  0  0  0  0
    0.1915    0.3488   -0.9752 C   0  0  2  0  0  0  0  0  0  0  0  0
    1.2546   -0.4806   -0.2153 C   0  0  0  0  0  0  0  0  0  0  0  0
    2.1542    0.0748    0.4054 O   0  0  0  0  0  0  0  0  0  0  0  0
   -0.9211    0.5268    0.0953 C   0  0  0  0  0  0  0  0  0  0  0  0
   -2.0901    1.4395   -0.2427 C   0  0  0  0  0  0  0  0  0  0  0  0
   -1.9325    2.4008   -1.0271 O   0  5  0  0  0  0  0  0  0  0  0  0
   -3.2016    1.0841    0.2114 O   0  0  0  0  0  0  0  0  0  0  0  0
   -0.8856   -1.2168   -1.8344 H   0  0  0  0  0  0  0  0  0  0  0  0
    0.6126    1.3140   -1.2819 H   0  0  0  0  0  0  0  0  0  0  0  0
   -0.4660    0.9476    0.9967 H   0  0  0  0  0  0  0  0  0  0  0  0
   -1.3229   -0.4568    0.3590 H   0  0  0  0  0  0  0  0  0  0  0  0
    1.1901   -1.8643   -0.1798 N   0  0  0  0  0  0  0  0  0  0  0  0
    2.2278   -2.7310    0.3926 C   0  0  2  0  0  0  0  0  0  0  0  0
    2.6608   -3.8302   -0.5988 C   0  0  0  0  0  0  0  0  0  0  0  0
    1.8651   -4.2710   -1.4223 O   0  0  0  0  0  0  0  0  0  0  0  0
    1.6687   -3.3521    1.6740 C   0  0  0  0  0  0  0  0  0  0  0  0
    0.5623   -2.2978   -0.8506 H   0  0  0  0  0  0  0  0  0  0  0  0
    3.1198   -2.1481    0.6428 H   0  0  0  0  0  0  0  0  0  0  0  0
    0.7823   -3.9551    1.4524 H   0  0  0  0  0  0  0  0  0  0  0  0
    2.4183   -3.9935    2.1471 H   0  0  0  0  0  0  0  0  0  0  0  0
    1.3876   -2.5661    2.3822 H   0  0  0  0  0  0  0  0  0  0  0  0
    3.9473   -4.3373   -0.5562 N   0  0  0  0  0  0  0  0  0  0  0  0
    4.4533   -5.3106   -1.5152 C   0  0  0  0  0  0  0  0  0  0  0  0
    4.6010   -3.8886    0.0792 H   0  0  0  0  0  0  0  0  0  0  0  0
    3.8458   -6.2215   -1.4952 H   0  0  0  0  0  0  0  0  0  0  0  0
    4.4344   -4.8952   -2.5283 H   0  0  0  0  0  0  0  0  0  0  0  0
    5.4852   -5.5793   -1.2702 H   0  0  0  0  0  0  0  0  0  0  0  0
  1  2  2  0  0  0  0
  1  3  1  0  0  0  0
  1  7  1  0  0  0  0
  3  4  1  0  0  0  0
  3  5  1  0  0  0  0
  3  6  1  0  0  0  0
  7  8  1  0  0  0  0
  7 12  1  0  0  0  0
  8  9  1  0  0  0  0
  8 11  1  0  0  0  0
  8 13  1  0  0  0  0
  9 10  2  0  0  0  0
  9 17  1  0  0  0  0
 11 14  1  0  0  0  0
 11 15  1  0  0  0  0
 11 16  1  0  0  0  0
 17 18  1  0  0  0  0
 17 25  1  0  0  0  0
 18 19  1  0  0  0  0
 18 21  1  0  0  0  0
 18 26  1  0  0  0  0
 19 20  2  0  0  0  0
 19 29  1  0  0  0  0
 21 22  1  0  0  0  0
 21 27  1  0  0  0  0
 21 28  1  0  0  0  0
 22 23  1  0  0  0  0
 22 24  2  0  0  0  0
 29 30  1  0  0  0  0
 29 34  1  0  0  0  0
 30 31  1  0  0  0  0
 30 33  1  0  0  0  0
 30 35  1  0  0  0  0
 31 32  2  0  0  0  0
 31 39  1  0  0  0  0
 33 36  1  0  0  0  0
 33 37  1  0  0  0  0
 33 38  1  0  0  0  0
 39 40  1  0  0  0  0
 39 41  1  0  0  0  0
 40 42  1  0  0  0  0
 40 43  1  0  0  0  0
 40 44  1  0  0  0  0
M  CHG  1  23  -1
M  END
$$$$

  -OEChem-05262215553D

 44 43  0     1  0  0  0  0  0999 V2000
   -4.7859    0.0067   -2.5796 C   0  0  0  0  0  0  0  0  0  0  0  0
   -5.0787   -1.0361   -3.1536 O   0  0  0  0  0  0  0  0  0  0  0  0
   -5.7858    0.6464   -1.6344 C   0  0  0  0  0  0  0  0  0  0  0  0
   -5.5114    1.6876   -1.4427 H   0  0  0  0  0  0  0  0  0  0  0  0
   -6.7877    0.6178   -2.0688 H   0  0  0  0  0  0  0  0  0  0  0  0
   -5.7878    0.1085   -0.6829 H   0  0  0  0  0  0  0  0  0  0  0  0
   -3.5769    0.6172   -2.8362 N   0  0  0  0  0  0  0  0  0  0  0  0
   -2.5033    0.0254   -3.6418 C   0  0  2  0  0  0  0  0  0  0  0  0
   -1.1212    0.5174   -3.1554 C   0  0  0  0  0  0  0  0  0  0  0  0
   -0.5445    1.4467   -3.7084 O   0  0  0  0  0  0  0  0  0  0  0  0
   -2.7571    0.3686   -5.1163 C   0  0  0  0  0  0  0  0  0  0  0  0
   -3.3329    1.4058   -2.2192 H   0  0  0  0  0  0  0  0  0  0  0  0
   -2.5187   -1.0633   -3.5333 H   0  0  0  0  0  0  0  0  0  0  0  0
   -2.7883    1.4540   -5.2564 H   0  0  0  0  0  0  0  0  0  0  0  0
   -1.9606   -0.0415   -5.7441 H   0  0  0  0  0  0  0  0  0  0  0  0
   -3.7113   -0.0523   -5.4470 H   0  0  0  0  0  0  0  0  0  0  0  0
   -0.3627   -0.2049   -2.2504 N   0  0  0  0  0  0  0  0  0  0  0  0
    0.1673    0.5070   -1.0675 C   0  0  2  0  0  0  0  0  0  0  0  0
    1.2900   -0.3146   -0.3864 C   0  0  0  0  0  0  0  0  0  0  0  0
    2.0243    0.1901    0.4565 O   0  0  0  0  0  0  0  0  0  0  0  0
   -0.9342    0.5540    0.0290 C   0  0  0  0  0  0  0  0  0  0  0  0
   -2.1567    1.4202   -0.2323 C   0  0  0  0  0  0  0  0  0  0  0  0
   -2.0649    2.4363   -0.9547 O   0  5  0  0  0  0  0  0  0  0  0  0
   -3.2415    0.9712    0.2039 O   0  0  0  0  0  0  0  0  0  0  0  0
   -0.8524   -1.0553   -1.9928 H   0  0  0  0  0  0  0  0  0  0  0  0
    0.5309    1.5105   -1.3184 H   0  0  0  0  0  0  0  0  0  0  0  0
   -0.4904    0.9420    0.9503 H   0  0  0  0  0  0  0  0  0  0  0  0
   -1.2741   -0.4659    0.2338 H   0  0  0  0  0  0  0  0  0  0  0  0
    1.4735   -1.6538   -0.6873 N   0  0  0  0  0  0  0  0  0  0  0  0
    2.5567   -2.4838   -0.1473 C   0  0  2  0  0  0  0  0  0  0  0  0
    3.0333   -3.5433   -1.1618 C   0  0  0  0  0  0  0  0  0  0  0  0
    2.3227   -3.8674   -2.1079 O   0  0  0  0  0  0  0  0  0  0  0  0
    2.0522   -3.1546    1.1335 C   0  0  0  0  0  0  0  0  0  0  0  0
    1.0113   -1.9935   -1.5283 H   0  0  0  0  0  0  0  0  0  0  0  0
    3.4206   -1.8548    0.0918 H   0  0  0  0  0  0  0  0  0  0  0  0
    1.1903   -3.7934    0.9163 H   0  0  0  0  0  0  0  0  0  0  0  0
    2.8388   -3.7685    1.5819 H   0  0  0  0  0  0  0  0  0  0  0  0
    1.7484   -2.3965    1.8623 H   0  0  0  0  0  0  0  0  0  0  0  0
    4.2742   -4.1365   -1.0119 N   0  0  0  0  0  0  0  0  0  0  0  0
    4.8191   -5.1019   -1.9568 C   0  0  0  0  0  0  0  0  0  0  0  0
    4.8603   -3.8057   -0.2510 H   0  0  0  0  0  0  0  0  0  0  0  0
    4.1510   -5.9643   -2.0520 H   0  0  0  0  0  0  0  0  0  0  0  0
    4.9462   -4.6423   -2.9424 H   0  0  0  0  0  0  0  0  0  0  0  0
    5.7945   -5.4574   -1.6120 H   0  0  0  0  0  0  0  0  0  0  0  0
  1  2  2  0  0  0  0
  1  3  1  0  0  0  0
  1  7  1  0  0  0  0
  3  4  1  0  0  0  0
  3  5  1  0  0  0  0
  3  6  1  0  0  0  0
  7  8  1  0  0  0  0
  7 12  1  0  0  0  0
  8  9  1  0  0  0  0
  8 11  1  0  0  0  0
  8 13  1  0  0  0  0
  9 10  2  0  0  0  0
  9 17  1  0  0  0  0
 11 14  1  0  0  0  0
 11 15  1  0  0  0  0
 11 16  1  0  0  0  0
 17 18  1  0  0  0  0
 17 25  1  0  0  0  0
 18 19  1  0  0  0  0
 18 21  1  0  0  0  0
 18 26  1  0  0  0  0
 19 20  2  0  0  0  0
 19 29  1  0  0  0  0
 21 22  1  0  0  0  0
 21 27  1  0  0  0  0
 21 28  1  0  0  0  0
 22 23  1  0  0  0  0
 22 24  2  0  0  0  0
 29 30  1  0  0  0  0
 29 34  1  0  0  0  0
 30 31  1  0  0  0  0
 30 33  1  0  0  0  0
 30 35  1  0  0  0  0
 31 32  2  0  0  0  0
 31 39  1  0  0  0  0
 33 36  1  0  0  0  0
 33 37  1  0  0  0  0
 33 38  1  0  0  0  0
 39 40  1  0  0  0  0
 39 41  1  0  0  0  0
 40 42  1  0  0  0  0
 40 43  1  0  0  0  0
 40 44  1  0  0  0  0
M  CHG  1  23  -1
M  END
$$$$

  -OEChem-05262215553D

 44 43  0     1  0  0  0  0  0999 V2000
   -3.3330   -1.0521   -2.1676 C   0  0  0  0  0  0  0  0  0  0  0  0
   -2.5547   -1.9111   -2.5621 O   0  0  0  0  0  0  0  0  0  0  0  0
   -4.1724   -1.2980   -0.9270 C   0  0  0  0  0  0  0  0  0  0  0  0
   -5.2187   -1.0612   -1.1340 H   0  0  0  0  0  0  0  0  0  0  0  0
   -4.0993   -2.3442   -0.6191 H   0  0  0  0  0  0  0  0  0  0  0  0
   -3.8253   -0.6641   -0.1073 H   0  0  0  0  0  0  0  0  0  0  0  0
   -3.3744    0.1646   -2.8110 N   0  0  0  0  0  0  0  0  0  0  0  0
   -2.5308    0.5148   -3.9678 C   0  0  2  0  0  0  0  0  0  0  0  0
   -1.0727    0.8644   -3.5832 C   0  0  0  0  0  0  0  0  0  0  0  0
   -0.3831    1.6127   -4.2667 O   0  0  0  0  0  0  0  0  0  0  0  0
   -3.2239    1.6817   -4.6803 C   0  0  0  0  0  0  0  0  0  0  0  0
   -3.6912    0.9437   -2.2153 H   0  0  0  0  0  0  0  0  0  0  0  0
   -2.4878   -0.3333   -4.6578 H   0  0  0  0  0  0  0  0  0  0  0  0
   -3.2445    2.5639   -4.0312 H   0  0  0  0  0  0  0  0  0  0  0  0
   -2.6895    1.9412   -5.5992 H   0  0  0  0  0  0  0  0  0  0  0  0
   -4.2519    1.4142   -4.9410 H   0  0  0  0  0  0  0  0  0  0  0  0
   -0.4171    0.1515   -2.6010 N   0  0  0  0  0  0  0  0  0  0  0  0
    0.1357    0.8636   -1.4297 C   0  0  2  0  0  0  0  0  0  0  0  0
    1.1401   -0.0433   -0.6764 C   0  0  0  0  0  0  0  0  0  0  0  0
    1.7071    0.3286    0.3467 O   0  0  0  0  0  0  0  0  0  0  0  0
   -1.0178    1.1606   -0.4299 C   0  0  0  0  0  0  0  0  0  0  0  0
   -2.0602    2.1878   -0.8585 C   0  0  0  0  0  0  0  0  0  0  0  0
   -1.7295    3.1104   -1.6326 O   0  5  0  0  0  0  0  0  0  0  0  0
   -3.2517    1.9071   -0.5673 O   0  0  0  0  0  0  0  0  0  0  0  0
   -0.9831   -0.6593   -2.3428 H   0  0  0  0  0  0  0  0  0  0  0  0
    0.6380    1.7893   -1.7336 H   0  0  0  0  0  0  0  0  0  0  0  0
   -0.5840    1.5498    0.4950 H   0  0  0  0  0  0  0  0  0  0  0  0
   -1.5217    0.2229   -0.1821 H   0  0  0  0  0  0  0  0  0  0  0  0
    1.4028   -1.3238   -1.1314 N   0  0  0  0  0  0  0  0  0  0  0  0
    2.3439   -2.2605   -0.5084 C   0  0  2  0  0  0  0  0  0  0  0  0
    2.9931   -3.2181   -1.5300 C   0  0  0  0  0  0  0  0  0  0  0  0
    2.5006   -3.3893   -2.6394 O   0  0  0  0  0  0  0  0  0  0  0  0
    1.5826   -3.0540    0.5578 C   0  0  0  0  0  0  0  0  0  0  0  0
    1.0440   -1.5584   -2.0573 H   0  0  0  0  0  0  0  0  0  0  0  0
    3.1545   -1.6995   -0.0316 H   0  0  0  0  0  0  0  0  0  0  0  0
    0.7659   -3.6215    0.0997 H   0  0  0  0  0  0  0  0  0  0  0  0
    2.2516   -3.7526    1.0684 H   0  0  0  0  0  0  0  0  0  0  0  0
    1.1580   -2.3750    1.3042 H   0  0  0  0  0  0  0  0  0  0  0  0
    4.1461   -3.9059   -1.1946 N   0  0  0  0  0  0  0  0  0  0  0  0
    4.8350   -4.8081   -2.1077 C   0  0  0  0  0  0  0  0  0  0  0  0
    4.5542   -3.7165   -0.2844 H   0  0  0  0  0  0  0  0  0  0  0  0
    4.1599   -5.6026   -2.4430 H   0  0  0  0  0  0  0  0  0  0  0  0
    5.1991   -4.2606   -2.9831 H   0  0  0  0  0  0  0  0  0  0  0  0
    5.6906   -5.2707   -1.6068 H   0  0  0  0  0  0  0  0  0  0  0  0
  1  2  2  0  0  0  0
  1  3  1  0  0  0  0
  1  7  1  0  0  0  0
  3  4  1  0  0  0  0
  3  5  1  0  0  0  0
  3  6  1  0  0  0  0
  7  8  1  0  0  0  0
  7 12  1  0  0  0  0
  8  9  1  0  0  0  0
  8 11  1  0  0  0  0
  8 13  1  0  0  0  0
  9 10  2  0  0  0  0
  9 17  1  0  0  0  0
 11 14  1  0  0  0  0
 11 15  1  0  0  0  0
 11 16  1  0  0  0  0
 17 18  1  0  0  0  0
 17 25  1  0  0  0  0
 18 19  1  0  0  0  0
 18 21  1  0  0  0  0
 18 26  1  0  0  0  0
 19 20  2  0  0  0  0
 19 29  1  0  0  0  0
 21 22  1  0  0  0  0
 21 27  1  0  0  0  0
 21 28  1  0  0  0  0
 22 23  1  0  0  0  0
 22 24  2  0  0  0  0
 29 30  1  0  0  0  0
 29 34  1  0  0  0  0
 30 31  1  0  0  0  0
 30 33  1  0  0  0  0
 30 35  1  0  0  0  0
 31 32  2  0  0  0  0
 31 39  1  0  0  0  0
 33 36  1  0  0  0  0
 33 37  1  0  0  0  0
 33 38  1  0  0  0  0
 39 40  1  0  0  0  0
 39 41  1  0  0  0  0
 40 42  1  0  0  0  0
 40 43  1  0  0  0  0
 40 44  1  0  0  0  0
M  CHG  1  23  -1
M  END
$$$$

  -OEChem-05262215553D

 44 43  0     1  0  0  0  0  0999 V2000
   -3.4634   -0.9812   -2.0286 C   0  0  0  0  0  0  0  0  0  0  0  0
   -2.7347   -1.9077   -2.3612 O   0  0  0  0  0  0  0  0  0  0  0  0
   -4.2903   -1.0779   -0.7597 C   0  0  0  0  0  0  0  0  0  0  0  0
   -5.3050   -0.7195   -0.9495 H   0  0  0  0  0  0  0  0  0  0  0  0
   -4.3394   -2.1142   -0.4161 H   0  0  0  0  0  0  0  0  0  0  0  0
   -3.8439   -0.4636    0.0262 H   0  0  0  0  0  0  0  0  0  0  0  0
   -3.4650    0.1757   -2.7743 N   0  0  0  0  0  0  0  0  0  0  0  0
   -2.6282    0.3858   -3.9682 C   0  0  2  0  0  0  0  0  0  0  0  0
   -1.1543    0.7178   -3.6331 C   0  0  0  0  0  0  0  0  0  0  0  0
   -0.4531    1.3823   -4.3875 O   0  0  0  0  0  0  0  0  0  0  0  0
   -3.2916    1.5040   -4.7796 C   0  0  0  0  0  0  0  0  0  0  0  0
   -3.7355    1.0165   -2.2430 H   0  0  0  0  0  0  0  0  0  0  0  0
   -2.6235   -0.5240   -4.5761 H   0  0  0  0  0  0  0  0  0  0  0  0
   -3.2667    2.4447   -4.2187 H   0  0  0  0  0  0  0  0  0  0  0  0
   -2.7658    1.6523   -5.7277 H   0  0  0  0  0  0  0  0  0  0  0  0
   -4.3337    1.2525   -4.9972 H   0  0  0  0  0  0  0  0  0  0  0  0
   -0.4974    0.0621   -2.6123 N   0  0  0  0  0  0  0  0  0  0  0  0
    0.1021    0.8437   -1.5090 C   0  0  2  0  0  0  0  0  0  0  0  0
    1.0951   -0.0472   -0.7186 C   0  0  0  0  0  0  0  0  0  0  0  0
    1.5384    0.2721    0.3807 O   0  0  0  0  0  0  0  0  0  0  0  0
   -1.0231    1.2675   -0.5211 C   0  0  0  0  0  0  0  0  0  0  0  0
   -2.0304    2.2985   -1.0186 C   0  0  0  0  0  0  0  0  0  0  0  0
   -1.6741    3.1407   -1.8695 O   0  5  0  0  0  0  0  0  0  0  0  0
   -3.2278    2.0927   -0.6906 O   0  0  0  0  0  0  0  0  0  0  0  0
   -1.0766   -0.7121   -2.2810 H   0  0  0  0  0  0  0  0  0  0  0  0
    0.6318    1.7231   -1.8936 H   0  0  0  0  0  0  0  0  0  0  0  0
   -0.5615    1.7154    0.3624 H   0  0  0  0  0  0  0  0  0  0  0  0
   -1.5585    0.3747   -0.1893 H   0  0  0  0  0  0  0  0  0  0  0  0
    1.5302   -1.2416   -1.2663 N   0  0  0  0  0  0  0  0  0  0  0  0
    2.5364   -2.1282   -0.6698 C   0  0  2  0  0  0  0  0  0  0  0  0
    3.4870   -2.7355   -1.7220 C   0  0  0  0  0  0  0  0  0  0  0  0
    3.0986   -2.9689   -2.8609 O   0  0  0  0  0  0  0  0  0  0  0  0
    1.8003   -3.2366    0.0863 C   0  0  0  0  0  0  0  0  0  0  0  0
    1.2561   -1.4147   -2.2339 H   0  0  0  0  0  0  0  0  0  0  0  0
    3.1553   -1.5649    0.0361 H   0  0  0  0  0  0  0  0  0  0  0  0
    1.1740   -3.8162   -0.5995 H   0  0  0  0  0  0  0  0  0  0  0  0
    2.5143   -3.9134    0.5646 H   0  0  0  0  0  0  0  0  0  0  0  0
    1.1599   -2.8036    0.8612 H   0  0  0  0  0  0  0  0  0  0  0  0
    4.7890   -3.0519   -1.3760 N   0  0  0  0  0  0  0  0  0  0  0  0
    5.7627   -3.5741   -2.3257 C   0  0  0  0  0  0  0  0  0  0  0  0
    5.1011   -2.7832   -0.4477 H   0  0  0  0  0  0  0  0  0  0  0  0
    5.4050   -4.5111   -2.7653 H   0  0  0  0  0  0  0  0  0  0  0  0
    5.9386   -2.8509   -3.1291 H   0  0  0  0  0  0  0  0  0  0  0  0
    6.7135   -3.7708   -1.8212 H   0  0  0  0  0  0  0  0  0  0  0  0
  1  2  2  0  0  0  0
  1  3  1  0  0  0  0
  1  7  1  0  0  0  0
  3  4  1  0  0  0  0
  3  5  1  0  0  0  0
  3  6  1  0  0  0  0
  7  8  1  0  0  0  0
  7 12  1  0  0  0  0
  8  9  1  0  0  0  0
  8 11  1  0  0  0  0
  8 13  1  0  0  0  0
  9 10  2  0  0  0  0
  9 17  1  0  0  0  0
 11 14  1  0  0  0  0
 11 15  1  0  0  0  0
 11 16  1  0  0  0  0
 17 18  1  0  0  0  0
 17 25  1  0  0  0  0
 18 19  1  0  0  0  0
 18 21  1  0  0  0  0
 18 26  1  0  0  0  0
 19 20  2  0  0  0  0
 19 29  1  0  0  0  0
 21 22  1  0  0  0  0
 21 27  1  0  0  0  0
 21 28  1  0  0  0  0
 22 23  1  0  0  0  0
 22 24  2  0  0  0  0
 29 30  1  0  0  0  0
 29 34  1  0  0  0  0
 30 31  1  0  0  0  0
 30 33  1  0  0  0  0
 30 35  1  0  0  0  0
 31 32  2  0  0  0  0
 31 39  1  0  0  0  0
 33 36  1  0  0  0  0
 33 37  1  0  0  0  0
 33 38  1  0  0  0  0
 39 40  1  0  0  0  0
 39 41  1  0  0  0  0
 40 42  1  0  0  0  0
 40 43  1  0  0  0  0
 40 44  1  0  0  0  0
M  CHG  1  23  -1
M  END
$$$$

  -OEChem-05262215553D

 44 43  0     1  0  0  0  0  0999 V2000
   -4.8787   -0.1353   -2.4930 C   0  0  0  0  0  0  0  0  0  0  0  0
   -5.1444   -1.2481   -2.9338 O   0  0  0  0  0  0  0  0  0  0  0  0
   -5.8894    0.5861   -1.6209 C   0  0  0  0  0  0  0  0  0  0  0  0
   -5.6501    1.6517   -1.5685 H   0  0  0  0  0  0  0  0  0  0  0  0
   -6.8946    0.4686   -2.0317 H   0  0  0  0  0  0  0  0  0  0  0  0
   -5.8606    0.1754   -0.6085 H   0  0  0  0  0  0  0  0  0  0  0  0
   -3.6926    0.4770   -2.8369 N   0  0  0  0  0  0  0  0  0  0  0  0
   -2.5979   -0.1899   -3.5499 C   0  0  2  0  0  0  0  0  0  0  0  0
   -1.2382    0.4300   -3.1600 C   0  0  0  0  0  0  0  0  0  0  0  0
   -0.7438    1.3469   -3.8051 O   0  0  0  0  0  0  0  0  0  0  0  0
   -2.8625   -0.0937   -5.0582 C   0  0  0  0  0  0  0  0  0  0  0  0
   -3.4629    1.3290   -2.3051 H   0  0  0  0  0  0  0  0  0  0  0  0
   -2.5689   -1.2471   -3.2700 H   0  0  0  0  0  0  0  0  0  0  0  0
   -2.9408    0.9536   -5.3674 H   0  0  0  0  0  0  0  0  0  0  0  0
   -2.0473   -0.5624   -5.6175 H   0  0  0  0  0  0  0  0  0  0  0  0
   -3.7968   -0.6022   -5.3137 H   0  0  0  0  0  0  0  0  0  0  0  0
   -0.3975   -0.1649   -2.2376 N   0  0  0  0  0  0  0  0  0  0  0  0
    0.1124    0.6524   -1.1167 C   0  0  2  0  0  0  0  0  0  0  0  0
    1.3143   -0.0910   -0.4705 C   0  0  0  0  0  0  0  0  0  0  0  0
    1.6411    0.0331    0.7060 O   0  0  0  0  0  0  0  0  0  0  0  0
   -0.9874    0.7469   -0.0165 C   0  0  0  0  0  0  0  0  0  0  0  0
   -2.2400    1.5499   -0.3338 C   0  0  0  0  0  0  0  0  0  0  0  0
   -2.1809    2.5104   -1.1325 O   0  5  0  0  0  0  0  0  0  0  0  0
   -3.3099    1.1040    0.1415 O   0  0  0  0  0  0  0  0  0  0  0  0
   -0.7798   -1.0495   -1.9188 H   0  0  0  0  0  0  0  0  0  0  0  0
    0.4243    1.6489   -1.4504 H   0  0  0  0  0  0  0  0  0  0  0  0
   -0.5583    1.2248    0.8678 H   0  0  0  0  0  0  0  0  0  0  0  0
   -1.2881   -0.2657    0.2694 H   0  0  0  0  0  0  0  0  0  0  0  0
    2.1016   -0.9092   -1.2619 N   0  0  0  0  0  0  0  0  0  0  0  0
    3.3204   -1.5944   -0.8137 C   0  0  2  0  0  0  0  0  0  0  0  0
    4.3245   -1.8221   -1.9620 C   0  0  0  0  0  0  0  0  0  0  0  0
    3.9415   -1.8968   -3.1242 O   0  0  0  0  0  0  0  0  0  0  0  0
    2.9216   -2.9344   -0.1887 C   0  0  0  0  0  0  0  0  0  0  0  0
    1.8957   -0.9061   -2.2617 H   0  0  0  0  0  0  0  0  0  0  0  0
    3.8243   -0.9812   -0.0593 H   0  0  0  0  0  0  0  0  0  0  0  0
    2.4133   -3.5637   -0.9263 H   0  0  0  0  0  0  0  0  0  0  0  0
    3.8064   -3.4655    0.1742 H   0  0  0  0  0  0  0  0  0  0  0  0
    2.2455   -2.7725    0.6568 H   0  0  0  0  0  0  0  0  0  0  0  0
    5.6725   -1.9641   -1.6839 N   0  0  0  0  0  0  0  0  0  0  0  0
    6.6881   -2.1314   -2.7149 C   0  0  0  0  0  0  0  0  0  0  0  0
    5.9647   -1.8470   -0.7183 H   0  0  0  0  0  0  0  0  0  0  0  0
    6.4721   -3.0142   -3.3255 H   0  0  0  0  0  0  0  0  0  0  0  0
    6.7213   -1.2510   -3.3652 H   0  0  0  0  0  0  0  0  0  0  0  0
    7.6731   -2.2619   -2.2569 H   0  0  0  0  0  0  0  0  0  0  0  0
  1  2  2  0  0  0  0
  1  3  1  0  0  0  0
  1  7  1  0  0  0  0
  3  4  1  0  0  0  0
  3  5  1  0  0  0  0
  3  6  1  0  0  0  0
  7  8  1  0  0  0  0
  7 12  1  0  0  0  0
  8  9  1  0  0  0  0
  8 11  1  0  0  0  0
  8 13  1  0  0  0  0
  9 10  2  0  0  0  0
  9 17  1  0  0  0  0
 11 14  1  0  0  0  0
 11 15  1  0  0  0  0
 11 16  1  0  0  0  0
 17 18  1  0  0  0  0
 17 25  1  0  0  0  0
 18 19  1  0  0  0  0
 18 21  1  0  0  0  0
 18 26  1  0  0  0  0
 19 20  2  0  0  0  0
 19 29  1  0  0  0  0
 21 22  1  0  0  0  0
 21 27  1  0  0  0  0
 21 28  1  0  0  0  0
 22 23  1  0  0  0  0
 22 24  2  0  0  0  0
 29 30  1  0  0  0  0
 29 34  1  0  0  0  0
 30 31  1  0  0  0  0
 30 33  1  0  0  0  0
 30 35  1  0  0  0  0
 31 32  2  0  0  0  0
 31 39  1  0  0  0  0
 33 36  1  0  0  0  0
 33 37  1  0  0  0  0
 33 38  1  0  0  0  0
 39 40  1  0  0  0  0
 39 41  1  0  0  0  0
 40 42  1  0  0  0  0
 40 43  1  0  0  0  0
 40 44  1  0  0  0  0
M  CHG  1  23  -1
M  END
$$$$

  -OEChem-05262215553D

 44 43  0     1  0  0  0  0  0999 V2000
   -4.9662    0.0964   -2.5568 C   0  0  0  0  0  0  0  0  0  0  0  0
   -5.3407   -1.0239   -2.8866 O   0  0  0  0  0  0  0  0  0  0  0  0
   -5.9433    1.0540   -1.8987 C   0  0  0  0  0  0  0  0  0  0  0  0
   -6.0306    1.9643   -2.4961 H   0  0  0  0  0  0  0  0  0  0  0  0
   -6.9284    0.5896   -1.8099 H   0  0  0  0  0  0  0  0  0  0  0  0
   -5.5893    1.3213   -0.9003 H   0  0  0  0  0  0  0  0  0  0  0  0
   -3.6932    0.5219   -2.8704 N   0  0  0  0  0  0  0  0  0  0  0  0
   -2.6340   -0.3603   -3.3736 C   0  0  2  0  0  0  0  0  0  0  0  0
   -1.2488    0.2470   -3.0687 C   0  0  0  0  0  0  0  0  0  0  0  0
   -0.7819    1.1476   -3.7559 O   0  0  0  0  0  0  0  0  0  0  0  0
   -2.8208   -0.5810   -4.8814 C   0  0  0  0  0  0  0  0  0  0  0  0
   -3.3900    1.3835   -2.3928 H   0  0  0  0  0  0  0  0  0  0  0  0
   -2.6979   -1.3269   -2.8650 H   0  0  0  0  0  0  0  0  0  0  0  0
   -2.8105    0.3766   -5.4121 H   0  0  0  0  0  0  0  0  0  0  0  0
   -2.0152   -1.2071   -5.2762 H   0  0  0  0  0  0  0  0  0  0  0  0
   -3.7745   -1.0779   -5.0815 H   0  0  0  0  0  0  0  0  0  0  0  0
   -0.3744   -0.3161   -2.1598 N   0  0  0  0  0  0  0  0  0  0  0  0
    0.1292    0.5305   -1.0606 C   0  0  2  0  0  0  0  0  0  0  0  0
    1.3626   -0.1813   -0.4404 C   0  0  0  0  0  0  0  0  0  0  0  0
    1.5581   -0.3055    0.7649 O   0  0  0  0  0  0  0  0  0  0  0  0
   -0.9580    0.6445    0.0490 C   0  0  0  0  0  0  0  0  0  0  0  0
   -2.2204    1.4310   -0.2756 C   0  0  0  0  0  0  0  0  0  0  0  0
   -2.1757    2.3721   -1.1002 O   0  5  0  0  0  0  0  0  0  0  0  0
   -3.2795    1.0002    0.2348 O   0  0  0  0  0  0  0  0  0  0  0  0
   -0.7256   -1.2052   -1.8195 H   0  0  0  0  0  0  0  0  0  0  0  0
    0.4190    1.5252   -1.4197 H   0  0  0  0  0  0  0  0  0  0  0  0
   -0.5180    1.1465    0.9149 H   0  0  0  0  0  0  0  0  0  0  0  0
   -1.2500   -0.3621    0.3636 H   0  0  0  0  0  0  0  0  0  0  0  0
    2.3098   -0.7156   -1.2955 N   0  0  0  0  0  0  0  0  0  0  0  0
    3.5756   -1.3292   -0.8750 C   0  0  2  0  0  0  0  0  0  0  0  0
    4.7144   -1.0741   -1.8834 C   0  0  0  0  0  0  0  0  0  0  0  0
    4.4736   -0.9314   -3.0767 O   0  0  0  0  0  0  0  0  0  0  0  0
    3.3470   -2.8326   -0.7000 C   0  0  0  0  0  0  0  0  0  0  0  0
    2.1731   -0.5382   -2.2916 H   0  0  0  0  0  0  0  0  0  0  0  0
    3.8892   -0.9012    0.0828 H   0  0  0  0  0  0  0  0  0  0  0  0
    3.0339   -3.2838   -1.6470 H   0  0  0  0  0  0  0  0  0  0  0  0
    4.2664   -3.3227   -0.3660 H   0  0  0  0  0  0  0  0  0  0  0  0
    2.5677   -3.0126    0.0474 H   0  0  0  0  0  0  0  0  0  0  0  0
    6.0263   -1.0224   -1.4472 N   0  0  0  0  0  0  0  0  0  0  0  0
    7.1474   -0.7128   -2.3244 C   0  0  0  0  0  0  0  0  0  0  0  0
    6.1856   -1.0801   -0.4459 H   0  0  0  0  0  0  0  0  0  0  0  0
    7.2063   -1.4384   -3.1422 H   0  0  0  0  0  0  0  0  0  0  0  0
    7.0349    0.2902   -2.7489 H   0  0  0  0  0  0  0  0  0  0  0  0
    8.0857   -0.7488   -1.7633 H   0  0  0  0  0  0  0  0  0  0  0  0
  1  2  2  0  0  0  0
  1  3  1  0  0  0  0
  1  7  1  0  0  0  0
  3  4  1  0  0  0  0
  3  5  1  0  0  0  0
  3  6  1  0  0  0  0
  7  8  1  0  0  0  0
  7 12  1  0  0  0  0
  8  9  1  0  0  0  0
  8 11  1  0  0  0  0
  8 13  1  0  0  0  0
  9 10  2  0  0  0  0
  9 17  1  0  0  0  0
 11 14  1  0  0  0  0
 11 15  1  0  0  0  0
 11 16  1  0  0  0  0
 17 18  1  0  0  0  0
 17 25  1  0  0  0  0
 18 19  1  0  0  0  0
 18 21  1  0  0  0  0
 18 26  1  0  0  0  0
 19 20  2  0  0  0  0
 19 29  1  0  0  0  0
 21 22  1  0  0  0  0
 21 27  1  0  0  0  0
 21 28  1  0  0  0  0
 22 23  1  0  0  0  0
 22 24  2  0  0  0  0
 29 30  1  0  0  0  0
 29 34  1  0  0  0  0
 30 31  1  0  0  0  0
 30 33  1  0  0  0  0
 30 35  1  0  0  0  0
 31 32  2  0  0  0  0
 31 39  1  0  0  0  0
 33 36  1  0  0  0  0
 33 37  1  0  0  0  0
 33 38  1  0  0  0  0
 39 40  1  0  0  0  0
 39 41  1  0  0  0  0
 40 42  1  0  0  0  0
 40 43  1  0  0  0  0
 40 44  1  0  0  0  0
M  CHG  1  23  -1
M  END
$$$$

  -OEChem-05262215553D

 44 43  0     1  0  0  0  0  0999 V2000
   -4.9187   -0.0072   -2.5496 C   0  0  0  0  0  0  0  0  0  0  0  0
   -5.2630   -1.1398   -2.8703 O   0  0  0  0  0  0  0  0  0  0  0  0
   -5.9221    0.9283   -1.8983 C   0  0  0  0  0  0  0  0  0  0  0  0
   -5.9972    1.8528   -2.4751 H   0  0  0  0  0  0  0  0  0  0  0  0
   -6.9069    0.4571   -1.8513 H   0  0  0  0  0  0  0  0  0  0  0  0
   -5.6008    1.1727   -0.8833 H   0  0  0  0  0  0  0  0  0  0  0  0
   -3.6565    0.4486   -2.8655 N   0  0  0  0  0  0  0  0  0  0  0  0
   -2.5756   -0.4067   -3.3703 C   0  0  2  0  0  0  0  0  0  0  0  0
   -1.2037    0.2369   -3.0754 C   0  0  0  0  0  0  0  0  0  0  0  0
   -0.7571    1.1355   -3.7789 O   0  0  0  0  0  0  0  0  0  0  0  0
   -2.7659   -0.6362   -4.8768 C   0  0  0  0  0  0  0  0  0  0  0  0
   -3.3766    1.3242   -2.3996 H   0  0  0  0  0  0  0  0  0  0  0  0
   -2.6111   -1.3726   -2.8582 H   0  0  0  0  0  0  0  0  0  0  0  0
   -2.7886    0.3206   -5.4086 H   0  0  0  0  0  0  0  0  0  0  0  0
   -1.9445   -1.2376   -5.2772 H   0  0  0  0  0  0  0  0  0  0  0  0
   -3.7052   -1.1626   -5.0701 H   0  0  0  0  0  0  0  0  0  0  0  0
   -0.3155   -0.2865   -2.1556 N   0  0  0  0  0  0  0  0  0  0  0  0
    0.1628    0.5914   -1.0716 C   0  0  2  0  0  0  0  0  0  0  0  0
    1.4128   -0.0767   -0.4396 C   0  0  0  0  0  0  0  0  0  0  0  0
    1.4770   -0.4637    0.7239 O   0  0  0  0  0  0  0  0  0  0  0  0
   -0.9265    0.7097    0.0351 C   0  0  0  0  0  0  0  0  0  0  0  0
   -2.2024    1.4658   -0.3076 C   0  0  0  0  0  0  0  0  0  0  0  0
   -2.1712    2.3885   -1.1530 O   0  5  0  0  0  0  0  0  0  0  0  0
   -3.2553    1.0336    0.2145 O   0  0  0  0  0  0  0  0  0  0  0  0
   -0.6414   -1.1787   -1.7984 H   0  0  0  0  0  0  0  0  0  0  0  0
    0.4289    1.5853   -1.4500 H   0  0  0  0  0  0  0  0  0  0  0  0
   -0.4919    1.2325    0.8913 H   0  0  0  0  0  0  0  0  0  0  0  0
   -1.2040   -0.2952    0.3676 H   0  0  0  0  0  0  0  0  0  0  0  0
    2.5089   -0.3134   -1.2496 N   0  0  0  0  0  0  0  0  0  0  0  0
    3.7710   -0.9181   -0.8028 C   0  0  2  0  0  0  0  0  0  0  0  0
    4.9956   -0.3825   -1.5735 C   0  0  0  0  0  0  0  0  0  0  0  0
    4.8804    0.0504   -2.7143 O   0  0  0  0  0  0  0  0  0  0  0  0
    3.6627   -2.4367   -0.9693 C   0  0  0  0  0  0  0  0  0  0  0  0
    2.4555    0.0313   -2.2089 H   0  0  0  0  0  0  0  0  0  0  0  0
    3.9309   -0.6844    0.2549 H   0  0  0  0  0  0  0  0  0  0  0  0
    3.5031   -2.6947   -2.0210 H   0  0  0  0  0  0  0  0  0  0  0  0
    4.5783   -2.9261   -0.6240 H   0  0  0  0  0  0  0  0  0  0  0  0
    2.8227   -2.8232   -0.3835 H   0  0  0  0  0  0  0  0  0  0  0  0
    6.2473   -0.4078   -0.9836 N   0  0  0  0  0  0  0  0  0  0  0  0
    7.4446    0.1211   -1.6235 C   0  0  0  0  0  0  0  0  0  0  0  0
    6.3016   -0.7210   -0.0190 H   0  0  0  0  0  0  0  0  0  0  0  0
    7.6262   -0.3853   -2.5774 H   0  0  0  0  0  0  0  0  0  0  0  0
    7.3366    1.1950   -1.8089 H   0  0  0  0  0  0  0  0  0  0  0  0
    8.3155   -0.0336   -0.9797 H   0  0  0  0  0  0  0  0  0  0  0  0
  1  2  2  0  0  0  0
  1  3  1  0  0  0  0
  1  7  1  0  0  0  0
  3  4  1  0  0  0  0
  3  5  1  0  0  0  0
  3  6  1  0  0  0  0
  7  8  1  0  0  0  0
  7 12  1  0  0  0  0
  8  9  1  0  0  0  0
  8 11  1  0  0  0  0
  8 13  1  0  0  0  0
  9 10  2  0  0  0  0
  9 17  1  0  0  0  0
 11 14  1  0  0  0  0
 11 15  1  0  0  0  0
 11 16  1  0  0  0  0
 17 18  1  0  0  0  0
 17 25  1  0  0  0  0
 18 19  1  0  0  0  0
 18 21  1  0  0  0  0
 18 26  1  0  0  0  0
 19 20  2  0  0  0  0
 19 29  1  0  0  0  0
 21 22  1  0  0  0  0
 21 27  1  0  0  0  0
 21 28  1  0  0  0  0
 22 23  1  0  0  0  0
 22 24  2  0  0  0  0
 29 30  1  0  0  0  0
 29 34  1  0  0  0  0
 30 31  1  0  0  0  0
 30 33  1  0  0  0  0
 30 35  1  0  0  0  0
 31 32  2  0  0  0  0
 31 39  1  0  0  0  0
 33 36  1  0  0  0  0
 33 37  1  0  0  0  0
 33 38  1  0  0  0  0
 39 40  1  0  0  0  0
 39 41  1  0  0  0  0
 40 42  1  0  0  0  0
 40 43  1  0  0  0  0
 40 44  1  0  0  0  0
M  CHG  1  23  -1
M  END
$$$$

  -OEChem-05262215553D

 44 43  0     1  0  0  0  0  0999 V2000
   -4.7852   -0.1304   -2.5070 C   0  0  0  0  0  0  0  0  0  0  0  0
   -5.0965   -1.2684   -2.8412 O   0  0  0  0  0  0  0  0  0  0  0  0
   -5.7749    0.7204   -1.7331 C   0  0  0  0  0  0  0  0  0  0  0  0
   -5.4967    1.7759   -1.7966 H   0  0  0  0  0  0  0  0  0  0  0  0
   -6.7809    0.5933   -2.1390 H   0  0  0  0  0  0  0  0  0  0  0  0
   -5.7687    0.4236   -0.6814 H   0  0  0  0  0  0  0  0  0  0  0  0
   -3.5636    0.3897   -2.8773 N   0  0  0  0  0  0  0  0  0  0  0  0
   -2.4704   -0.4082   -3.4442 C   0  0  2  0  0  0  0  0  0  0  0  0
   -1.1110    0.2508   -3.1270 C   0  0  0  0  0  0  0  0  0  0  0  0
   -0.6464    1.1325   -3.8404 O   0  0  0  0  0  0  0  0  0  0  0  0
   -2.6871   -0.5599   -4.9564 C   0  0  0  0  0  0  0  0  0  0  0  0
   -3.3076    1.2778   -2.4212 H   0  0  0  0  0  0  0  0  0  0  0  0
   -2.4717   -1.4032   -2.9894 H   0  0  0  0  0  0  0  0  0  0  0  0
   -2.7406    0.4229   -5.4351 H   0  0  0  0  0  0  0  0  0  0  0  0
   -1.8621   -1.1213   -5.4045 H   0  0  0  0  0  0  0  0  0  0  0  0
   -3.6198   -1.0948   -5.1578 H   0  0  0  0  0  0  0  0  0  0  0  0
   -0.2499   -0.2472   -2.1683 N   0  0  0  0  0  0  0  0  0  0  0  0
    0.2079    0.6561   -1.0987 C   0  0  2  0  0  0  0  0  0  0  0  0
    1.4342   -0.0048   -0.4209 C   0  0  0  0  0  0  0  0  0  0  0  0
    1.3764   -0.6389    0.6292 O   0  0  0  0  0  0  0  0  0  0  0  0
   -0.8947    0.8230   -0.0120 C   0  0  0  0  0  0  0  0  0  0  0  0
   -2.1545    1.5839   -0.3990 C   0  0  0  0  0  0  0  0  0  0  0  0
   -2.0941    2.4766   -1.2733 O   0  5  0  0  0  0  0  0  0  0  0  0
   -3.2234    1.1889    0.1203 O   0  0  0  0  0  0  0  0  0  0  0  0
   -0.5826   -1.1303   -1.7935 H   0  0  0  0  0  0  0  0  0  0  0  0
    0.4910    1.6367   -1.4991 H   0  0  0  0  0  0  0  0  0  0  0  0
   -0.4622    1.3597    0.8369 H   0  0  0  0  0  0  0  0  0  0  0  0
   -1.1968   -0.1673    0.3424 H   0  0  0  0  0  0  0  0  0  0  0  0
    2.6425    0.0126   -1.0929 N   0  0  0  0  0  0  0  0  0  0  0  0
    3.8813   -0.6124   -0.6131 C   0  0  2  0  0  0  0  0  0  0  0  0
    5.1440    0.1365   -1.0871 C   0  0  0  0  0  0  0  0  0  0  0  0
    5.1535    0.7366   -2.1558 O   0  0  0  0  0  0  0  0  0  0  0  0
    3.9096   -2.0623   -1.1049 C   0  0  0  0  0  0  0  0  0  0  0  0
    2.6712    0.5118   -1.9822 H   0  0  0  0  0  0  0  0  0  0  0  0
    3.8917   -0.6044    0.4815 H   0  0  0  0  0  0  0  0  0  0  0  0
    3.8920   -2.0943   -2.1990 H   0  0  0  0  0  0  0  0  0  0  0  0
    4.8142   -2.5682   -0.7549 H   0  0  0  0  0  0  0  0  0  0  0  0
    3.0399   -2.6083   -0.7264 H   0  0  0  0  0  0  0  0  0  0  0  0
    6.2928    0.1133   -0.3162 N   0  0  0  0  0  0  0  0  0  0  0  0
    7.5160    0.8166   -0.6795 C   0  0  0  0  0  0  0  0  0  0  0  0
    6.2410   -0.3533    0.5843 H   0  0  0  0  0  0  0  0  0  0  0  0
    7.9208    0.4208   -1.6169 H   0  0  0  0  0  0  0  0  0  0  0  0
    7.3209    1.8873   -0.8026 H   0  0  0  0  0  0  0  0  0  0  0  0
    8.2698    0.6909    0.1036 H   0  0  0  0  0  0  0  0  0  0  0  0
  1  2  2  0  0  0  0
  1  3  1  0  0  0  0
  1  7  1  0  0  0  0
  3  4  1  0  0  0  0
  3  5  1  0  0  0  0
  3  6  1  0  0  0  0
  7  8  1  0  0  0  0
  7 12  1  0  0  0  0
  8  9  1  0  0  0  0
  8 11  1  0  0  0  0
  8 13  1  0  0  0  0
  9 10  2  0  0  0  0
  9 17  1  0  0  0  0
 11 14  1  0  0  0  0
 11 15  1  0  0  0  0
 11 16  1  0  0  0  0
 17 18  1  0  0  0  0
 17 25  1  0  0  0  0
 18 19  1  0  0  0  0
 18 21  1  0  0  0  0
 18 26  1  0  0  0  0
 19 20  2  0  0  0  0
 19 29  1  0  0  0  0
 21 22  1  0  0  0  0
 21 27  1  0  0  0  0
 21 28  1  0  0  0  0
 22 23  1  0  0  0  0
 22 24  2  0  0  0  0
 29 30  1  0  0  0  0
 29 34  1  0  0  0  0
 30 31  1  0  0  0  0
 30 33  1  0  0  0  0
 30 35  1  0  0  0  0
 31 32  2  0  0  0  0
 31 39  1  0  0  0  0
 33 36  1  0  0  0  0
 33 37  1  0  0  0  0
 33 38  1  0  0  0  0
 39 40  1  0  0  0  0
 39 41  1  0  0  0  0
 40 42  1  0  0  0  0
 40 43  1  0  0  0  0
 40 44  1  0  0  0  0
M  CHG  1  23  -1
M  END
$$$$

  -OEChem-05262215553D

 44 43  0     1  0  0  0  0  0999 V2000
   -4.6968   -0.2062   -2.5147 C   0  0  0  0  0  0  0  0  0  0  0  0
   -4.9784   -1.3462   -2.8673 O   0  0  0  0  0  0  0  0  0  0  0  0
   -5.7159    0.6137   -1.7458 C   0  0  0  0  0  0  0  0  0  0  0  0
   -5.5090    1.6805   -1.8668 H   0  0  0  0  0  0  0  0  0  0  0  0
   -6.7239    0.4041   -2.1114 H   0  0  0  0  0  0  0  0  0  0  0  0
   -5.6584    0.3676   -0.6823 H   0  0  0  0  0  0  0  0  0  0  0  0
   -3.4817    0.3443   -2.8613 N   0  0  0  0  0  0  0  0  0  0  0  0
   -2.3721   -0.4121   -3.4531 C   0  0  2  0  0  0  0  0  0  0  0  0
   -1.0240    0.2600   -3.1161 C   0  0  0  0  0  0  0  0  0  0  0  0
   -0.5443    1.1303   -3.8340 O   0  0  0  0  0  0  0  0  0  0  0  0
   -2.5897   -0.5193   -4.9684 C   0  0  0  0  0  0  0  0  0  0  0  0
   -3.2537    1.2396   -2.4054 H   0  0  0  0  0  0  0  0  0  0  0  0
   -2.3527   -1.4217   -3.0319 H   0  0  0  0  0  0  0  0  0  0  0  0
   -2.6702    0.4770   -5.4150 H   0  0  0  0  0  0  0  0  0  0  0  0
   -1.7510   -1.0439   -5.4353 H   0  0  0  0  0  0  0  0  0  0  0  0
   -3.5085   -1.0726   -5.1841 H   0  0  0  0  0  0  0  0  0  0  0  0
   -0.1871   -0.2218   -2.1288 N   0  0  0  0  0  0  0  0  0  0  0  0
    0.2550    0.6979   -1.0688 C   0  0  2  0  0  0  0  0  0  0  0  0
    1.4594    0.0456   -0.3511 C   0  0  0  0  0  0  0  0  0  0  0  0
    1.3329   -0.8094    0.5217 O   0  0  0  0  0  0  0  0  0  0  0  0
   -0.8576    0.8874    0.0028 C   0  0  0  0  0  0  0  0  0  0  0  0
   -2.1092    1.6448   -0.4153 C   0  0  0  0  0  0  0  0  0  0  0  0
   -2.0326    2.5196   -1.3058 O   0  5  0  0  0  0  0  0  0  0  0  0
   -3.1866    1.2672    0.0994 O   0  0  0  0  0  0  0  0  0  0  0  0
   -0.5247   -1.0986   -1.7437 H   0  0  0  0  0  0  0  0  0  0  0  0
    0.5478    1.6700   -1.4828 H   0  0  0  0  0  0  0  0  0  0  0  0
   -0.4321    1.4339    0.8486 H   0  0  0  0  0  0  0  0  0  0  0  0
   -1.1708   -0.0953    0.3685 H   0  0  0  0  0  0  0  0  0  0  0  0
    2.7330    0.3030   -0.8227 N   0  0  0  0  0  0  0  0  0  0  0  0
    3.9598   -0.3190   -0.3112 C   0  0  2  0  0  0  0  0  0  0  0  0
    5.1955    0.5912   -0.4716 C   0  0  0  0  0  0  0  0  0  0  0  0
    5.2325    1.4535   -1.3421 O   0  0  0  0  0  0  0  0  0  0  0  0
    4.1756   -1.6414   -1.0536 C   0  0  0  0  0  0  0  0  0  0  0  0
    2.8221    0.9800   -1.5801 H   0  0  0  0  0  0  0  0  0  0  0  0
    3.8427   -0.5220    0.7582 H   0  0  0  0  0  0  0  0  0  0  0  0
    4.2922   -1.4620   -2.1271 H   0  0  0  0  0  0  0  0  0  0  0  0
    5.0727   -2.1462   -0.6839 H   0  0  0  0  0  0  0  0  0  0  0  0
    3.3190   -2.3059   -0.9028 H   0  0  0  0  0  0  0  0  0  0  0  0
    6.2879    0.4278    0.3618 N   0  0  0  0  0  0  0  0  0  0  0  0
    7.4789    1.2644    0.2946 C   0  0  0  0  0  0  0  0  0  0  0  0
    6.2142   -0.2685    1.0972 H   0  0  0  0  0  0  0  0  0  0  0  0
    7.9594    1.1681   -0.6846 H   0  0  0  0  0  0  0  0  0  0  0  0
    7.2187    2.3153    0.4585 H   0  0  0  0  0  0  0  0  0  0  0  0
    8.1960    0.9622    1.0640 H   0  0  0  0  0  0  0  0  0  0  0  0
  1  2  2  0  0  0  0
  1  3  1  0  0  0  0
  1  7  1  0  0  0  0
  3  4  1  0  0  0  0
  3  5  1  0  0  0  0
  3  6  1  0  0  0  0
  7  8  1  0  0  0  0
  7 12  1  0  0  0  0
  8  9  1  0  0  0  0
  8 11  1  0  0  0  0
  8 13  1  0  0  0  0
  9 10  2  0  0  0  0
  9 17  1  0  0  0  0
 11 14  1  0  0  0  0
 11 15  1  0  0  0  0
 11 16  1  0  0  0  0
 17 18  1  0  0  0  0
 17 25  1  0  0  0  0
 18 19  1  0  0  0  0
 18 21  1  0  0  0  0
 18 26  1  0  0  0  0
 19 20  2  0  0  0  0
 19 29  1  0  0  0  0
 21 22  1  0  0  0  0
 21 27  1  0  0  0  0
 21 28  1  0  0  0  0
 22 23  1  0  0  0  0
 22 24  2  0  0  0  0
 29 30  1  0  0  0  0
 29 34  1  0  0  0  0
 30 31  1  0  0  0  0
 30 33  1  0  0  0  0
 30 35  1  0  0  0  0
 31 32  2  0  0  0  0
 31 39  1  0  0  0  0
 33 36  1  0  0  0  0
 33 37  1  0  0  0  0
 33 38  1  0  0  0  0
 39 40  1  0  0  0  0
 39 41  1  0  0  0  0
 40 42  1  0  0  0  0
 40 43  1  0  0  0  0
 40 44  1  0  0  0  0
M  CHG  1  23  -1
M  END
$$$$

  -OEChem-05262215553D

 44 43  0     1  0  0  0  0  0999 V2000
   -4.6404   -0.1136   -2.4962 C   0  0  0  0  0  0  0  0  0  0  0  0
   -4.9686   -1.2469   -2.8295 O   0  0  0  0  0  0  0  0  0  0  0  0
   -5.6211    0.7550   -1.7298 C   0  0  0  0  0  0  0  0  0  0  0  0
   -5.3444    1.8086   -1.8225 H   0  0  0  0  0  0  0  0  0  0  0  0
   -6.6323    0.6184   -2.1198 H   0  0  0  0  0  0  0  0  0  0  0  0
   -5.6027    0.4841   -0.6711 H   0  0  0  0  0  0  0  0  0  0  0  0
   -3.4100    0.3860   -2.8661 N   0  0  0  0  0  0  0  0  0  0  0  0
   -2.3318   -0.4233   -3.4458 C   0  0  2  0  0  0  0  0  0  0  0  0
   -0.9606    0.2078   -3.1231 C   0  0  0  0  0  0  0  0  0  0  0  0
   -0.4761    1.0821   -3.8330 O   0  0  0  0  0  0  0  0  0  0  0  0
   -2.5573   -0.5505   -4.9589 C   0  0  0  0  0  0  0  0  0  0  0  0
   -3.1426    1.2755   -2.4200 H   0  0  0  0  0  0  0  0  0  0  0  0
   -2.3486   -1.4240   -3.0038 H   0  0  0  0  0  0  0  0  0  0  0  0
   -2.5963    0.4399   -5.4239 H   0  0  0  0  0  0  0  0  0  0  0  0
   -1.7440   -1.1197   -5.4188 H   0  0  0  0  0  0  0  0  0  0  0  0
   -3.5001   -1.0670   -5.1619 H   0  0  0  0  0  0  0  0  0  0  0  0
   -0.1318   -0.2925   -2.1379 N   0  0  0  0  0  0  0  0  0  0  0  0
    0.3300    0.6144   -1.0758 C   0  0  2  0  0  0  0  0  0  0  0  0
    1.5216   -0.0520   -0.3524 C   0  0  0  0  0  0  0  0  0  0  0  0
    1.3857   -1.0728    0.3177 O   0  0  0  0  0  0  0  0  0  0  0  0
   -0.7658    0.8150    0.0092 C   0  0  0  0  0  0  0  0  0  0  0  0
   -2.0107    1.5932   -0.3910 C   0  0  0  0  0  0  0  0  0  0  0  0
   -1.9321    2.4712   -1.2786 O   0  5  0  0  0  0  0  0  0  0  0  0
   -3.0850    1.2380    0.1451 O   0  0  0  0  0  0  0  0  0  0  0  0
   -0.4723   -1.1703   -1.7573 H   0  0  0  0  0  0  0  0  0  0  0  0
    0.6333    1.5832   -1.4891 H   0  0  0  0  0  0  0  0  0  0  0  0
   -0.3225    1.3511    0.8528 H   0  0  0  0  0  0  0  0  0  0  0  0
   -1.0884   -0.1648    0.3750 H   0  0  0  0  0  0  0  0  0  0  0  0
    2.8047    0.4040   -0.5911 N   0  0  0  0  0  0  0  0  0  0  0  0
    4.0213   -0.1669   -0.0009 C   0  0  2  0  0  0  0  0  0  0  0  0
    5.1268    0.8900    0.2025 C   0  0  0  0  0  0  0  0  0  0  0  0
    5.1485    1.9127   -0.4731 O   0  0  0  0  0  0  0  0  0  0  0  0
    4.5223   -1.2890   -0.9154 C   0  0  0  0  0  0  0  0  0  0  0  0
    2.9042    1.2443   -1.1598 H   0  0  0  0  0  0  0  0  0  0  0  0
    3.7858   -0.5840    0.9836 H   0  0  0  0  0  0  0  0  0  0  0  0
    4.7638   -0.8937   -1.9075 H   0  0  0  0  0  0  0  0  0  0  0  0
    5.4197   -1.7542   -0.4964 H   0  0  0  0  0  0  0  0  0  0  0  0
    3.7531   -2.0602   -1.0256 H   0  0  0  0  0  0  0  0  0  0  0  0
    6.1146    0.6869    1.1498 N   0  0  0  0  0  0  0  0  0  0  0  0
    7.1554    1.6642    1.4408 C   0  0  0  0  0  0  0  0  0  0  0  0
    6.0374   -0.1403    1.7339 H   0  0  0  0  0  0  0  0  0  0  0  0
    7.7344    1.8881    0.5387 H   0  0  0  0  0  0  0  0  0  0  0  0
    6.7130    2.5928    1.8163 H   0  0  0  0  0  0  0  0  0  0  0  0
    7.8385    1.2730    2.2006 H   0  0  0  0  0  0  0  0  0  0  0  0
  1  2  2  0  0  0  0
  1  3  1  0  0  0  0
  1  7  1  0  0  0  0
  3  4  1  0  0  0  0
  3  5  1  0  0  0  0
  3  6  1  0  0  0  0
  7  8  1  0  0  0  0
  7 12  1  0  0  0  0
  8  9  1  0  0  0  0
  8 11  1  0  0  0  0
  8 13  1  0  0  0  0
  9 10  2  0  0  0  0
  9 17  1  0  0  0  0
 11 14  1  0  0  0  0
 11 15  1  0  0  0  0
 11 16  1  0  0  0  0
 17 18  1  0  0  0  0
 17 25  1  0  0  0  0
 18 19  1  0  0  0  0
 18 21  1  0  0  0  0
 18 26  1  0  0  0  0
 19 20  2  0  0  0  0
 19 29  1  0  0  0  0
 21 22  1  0  0  0  0
 21 27  1  0  0  0  0
 21 28  1  0  0  0  0
 22 23  1  0  0  0  0
 22 24  2  0  0  0  0
 29 30  1  0  0  0  0
 29 34  1  0  0  0  0
 30 31  1  0  0  0  0
 30 33  1  0  0  0  0
 30 35  1  0  0  0  0
 31 32  2  0  0  0  0
 31 39  1  0  0  0  0
 33 36  1  0  0  0  0
 33 37  1  0  0  0  0
 33 38  1  0  0  0  0
 39 40  1  0  0  0  0
 39 41  1  0  0  0  0
 40 42  1  0  0  0  0
 40 43  1  0  0  0  0
 40 44  1  0  0  0  0
M  CHG  1  23  -1
M  END
$$$$

  -OEChem-05262215553D

 44 43  0     1  0  0  0  0  0999 V2000
   -4.6331   -0.0038   -2.5968 C   0  0  0  0  0  0  0  0  0  0  0  0
   -4.9884   -1.1217   -2.9541 O   0  0  0  0  0  0  0  0  0  0  0  0
   -5.6382    0.9367   -1.9559 C   0  0  0  0  0  0  0  0  0  0  0  0
   -5.7069    1.8587   -2.5378 H   0  0  0  0  0  0  0  0  0  0  0  0
   -6.6244    0.4677   -1.9124 H   0  0  0  0  0  0  0  0  0  0  0  0
   -5.3220    1.1852   -0.9401 H   0  0  0  0  0  0  0  0  0  0  0  0
   -3.3536    0.4354   -2.8607 N   0  0  0  0  0  0  0  0  0  0  0  0
   -2.2715   -0.4193   -3.3649 C   0  0  2  0  0  0  0  0  0  0  0  0
   -0.9030    0.2090   -3.0285 C   0  0  0  0  0  0  0  0  0  0  0  0
   -0.4448    1.1321   -3.6932 O   0  0  0  0  0  0  0  0  0  0  0  0
   -2.4320   -0.6131   -4.8795 C   0  0  0  0  0  0  0  0  0  0  0  0
   -3.0758    1.3031   -2.3786 H   0  0  0  0  0  0  0  0  0  0  0  0
   -2.3233   -1.3966   -2.8756 H   0  0  0  0  0  0  0  0  0  0  0  0
   -2.4401    0.3554   -5.3899 H   0  0  0  0  0  0  0  0  0  0  0  0
   -1.6042   -1.2090   -5.2753 H   0  0  0  0  0  0  0  0  0  0  0  0
   -3.3691   -1.1307   -5.1037 H   0  0  0  0  0  0  0  0  0  0  0  0
   -0.0651   -0.3162   -2.0648 N   0  0  0  0  0  0  0  0  0  0  0  0
    0.3812    0.5577   -0.9691 C   0  0  2  0  0  0  0  0  0  0  0  0
    1.5837   -0.1087   -0.2663 C   0  0  0  0  0  0  0  0  0  0  0  0
    1.5176   -1.2641    0.1481 O   0  0  0  0  0  0  0  0  0  0  0  0
   -0.7139    0.6769    0.1256 C   0  0  0  0  0  0  0  0  0  0  0  0
   -1.9836    1.4341   -0.2376 C   0  0  0  0  0  0  0  0  0  0  0  0
   -1.9373    2.3529   -1.0865 O   0  5  0  0  0  0  0  0  0  0  0  0
   -3.0411    1.0273    0.2947 O   0  0  0  0  0  0  0  0  0  0  0  0
   -0.3740   -1.2215   -1.7225 H   0  0  0  0  0  0  0  0  0  0  0  0
    0.6607    1.5495   -1.3429 H   0  0  0  0  0  0  0  0  0  0  0  0
   -0.2838    1.1914    0.9889 H   0  0  0  0  0  0  0  0  0  0  0  0
   -1.0022   -0.3281    0.4496 H   0  0  0  0  0  0  0  0  0  0  0  0
    2.8054    0.5374   -0.2188 N   0  0  0  0  0  0  0  0  0  0  0  0
    4.0278   -0.0305    0.3625 C   0  0  2  0  0  0  0  0  0  0  0  0
    4.9686    1.0491    0.9365 C   0  0  0  0  0  0  0  0  0  0  0  0
    4.9082    2.2094    0.5450 O   0  0  0  0  0  0  0  0  0  0  0  0
    4.7480   -0.8366   -0.7230 C   0  0  0  0  0  0  0  0  0  0  0  0
    2.8417    1.5006   -0.5511 H   0  0  0  0  0  0  0  0  0  0  0  0
    3.7600   -0.6980    1.1881 H   0  0  0  0  0  0  0  0  0  0  0  0
    5.0250   -0.1874   -1.5599 H   0  0  0  0  0  0  0  0  0  0  0  0
    5.6560   -1.2957   -0.3211 H   0  0  0  0  0  0  0  0  0  0  0  0
    4.0966   -1.6316   -1.0999 H   0  0  0  0  0  0  0  0  0  0  0  0
    5.9086    0.7065    1.8921 N   0  0  0  0  0  0  0  0  0  0  0  0
    6.8149    1.6675    2.5062 C   0  0  0  0  0  0  0  0  0  0  0  0
    5.9096   -0.2538    2.2224 H   0  0  0  0  0  0  0  0  0  0  0  0
    7.4526    2.1319    1.7467 H   0  0  0  0  0  0  0  0  0  0  0  0
    6.2504    2.4516    3.0219 H   0  0  0  0  0  0  0  0  0  0  0  0
    7.4569    1.1661    3.2367 H   0  0  0  0  0  0  0  0  0  0  0  0
  1  2  2  0  0  0  0
  1  3  1  0  0  0  0
  1  7  1  0  0  0  0
  3  4  1  0  0  0  0
  3  5  1  0  0  0  0
  3  6  1  0  0  0  0
  7  8  1  0  0  0  0
  7 12  1  0  0  0  0
  8  9  1  0  0  0  0
  8 11  1  0  0  0  0
  8 13  1  0  0  0  0
  9 10  2  0  0  0  0
  9 17  1  0  0  0  0
 11 14  1  0  0  0  0
 11 15  1  0  0  0  0
 11 16  1  0  0  0  0
 17 18  1  0  0  0  0
 17 25  1  0  0  0  0
 18 19  1  0  0  0  0
 18 21  1  0  0  0  0
 18 26  1  0  0  0  0
 19 20  2  0  0  0  0
 19 29  1  0  0  0  0
 21 22  1  0  0  0  0
 21 27  1  0  0  0  0
 21 28  1  0  0  0  0
 22 23  1  0  0  0  0
 22 24  2  0  0  0  0
 29 30  1  0  0  0  0
 29 34  1  0  0  0  0
 30 31  1  0  0  0  0
 30 33  1  0  0  0  0
 30 35  1  0  0  0  0
 31 32  2  0  0  0  0
 31 39  1  0  0  0  0
 33 36  1  0  0  0  0
 33 37  1  0  0  0  0
 33 38  1  0  0  0  0
 39 40  1  0  0  0  0
 39 41  1  0  0  0  0
 40 42  1  0  0  0  0
 40 43  1  0  0  0  0
 40 44  1  0  0  0  0
M  CHG  1  23  -1
M  END
$$$$

  -OEChem-05262215553D

 44 43  0     1  0  0  0  0  0999 V2000
   -4.4966   -0.0644   -2.4744 C   0  0  0  0  0  0  0  0  0  0  0  0
   -4.8431   -1.1662   -2.8856 O   0  0  0  0  0  0  0  0  0  0  0  0
   -5.4594    0.7620   -1.6431 C   0  0  0  0  0  0  0  0  0  0  0  0
   -5.1680    1.8155   -1.6652 H   0  0  0  0  0  0  0  0  0  0  0  0
   -6.4744    0.6662   -2.0349 H   0  0  0  0  0  0  0  0  0  0  0  0
   -5.4375    0.4182   -0.6060 H   0  0  0  0  0  0  0  0  0  0  0  0
   -3.2615    0.4436   -2.8137 N   0  0  0  0  0  0  0  0  0  0  0  0
   -2.1989   -0.3352   -3.4590 C   0  0  2  0  0  0  0  0  0  0  0  0
   -0.8181    0.2549   -3.1029 C   0  0  0  0  0  0  0  0  0  0  0  0
   -0.3305    1.1758   -3.7494 O   0  0  0  0  0  0  0  0  0  0  0  0
   -2.4364   -0.3507   -4.9749 C   0  0  0  0  0  0  0  0  0  0  0  0
   -2.9799    1.2988   -2.3123 H   0  0  0  0  0  0  0  0  0  0  0  0
   -2.2248   -1.3648   -3.0900 H   0  0  0  0  0  0  0  0  0  0  0  0
   -2.4662    0.6707   -5.3678 H   0  0  0  0  0  0  0  0  0  0  0  0
   -1.6328   -0.8955   -5.4792 H   0  0  0  0  0  0  0  0  0  0  0  0
   -3.3871   -0.8397   -5.2072 H   0  0  0  0  0  0  0  0  0  0  0  0
   -0.0059   -0.3104   -2.1393 N   0  0  0  0  0  0  0  0  0  0  0  0
    0.4820    0.5314   -1.0360 C   0  0  2  0  0  0  0  0  0  0  0  0
    1.6520   -0.1850   -0.3281 C   0  0  0  0  0  0  0  0  0  0  0  0
    1.6061   -1.3900   -0.0881 O   0  0  0  0  0  0  0  0  0  0  0  0
   -0.5967    0.6733    0.0717 C   0  0  0  0  0  0  0  0  0  0  0  0
   -1.8421    1.4790   -0.2666 C   0  0  0  0  0  0  0  0  0  0  0  0
   -1.7712    2.4067   -1.1028 O   0  5  0  0  0  0  0  0  0  0  0  0
   -2.9092    1.1006    0.2678 O   0  0  0  0  0  0  0  0  0  0  0  0
   -0.3425   -1.2107   -1.8106 H   0  0  0  0  0  0  0  0  0  0  0  0
    0.7987    1.5152   -1.4011 H   0  0  0  0  0  0  0  0  0  0  0  0
   -0.1417    1.1611    0.9379 H   0  0  0  0  0  0  0  0  0  0  0  0
   -0.9146   -0.3261    0.3855 H   0  0  0  0  0  0  0  0  0  0  0  0
    2.7991    0.5123    0.0033 N   0  0  0  0  0  0  0  0  0  0  0  0
    3.9352   -0.0586    0.7366 C   0  0  2  0  0  0  0  0  0  0  0  0
    4.6632    0.9926    1.5995 C   0  0  0  0  0  0  0  0  0  0  0  0
    4.5947    2.1855    1.3251 O   0  0  0  0  0  0  0  0  0  0  0  0
    4.9038   -0.6782   -0.2751 C   0  0  0  0  0  0  0  0  0  0  0  0
    2.7938    1.5211   -0.1461 H   0  0  0  0  0  0  0  0  0  0  0  0
    3.5745   -0.8399    1.4136 H   0  0  0  0  0  0  0  0  0  0  0  0
    5.2808    0.0876   -0.9606 H   0  0  0  0  0  0  0  0  0  0  0  0
    5.7537   -1.1370    0.2386 H   0  0  0  0  0  0  0  0  0  0  0  0
    4.3968   -1.4510   -0.8617 H   0  0  0  0  0  0  0  0  0  0  0  0
    5.4145    0.5918    2.6897 N   0  0  0  0  0  0  0  0  0  0  0  0
    6.1046    1.5225    3.5729 C   0  0  0  0  0  0  0  0  0  0  0  0
    5.4165   -0.3979    2.9170 H   0  0  0  0  0  0  0  0  0  0  0  0
    6.8644    2.0837    3.0189 H   0  0  0  0  0  0  0  0  0  0  0  0
    5.3951    2.2298    4.0151 H   0  0  0  0  0  0  0  0  0  0  0  0
    6.5989    0.9772    4.3824 H   0  0  0  0  0  0  0  0  0  0  0  0
  1  2  2  0  0  0  0
  1  3  1  0  0  0  0
  1  7  1  0  0  0  0
  3  4  1  0  0  0  0
  3  5  1  0  0  0  0
  3  6  1  0  0  0  0
  7  8  1  0  0  0  0
  7 12  1  0  0  0  0
  8  9  1  0  0  0  0
  8 11  1  0  0  0  0
  8 13  1  0  0  0  0
  9 10  2  0  0  0  0
  9 17  1  0  0  0  0
 11 14  1  0  0  0  0
 11 15  1  0  0  0  0
 11 16  1  0  0  0  0
 17 18  1  0  0  0  0
 17 25  1  0  0  0  0
 18 19  1  0  0  0  0
 18 21  1  0  0  0  0
 18 26  1  0  0  0  0
 19 20  2  0  0  0  0
 19 29  1  0  0  0  0
 21 22  1  0  0  0  0
 21 27  1  0  0  0  0
 21 28  1  0  0  0  0
 22 23  1  0  0  0  0
 22 24  2  0  0  0  0
 29 30  1  0  0  0  0
 29 34  1  0  0  0  0
 30 31  1  0  0  0  0
 30 33  1  0  0  0  0
 30 35  1  0  0  0  0
 31 32  2  0  0  0  0
 31 39  1  0  0  0  0
 33 36  1  0  0  0  0
 33 37  1  0  0  0  0
 33 38  1  0  0  0  0
 39 40  1  0  0  0  0
 39 41  1  0  0  0  0
 40 42  1  0  0  0  0
 40 43  1  0  0  0  0
 40 44  1  0  0  0  0
M  CHG  1  23  -1
M  END
$$$$

  -OEChem-05262215553D

 44 43  0     1  0  0  0  0  0999 V2000
   -4.4300   -0.1073   -2.4341 C   0  0  0  0  0  0  0  0  0  0  0  0
   -4.7686   -1.1921   -2.8942 O   0  0  0  0  0  0  0  0  0  0  0  0
   -5.3941    0.6692   -1.5569 C   0  0  0  0  0  0  0  0  0  0  0  0
   -5.1058    1.7235   -1.5224 H   0  0  0  0  0  0  0  0  0  0  0  0
   -6.4100    0.5916   -1.9509 H   0  0  0  0  0  0  0  0  0  0  0  0
   -5.3682    0.2693   -0.5400 H   0  0  0  0  0  0  0  0  0  0  0  0
   -3.2013    0.4272   -2.7563 N   0  0  0  0  0  0  0  0  0  0  0  0
   -2.1371   -0.3041   -3.4528 C   0  0  2  0  0  0  0  0  0  0  0  0
   -0.7593    0.2764   -3.0698 C   0  0  0  0  0  0  0  0  0  0  0  0
   -0.2741    1.2230   -3.6798 O   0  0  0  0  0  0  0  0  0  0  0  0
   -2.3892   -0.2295   -4.9647 C   0  0  0  0  0  0  0  0  0  0  0  0
   -2.9269    1.2663   -2.2248 H   0  0  0  0  0  0  0  0  0  0  0  0
   -2.1513   -1.3545   -3.1465 H   0  0  0  0  0  0  0  0  0  0  0  0
   -2.4376    0.8137   -5.2931 H   0  0  0  0  0  0  0  0  0  0  0  0
   -1.5833   -0.7299   -5.5094 H   0  0  0  0  0  0  0  0  0  0  0  0
   -3.3350   -0.7172   -5.2184 H   0  0  0  0  0  0  0  0  0  0  0  0
    0.0515   -0.3200   -2.1237 N   0  0  0  0  0  0  0  0  0  0  0  0
    0.5513    0.4884   -0.9997 C   0  0  2  0  0  0  0  0  0  0  0  0
    1.7199   -0.2429   -0.3030 C   0  0  0  0  0  0  0  0  0  0  0  0
    1.7786   -1.4707   -0.2731 O   0  0  0  0  0  0  0  0  0  0  0  0
   -0.5254    0.5909    0.1152 C   0  0  0  0  0  0  0  0  0  0  0  0
   -1.7750    1.4034   -0.1905 C   0  0  0  0  0  0  0  0  0  0  0  0
   -1.7118    2.3591   -0.9948 O   0  5  0  0  0  0  0  0  0  0  0  0
   -2.8385    0.9997    0.3330 O   0  0  0  0  0  0  0  0  0  0  0  0
   -0.2808   -1.2319   -1.8247 H   0  0  0  0  0  0  0  0  0  0  0  0
    0.8687    1.4823   -1.3364 H   0  0  0  0  0  0  0  0  0  0  0  0
   -0.0715    1.0539    0.9958 H   0  0  0  0  0  0  0  0  0  0  0  0
   -0.8376   -0.4192    0.3988 H   0  0  0  0  0  0  0  0  0  0  0  0
    2.7210    0.4839    0.3150 N   0  0  0  0  0  0  0  0  0  0  0  0
    3.8270   -0.1030    1.0805 C   0  0  2  0  0  0  0  0  0  0  0  0
    4.3158    0.8303    2.2078 C   0  0  0  0  0  0  0  0  0  0  0  0
    4.1327    2.0408    2.1412 O   0  0  0  0  0  0  0  0  0  0  0  0
    4.9731   -0.4139    0.1130 C   0  0  0  0  0  0  0  0  0  0  0  0
    2.6062    1.4965    0.3558 H   0  0  0  0  0  0  0  0  0  0  0  0
    3.4901   -1.0329    1.5503 H   0  0  0  0  0  0  0  0  0  0  0  0
    5.3250    0.5040   -0.3688 H   0  0  0  0  0  0  0  0  0  0  0  0
    5.8111   -0.8732    0.6454 H   0  0  0  0  0  0  0  0  0  0  0  0
    4.6361   -1.1076   -0.6639 H   0  0  0  0  0  0  0  0  0  0  0  0
    4.9758    0.3074    3.3057 N   0  0  0  0  0  0  0  0  0  0  0  0
    5.4002    1.1158    4.4414 C   0  0  0  0  0  0  0  0  0  0  0  0
    5.0540   -0.7034    3.3645 H   0  0  0  0  0  0  0  0  0  0  0  0
    6.0711    1.9173    4.1143 H   0  0  0  0  0  0  0  0  0  0  0  0
    4.5319    1.5626    4.9371 H   0  0  0  0  0  0  0  0  0  0  0  0
    5.9342    0.4955    5.1675 H   0  0  0  0  0  0  0  0  0  0  0  0
  1  2  2  0  0  0  0
  1  3  1  0  0  0  0
  1  7  1  0  0  0  0
  3  4  1  0  0  0  0
  3  5  1  0  0  0  0
  3  6  1  0  0  0  0
  7  8  1  0  0  0  0
  7 12  1  0  0  0  0
  8  9  1  0  0  0  0
  8 11  1  0  0  0  0
  8 13  1  0  0  0  0
  9 10  2  0  0  0  0
  9 17  1  0  0  0  0
 11 14  1  0  0  0  0
 11 15  1  0  0  0  0
 11 16  1  0  0  0  0
 17 18  1  0  0  0  0
 17 25  1  0  0  0  0
 18 19  1  0  0  0  0
 18 21  1  0  0  0  0
 18 26  1  0  0  0  0
 19 20  2  0  0  0  0
 19 29  1  0  0  0  0
 21 22  1  0  0  0  0
 21 27  1  0  0  0  0
 21 28  1  0  0  0  0
 22 23  1  0  0  0  0
 22 24  2  0  0  0  0
 29 30  1  0  0  0  0
 29 34  1  0  0  0  0
 30 31  1  0  0  0  0
 30 33  1  0  0  0  0
 30 35  1  0  0  0  0
 31 32  2  0  0  0  0
 31 39  1  0  0  0  0
 33 36  1  0  0  0  0
 33 37  1  0  0  0  0
 33 38  1  0  0  0  0
 39 40  1  0  0  0  0
 39 41  1  0  0  0  0
 40 42  1  0  0  0  0
 40 43  1  0  0  0  0
 40 44  1  0  0  0  0
M  CHG  1  23  -1
M  END
$$$$

  -OEChem-05262215553D

 44 43  0     1  0  0  0  0  0999 V2000
   -4.4403   -0.0578   -2.5268 C   0  0  0  0  0  0  0  0  0  0  0  0
   -4.7559   -1.1292   -3.0327 O   0  0  0  0  0  0  0  0  0  0  0  0
   -5.4661    0.7328   -1.7347 C   0  0  0  0  0  0  0  0  0  0  0  0
   -5.5537    1.7419   -2.1439 H   0  0  0  0  0  0  0  0  0  0  0  0
   -6.4423    0.2440   -1.7811 H   0  0  0  0  0  0  0  0  0  0  0  0
   -5.1564    0.8024   -0.6894 H   0  0  0  0  0  0  0  0  0  0  0  0
   -3.1872    0.4716   -2.7473 N   0  0  0  0  0  0  0  0  0  0  0  0
   -2.0824   -0.2534   -3.3875 C   0  0  2  0  0  0  0  0  0  0  0  0
   -0.7342    0.3711   -2.9727 C   0  0  0  0  0  0  0  0  0  0  0  0
   -0.3251    1.4023   -3.4949 O   0  0  0  0  0  0  0  0  0  0  0  0
   -2.2620   -0.2233   -4.9117 C   0  0  0  0  0  0  0  0  0  0  0  0
   -2.9360    1.2774   -2.1558 H   0  0  0  0  0  0  0  0  0  0  0  0
   -2.0876   -1.2946   -3.0516 H   0  0  0  0  0  0  0  0  0  0  0  0
   -2.3252    0.8095   -5.2689 H   0  0  0  0  0  0  0  0  0  0  0  0
   -1.4146   -0.7105   -5.4029 H   0  0  0  0  0  0  0  0  0  0  0  0
   -3.1777   -0.7470   -5.2008 H   0  0  0  0  0  0  0  0  0  0  0  0
    0.1223   -0.2501   -2.0855 N   0  0  0  0  0  0  0  0  0  0  0  0
    0.5855    0.4908   -0.9002 C   0  0  2  0  0  0  0  0  0  0  0  0
    1.8064   -0.2170   -0.2668 C   0  0  0  0  0  0  0  0  0  0  0  0
    2.0690   -1.3905   -0.5232 O   0  0  0  0  0  0  0  0  0  0  0  0
   -0.4988    0.4205    0.2111 C   0  0  0  0  0  0  0  0  0  0  0  0
   -1.8016    1.1717   -0.0274 C   0  0  0  0  0  0  0  0  0  0  0  0
   -1.8081    2.2000   -0.7405 O   0  5  0  0  0  0  0  0  0  0  0  0
   -2.8307    0.6521    0.4607 O   0  0  0  0  0  0  0  0  0  0  0  0
   -0.1335   -1.2091   -1.8727 H   0  0  0  0  0  0  0  0  0  0  0  0
    0.8357    1.5283   -1.1503 H   0  0  0  0  0  0  0  0  0  0  0  0
   -0.0838    0.8305    1.1360 H   0  0  0  0  0  0  0  0  0  0  0  0
   -0.7419   -0.6300    0.3980 H   0  0  0  0  0  0  0  0  0  0  0  0
    2.5980    0.4444    0.6554 N   0  0  0  0  0  0  0  0  0  0  0  0
    3.7090   -0.1698    1.3935 C   0  0  2  0  0  0  0  0  0  0  0  0
    3.9141    0.4655    2.7844 C   0  0  0  0  0  0  0  0  0  0  0  0
    3.5459    1.6130    3.0085 O   0  0  0  0  0  0  0  0  0  0  0  0
    4.9818   -0.0293    0.5530 C   0  0  0  0  0  0  0  0  0  0  0  0
    2.3032    1.3788    0.9387 H   0  0  0  0  0  0  0  0  0  0  0  0
    3.4981   -1.2326    1.5515 H   0  0  0  0  0  0  0  0  0  0  0  0
    5.2107    1.0273    0.3806 H   0  0  0  0  0  0  0  0  0  0  0  0
    5.8319   -0.4921    1.0627 H   0  0  0  0  0  0  0  0  0  0  0  0
    4.8512   -0.5204   -0.4165 H   0  0  0  0  0  0  0  0  0  0  0  0
    4.5338   -0.2546    3.7905 N   0  0  0  0  0  0  0  0  0  0  0  0
    4.7202    0.2574    5.1419 C   0  0  0  0  0  0  0  0  0  0  0  0
    4.7729   -1.2215    3.5921 H   0  0  0  0  0  0  0  0  0  0  0  0
    5.3151    1.1767    5.1251 H   0  0  0  0  0  0  0  0  0  0  0  0
    3.7520    0.4714    5.6068 H   0  0  0  0  0  0  0  0  0  0  0  0
    5.2443   -0.4809    5.7561 H   0  0  0  0  0  0  0  0  0  0  0  0
  1  2  2  0  0  0  0
  1  3  1  0  0  0  0
  1  7  1  0  0  0  0
  3  4  1  0  0  0  0
  3  5  1  0  0  0  0
  3  6  1  0  0  0  0
  7  8  1  0  0  0  0
  7 12  1  0  0  0  0
  8  9  1  0  0  0  0
  8 11  1  0  0  0  0
  8 13  1  0  0  0  0
  9 10  2  0  0  0  0
  9 17  1  0  0  0  0
 11 14  1  0  0  0  0
 11 15  1  0  0  0  0
 11 16  1  0  0  0  0
 17 18  1  0  0  0  0
 17 25  1  0  0  0  0
 18 19  1  0  0  0  0
 18 21  1  0  0  0  0
 18 26  1  0  0  0  0
 19 20  2  0  0  0  0
 19 29  1  0  0  0  0
 21 22  1  0  0  0  0
 21 27  1  0  0  0  0
 21 28  1  0  0  0  0
 22 23  1  0  0  0  0
 22 24  2  0  0  0  0
 29 30  1  0  0  0  0
 29 34  1  0  0  0  0
 30 31  1  0  0  0  0
 30 33  1  0  0  0  0
 30 35  1  0  0  0  0
 31 32  2  0  0  0  0
 31 39  1  0  0  0  0
 33 36  1  0  0  0  0
 33 37  1  0  0  0  0
 33 38  1  0  0  0  0
 39 40  1  0  0  0  0
 39 41  1  0  0  0  0
 40 42  1  0  0  0  0
 40 43  1  0  0  0  0
 40 44  1  0  0  0  0
M  CHG  1  23  -1
M  END
$$$$

  -OEChem-05262215553D

 44 43  0     1  0  0  0  0  0999 V2000
   -3.2650   -1.1222   -1.9963 C   0  0  0  0  0  0  0  0  0  0  0  0
   -2.7964   -2.1547   -2.4544 O   0  0  0  0  0  0  0  0  0  0  0  0
   -4.0535   -1.1618   -0.7008 C   0  0  0  0  0  0  0  0  0  0  0  0
   -4.8610   -0.4259   -0.7320 H   0  0  0  0  0  0  0  0  0  0  0  0
   -4.4846   -2.1544   -0.5489 H   0  0  0  0  0  0  0  0  0  0  0  0
   -3.3968   -0.9238    0.1397 H   0  0  0  0  0  0  0  0  0  0  0  0
   -3.0147    0.0776   -2.6233 N   0  0  0  0  0  0  0  0  0  0  0  0
   -2.1329    0.2317   -3.7943 C   0  0  2  0  0  0  0  0  0  0  0  0
   -0.6537    0.4555   -3.3982 C   0  0  0  0  0  0  0  0  0  0  0  0
    0.1051    1.1388   -4.0792 O   0  0  0  0  0  0  0  0  0  0  0  0
   -2.6932    1.3980   -4.6163 C   0  0  0  0  0  0  0  0  0  0  0  0
   -3.1646    0.9086   -2.0334 H   0  0  0  0  0  0  0  0  0  0  0  0
   -2.1684   -0.6706   -4.4123 H   0  0  0  0  0  0  0  0  0  0  0  0
   -2.6340    2.3293   -4.0427 H   0  0  0  0  0  0  0  0  0  0  0  0
   -2.1228    1.5241   -5.5416 H   0  0  0  0  0  0  0  0  0  0  0  0
   -3.7391    1.2126   -4.8773 H   0  0  0  0  0  0  0  0  0  0  0  0
   -0.1342   -0.1720   -2.2835 N   0  0  0  0  0  0  0  0  0  0  0  0
    0.5593    0.6157   -1.2497 C   0  0  2  0  0  0  0  0  0  0  0  0
    1.6643   -0.1934   -0.5285 C   0  0  0  0  0  0  0  0  0  0  0  0
    1.8471   -1.3879   -0.7483 O   0  0  0  0  0  0  0  0  0  0  0  0
   -0.5092    0.9891   -0.1871 C   0  0  0  0  0  0  0  0  0  0  0  0
   -1.5682    1.9871   -0.6432 C   0  0  0  0  0  0  0  0  0  0  0  0
   -1.2730    2.8311   -1.5153 O   0  5  0  0  0  0  0  0  0  0  0  0
   -2.7431    1.7475   -0.2693 O   0  0  0  0  0  0  0  0  0  0  0  0
   -0.7446   -0.9018   -1.9243 H   0  0  0  0  0  0  0  0  0  0  0  0
    1.0116    1.5170   -1.6794 H   0  0  0  0  0  0  0  0  0  0  0  0
   -0.0165    1.4451    0.6750 H   0  0  0  0  0  0  0  0  0  0  0  0
   -1.0020    0.0767    0.1617 H   0  0  0  0  0  0  0  0  0  0  0  0
    2.4177    0.3968    0.4719 N   0  0  0  0  0  0  0  0  0  0  0  0
    3.4011   -0.3079    1.3035 C   0  0  2  0  0  0  0  0  0  0  0  0
    3.5950    0.3579    2.6818 C   0  0  0  0  0  0  0  0  0  0  0  0
    3.2934    1.5327    2.8609 O   0  0  0  0  0  0  0  0  0  0  0  0
    4.7336   -0.3544    0.5486 C   0  0  0  0  0  0  0  0  0  0  0  0
    2.1916    1.3596    0.7205 H   0  0  0  0  0  0  0  0  0  0  0  0
    3.0531   -1.3304    1.4836 H   0  0  0  0  0  0  0  0  0  0  0  0
    5.1009    0.6595    0.3605 H   0  0  0  0  0  0  0  0  0  0  0  0
    5.4850   -0.8971    1.1296 H   0  0  0  0  0  0  0  0  0  0  0  0
    4.6086   -0.8630   -0.4127 H   0  0  0  0  0  0  0  0  0  0  0  0
    4.1348   -0.3671    3.7295 N   0  0  0  0  0  0  0  0  0  0  0  0
    4.3474    0.1843    5.0611 C   0  0  0  0  0  0  0  0  0  0  0  0
    4.3468   -1.3457    3.5600 H   0  0  0  0  0  0  0  0  0  0  0  0
    5.0366    1.0341    5.0178 H   0  0  0  0  0  0  0  0  0  0  0  0
    3.3990    0.5201    5.4931 H   0  0  0  0  0  0  0  0  0  0  0  0
    4.7773   -0.5763    5.7196 H   0  0  0  0  0  0  0  0  0  0  0  0
  1  2  2  0  0  0  0
  1  3  1  0  0  0  0
  1  7  1  0  0  0  0
  3  4  1  0  0  0  0
  3  5  1  0  0  0  0
  3  6  1  0  0  0  0
  7  8  1  0  0  0  0
  7 12  1  0  0  0  0
  8  9  1  0  0  0  0
  8 11  1  0  0  0  0
  8 13  1  0  0  0  0
  9 10  2  0  0  0  0
  9 17  1  0  0  0  0
 11 14  1  0  0  0  0
 11 15  1  0  0  0  0
 11 16  1  0  0  0  0
 17 18  1  0  0  0  0
 17 25  1  0  0  0  0
 18 19  1  0  0  0  0
 18 21  1  0  0  0  0
 18 26  1  0  0  0  0
 19 20  2  0  0  0  0
 19 29  1  0  0  0  0
 21 22  1  0  0  0  0
 21 27  1  0  0  0  0
 21 28  1  0  0  0  0
 22 23  1  0  0  0  0
 22 24  2  0  0  0  0
 29 30  1  0  0  0  0
 29 34  1  0  0  0  0
 30 31  1  0  0  0  0
 30 33  1  0  0  0  0
 30 35  1  0  0  0  0
 31 32  2  0  0  0  0
 31 39  1  0  0  0  0
 33 36  1  0  0  0  0
 33 37  1  0  0  0  0
 33 38  1  0  0  0  0
 39 40  1  0  0  0  0
 39 41  1  0  0  0  0
 40 42  1  0  0  0  0
 40 43  1  0  0  0  0
 40 44  1  0  0  0  0
M  CHG  1  23  -1
M  END
$$$$

  -OEChem-05262215553D

 44 43  0     1  0  0  0  0  0999 V2000
   -3.1367   -1.1967   -2.0442 C   0  0  0  0  0  0  0  0  0  0  0  0
   -2.5663   -2.1614   -2.5342 O   0  0  0  0  0  0  0  0  0  0  0  0
   -3.9394   -1.3649   -0.7682 C   0  0  0  0  0  0  0  0  0  0  0  0
   -4.8087   -0.7029   -0.7851 H   0  0  0  0  0  0  0  0  0  0  0  0
   -4.2823   -2.3979   -0.6694 H   0  0  0  0  0  0  0  0  0  0  0  0
   -3.3219   -1.1085    0.0962 H   0  0  0  0  0  0  0  0  0  0  0  0
   -2.9847    0.0465   -2.6158 N   0  0  0  0  0  0  0  0  0  0  0  0
   -2.1100    0.3200   -3.7704 C   0  0  2  0  0  0  0  0  0  0  0  0
   -0.6395    0.5722   -3.3595 C   0  0  0  0  0  0  0  0  0  0  0  0
    0.0877    1.3371   -3.9860 O   0  0  0  0  0  0  0  0  0  0  0  0
   -2.7149    1.5211   -4.5057 C   0  0  0  0  0  0  0  0  0  0  0  0
   -3.1880    0.8337   -1.9833 H   0  0  0  0  0  0  0  0  0  0  0  0
   -2.1130   -0.5363   -4.4515 H   0  0  0  0  0  0  0  0  0  0  0  0
   -2.6854    2.4111   -3.8674 H   0  0  0  0  0  0  0  0  0  0  0  0
   -2.1527    1.7316   -5.4205 H   0  0  0  0  0  0  0  0  0  0  0  0
   -3.7547    1.3180   -4.7775 H   0  0  0  0  0  0  0  0  0  0  0  0
   -0.0940   -0.1172   -2.2950 N   0  0  0  0  0  0  0  0  0  0  0  0
    0.5746    0.6166   -1.2062 C   0  0  2  0  0  0  0  0  0  0  0  0
    1.7114   -0.2125   -0.5527 C   0  0  0  0  0  0  0  0  0  0  0  0
    2.1219   -1.2582   -1.0481 O   0  0  0  0  0  0  0  0  0  0  0  0
   -0.5157    0.8851   -0.1299 C   0  0  0  0  0  0  0  0  0  0  0  0
   -1.6032    1.8807   -0.5214 C   0  0  0  0  0  0  0  0  0  0  0  0
   -1.3318    2.7940   -1.3285 O   0  5  0  0  0  0  0  0  0  0  0  0
   -2.7710    1.5813   -0.1682 O   0  0  0  0  0  0  0  0  0  0  0  0
   -0.6785   -0.8941   -1.9948 H   0  0  0  0  0  0  0  0  0  0  0  0
    0.9989    1.5601   -1.5684 H   0  0  0  0  0  0  0  0  0  0  0  0
   -0.0489    1.3019    0.7647 H   0  0  0  0  0  0  0  0  0  0  0  0
   -0.9810   -0.0632    0.1540 H   0  0  0  0  0  0  0  0  0  0  0  0
    2.2521    0.1615    0.6660 N   0  0  0  0  0  0  0  0  0  0  0  0
    3.2555   -0.6075    1.4118 C   0  0  2  0  0  0  0  0  0  0  0  0
    3.2176   -0.3105    2.9252 C   0  0  0  0  0  0  0  0  0  0  0  0
    2.6835    0.7066    3.3536 O   0  0  0  0  0  0  0  0  0  0  0  0
    4.6415   -0.2807    0.8454 C   0  0  0  0  0  0  0  0  0  0  0  0
    1.8443    0.9750    1.1257 H   0  0  0  0  0  0  0  0  0  0  0  0
    3.0558   -1.6767    1.2855 H   0  0  0  0  0  0  0  0  0  0  0  0
    4.8578    0.7861    0.9596 H   0  0  0  0  0  0  0  0  0  0  0  0
    5.4145   -0.8524    1.3668 H   0  0  0  0  0  0  0  0  0  0  0  0
    4.6868   -0.5326   -0.2188 H   0  0  0  0  0  0  0  0  0  0  0  0
    3.8057   -1.1897    3.8172 N   0  0  0  0  0  0  0  0  0  0  0  0
    3.8161   -0.9818    5.2589 C   0  0  0  0  0  0  0  0  0  0  0  0
    4.2182   -2.0358    3.4362 H   0  0  0  0  0  0  0  0  0  0  0  0
    4.3313   -0.0478    5.5066 H   0  0  0  0  0  0  0  0  0  0  0  0
    2.7930   -0.9350    5.6464 H   0  0  0  0  0  0  0  0  0  0  0  0
    4.3369   -1.8061    5.7553 H   0  0  0  0  0  0  0  0  0  0  0  0
  1  2  2  0  0  0  0
  1  3  1  0  0  0  0
  1  7  1  0  0  0  0
  3  4  1  0  0  0  0
  3  5  1  0  0  0  0
  3  6  1  0  0  0  0
  7  8  1  0  0  0  0
  7 12  1  0  0  0  0
  8  9  1  0  0  0  0
  8 11  1  0  0  0  0
  8 13  1  0  0  0  0
  9 10  2  0  0  0  0
  9 17  1  0  0  0  0
 11 14  1  0  0  0  0
 11 15  1  0  0  0  0
 11 16  1  0  0  0  0
 17 18  1  0  0  0  0
 17 25  1  0  0  0  0
 18 19  1  0  0  0  0
 18 21  1  0  0  0  0
 18 26  1  0  0  0  0
 19 20  2  0  0  0  0
 19 29  1  0  0  0  0
 21 22  1  0  0  0  0
 21 27  1  0  0  0  0
 21 28  1  0  0  0  0
 22 23  1  0  0  0  0
 22 24  2  0  0  0  0
 29 30  1  0  0  0  0
 29 34  1  0  0  0  0
 30 31  1  0  0  0  0
 30 33  1  0  0  0  0
 30 35  1  0  0  0  0
 31 32  2  0  0  0  0
 31 39  1  0  0  0  0
 33 36  1  0  0  0  0
 33 37  1  0  0  0  0
 33 38  1  0  0  0  0
 39 40  1  0  0  0  0
 39 41  1  0  0  0  0
 40 42  1  0  0  0  0
 40 43  1  0  0  0  0
 40 44  1  0  0  0  0
M  CHG  1  23  -1
M  END
$$$$

  -OEChem-05262215553D

 44 43  0     1  0  0  0  0  0999 V2000
   -3.0690   -1.2661   -2.0804 C   0  0  0  0  0  0  0  0  0  0  0  0
   -2.4382   -2.2001   -2.5557 O   0  0  0  0  0  0  0  0  0  0  0  0
   -3.9025   -1.4777   -0.8309 C   0  0  0  0  0  0  0  0  0  0  0  0
   -4.7891   -0.8391   -0.8611 H   0  0  0  0  0  0  0  0  0  0  0  0
   -4.2190   -2.5212   -0.7575 H   0  0  0  0  0  0  0  0  0  0  0  0
   -3.3163   -1.2190    0.0541 H   0  0  0  0  0  0  0  0  0  0  0  0
   -2.9562   -0.0146   -2.6428 N   0  0  0  0  0  0  0  0  0  0  0  0
   -2.0715    0.3017   -3.7788 C   0  0  2  0  0  0  0  0  0  0  0  0
   -0.6153    0.5921   -3.3416 C   0  0  0  0  0  0  0  0  0  0  0  0
    0.0930    1.3951   -3.9412 O   0  0  0  0  0  0  0  0  0  0  0  0
   -2.7027    1.4934   -4.5077 C   0  0  0  0  0  0  0  0  0  0  0  0
   -3.1999    0.7587   -2.0078 H   0  0  0  0  0  0  0  0  0  0  0  0
   -2.0375   -0.5450   -4.4711 H   0  0  0  0  0  0  0  0  0  0  0  0
   -2.7154    2.3731   -3.8549 H   0  0  0  0  0  0  0  0  0  0  0  0
   -2.1306    1.7381   -5.4078 H   0  0  0  0  0  0  0  0  0  0  0  0
   -3.7300    1.2605   -4.8027 H   0  0  0  0  0  0  0  0  0  0  0  0
   -0.0582   -0.1148   -2.2942 N   0  0  0  0  0  0  0  0  0  0  0  0
    0.5722    0.6050   -1.1726 C   0  0  2  0  0  0  0  0  0  0  0  0
    1.7297   -0.2190   -0.5425 C   0  0  0  0  0  0  0  0  0  0  0  0
    2.3711   -1.0327   -1.2006 O   0  0  0  0  0  0  0  0  0  0  0  0
   -0.5433    0.8223   -0.1088 C   0  0  0  0  0  0  0  0  0  0  0  0
   -1.6466    1.8037   -0.4932 C   0  0  0  0  0  0  0  0  0  0  0  0
   -1.3841    2.7439   -1.2716 O   0  5  0  0  0  0  0  0  0  0  0  0
   -2.8124    1.4719   -0.1627 O   0  0  0  0  0  0  0  0  0  0  0  0
   -0.6305   -0.9127   -2.0268 H   0  0  0  0  0  0  0  0  0  0  0  0
    0.9784    1.5687   -1.5008 H   0  0  0  0  0  0  0  0  0  0  0  0
   -0.1022    1.2363    0.7997 H   0  0  0  0  0  0  0  0  0  0  0  0
   -0.9898   -0.1428    0.1480 H   0  0  0  0  0  0  0  0  0  0  0  0
    2.0628   -0.1041    0.7978 N   0  0  0  0  0  0  0  0  0  0  0  0
    3.1019   -0.8878    1.4780 C   0  0  2  0  0  0  0  0  0  0  0  0
    2.8568   -1.0044    2.9970 C   0  0  0  0  0  0  0  0  0  0  0  0
    2.0929   -0.2374    3.5729 O   0  0  0  0  0  0  0  0  0  0  0  0
    4.4609   -0.2289    1.2167 C   0  0  0  0  0  0  0  0  0  0  0  0
    1.4811    0.5050    1.3716 H   0  0  0  0  0  0  0  0  0  0  0  0
    3.1089   -1.9045    1.0715 H   0  0  0  0  0  0  0  0  0  0  0  0
    4.4758    0.7871    1.6236 H   0  0  0  0  0  0  0  0  0  0  0  0
    5.2637   -0.8056    1.6850 H   0  0  0  0  0  0  0  0  0  0  0  0
    4.6588   -0.1759    0.1415 H   0  0  0  0  0  0  0  0  0  0  0  0
    3.5221   -1.9706    3.7309 N   0  0  0  0  0  0  0  0  0  0  0  0
    3.3620   -2.1406    5.1688 C   0  0  0  0  0  0  0  0  0  0  0  0
    4.1377   -2.5994    3.2243 H   0  0  0  0  0  0  0  0  0  0  0  0
    3.6585   -1.2288    5.6977 H   0  0  0  0  0  0  0  0  0  0  0  0
    2.3194   -2.3683    5.4141 H   0  0  0  0  0  0  0  0  0  0  0  0
    3.9889   -2.9646    5.5226 H   0  0  0  0  0  0  0  0  0  0  0  0
  1  2  2  0  0  0  0
  1  3  1  0  0  0  0
  1  7  1  0  0  0  0
  3  4  1  0  0  0  0
  3  5  1  0  0  0  0
  3  6  1  0  0  0  0
  7  8  1  0  0  0  0
  7 12  1  0  0  0  0
  8  9  1  0  0  0  0
  8 11  1  0  0  0  0
  8 13  1  0  0  0  0
  9 10  2  0  0  0  0
  9 17  1  0  0  0  0
 11 14  1  0  0  0  0
 11 15  1  0  0  0  0
 11 16  1  0  0  0  0
 17 18  1  0  0  0  0
 17 25  1  0  0  0  0
 18 19  1  0  0  0  0
 18 21  1  0  0  0  0
 18 26  1  0  0  0  0
 19 20  2  0  0  0  0
 19 29  1  0  0  0  0
 21 22  1  0  0  0  0
 21 27  1  0  0  0  0
 21 28  1  0  0  0  0
 22 23  1  0  0  0  0
 22 24  2  0  0  0  0
 29 30  1  0  0  0  0
 29 34  1  0  0  0  0
 30 31  1  0  0  0  0
 30 33  1  0  0  0  0
 30 35  1  0  0  0  0
 31 32  2  0  0  0  0
 31 39  1  0  0  0  0
 33 36  1  0  0  0  0
 33 37  1  0  0  0  0
 33 38  1  0  0  0  0
 39 40  1  0  0  0  0
 39 41  1  0  0  0  0
 40 42  1  0  0  0  0
 40 43  1  0  0  0  0
 40 44  1  0  0  0  0
M  CHG  1  23  -1
M  END
$$$$

  -OEChem-05262215553D

 44 43  0     1  0  0  0  0  0999 V2000
   -2.7312   -1.3832   -1.2621 C   0  0  0  0  0  0  0  0  0  0  0  0
   -2.0442   -2.3945   -1.3154 O   0  0  0  0  0  0  0  0  0  0  0  0
   -3.6004   -1.1267   -0.0455 C   0  0  0  0  0  0  0  0  0  0  0  0
   -3.0449   -0.5440    0.6933 H   0  0  0  0  0  0  0  0  0  0  0  0
   -4.4923   -0.5651   -0.3347 H   0  0  0  0  0  0  0  0  0  0  0  0
   -3.9091   -2.0737    0.4042 H   0  0  0  0  0  0  0  0  0  0  0  0
   -2.6387   -0.4511   -2.2719 N   0  0  0  0  0  0  0  0  0  0  0  0
   -1.7468   -0.5899   -3.4387 C   0  0  2  0  0  0  0  0  0  0  0  0
   -0.2831   -0.1899   -3.1313 C   0  0  0  0  0  0  0  0  0  0  0  0
    0.4411    0.3285   -3.9747 O   0  0  0  0  0  0  0  0  0  0  0  0
   -2.3523    0.2609   -4.5606 C   0  0  0  0  0  0  0  0  0  0  0  0
   -2.8969    0.5044   -1.9894 H   0  0  0  0  0  0  0  0  0  0  0  0
   -1.7328   -1.6328   -3.7692 H   0  0  0  0  0  0  0  0  0  0  0  0
   -2.3343    1.3208   -4.2842 H   0  0  0  0  0  0  0  0  0  0  0  0
   -1.7823    0.1344   -5.4862 H   0  0  0  0  0  0  0  0  0  0  0  0
   -3.3884   -0.0353   -4.7487 H   0  0  0  0  0  0  0  0  0  0  0  0
    0.2555   -0.4808   -1.8941 N   0  0  0  0  0  0  0  0  0  0  0  0
    0.8939    0.5843   -1.1014 C   0  0  2  0  0  0  0  0  0  0  0  0
    2.0275    0.0055   -0.2121 C   0  0  0  0  0  0  0  0  0  0  0  0
    2.7800   -0.8722   -0.6235 O   0  0  0  0  0  0  0  0  0  0  0  0
   -0.2154    1.2046   -0.2034 C   0  0  0  0  0  0  0  0  0  0  0  0
   -1.2907    2.0057   -0.9301 C   0  0  0  0  0  0  0  0  0  0  0  0
   -1.0050    2.5901   -1.9951 O   0  5  0  0  0  0  0  0  0  0  0  0
   -2.4619    1.8541   -0.5031 O   0  0  0  0  0  0  0  0  0  0  0  0
   -0.3434   -1.1149   -1.3665 H   0  0  0  0  0  0  0  0  0  0  0  0
    1.3286    1.3533   -1.7511 H   0  0  0  0  0  0  0  0  0  0  0  0
    0.2402    1.9142    0.4905 H   0  0  0  0  0  0  0  0  0  0  0  0
   -0.6901    0.4134    0.3846 H   0  0  0  0  0  0  0  0  0  0  0  0
    2.1702    0.3662    1.1188 N   0  0  0  0  0  0  0  0  0  0  0  0
    3.1347   -0.2372    2.0523 C   0  0  2  0  0  0  0  0  0  0  0  0
    2.6605   -1.6139    2.5824 C   0  0  0  0  0  0  0  0  0  0  0  0
    2.5390   -1.8390    3.7826 O   0  0  0  0  0  0  0  0  0  0  0  0
    3.3846    0.7830    3.1694 C   0  0  0  0  0  0  0  0  0  0  0  0
    1.4577    0.9865    1.4928 H   0  0  0  0  0  0  0  0  0  0  0  0
    4.0856   -0.4026    1.5349 H   0  0  0  0  0  0  0  0  0  0  0  0
    2.4632    0.9758    3.7279 H   0  0  0  0  0  0  0  0  0  0  0  0
    4.1401    0.4057    3.8654 H   0  0  0  0  0  0  0  0  0  0  0  0
    3.7440    1.7269    2.7486 H   0  0  0  0  0  0  0  0  0  0  0  0
    2.3523   -2.6098    1.6768 N   0  0  0  0  0  0  0  0  0  0  0  0
    1.7502   -3.8852    2.0344 C   0  0  0  0  0  0  0  0  0  0  0  0
    2.4305   -2.3523    0.6880 H   0  0  0  0  0  0  0  0  0  0  0  0
    2.3699   -4.4114    2.7676 H   0  0  0  0  0  0  0  0  0  0  0  0
    0.7529   -3.7302    2.4587 H   0  0  0  0  0  0  0  0  0  0  0  0
    1.6550   -4.5168    1.1460 H   0  0  0  0  0  0  0  0  0  0  0  0
  1  2  2  0  0  0  0
  1  3  1  0  0  0  0
  1  7  1  0  0  0  0
  3  4  1  0  0  0  0
  3  5  1  0  0  0  0
  3  6  1  0  0  0  0
  7  8  1  0  0  0  0
  7 12  1  0  0  0  0
  8  9  1  0  0  0  0
  8 11  1  0  0  0  0
  8 13  1  0  0  0  0
  9 10  2  0  0  0  0
  9 17  1  0  0  0  0
 11 14  1  0  0  0  0
 11 15  1  0  0  0  0
 11 16  1  0  0  0  0
 17 18  1  0  0  0  0
 17 25  1  0  0  0  0
 18 19  1  0  0  0  0
 18 21  1  0  0  0  0
 18 26  1  0  0  0  0
 19 20  2  0  0  0  0
 19 29  1  0  0  0  0
 21 22  1  0  0  0  0
 21 27  1  0  0  0  0
 21 28  1  0  0  0  0
 22 23  1  0  0  0  0
 22 24  2  0  0  0  0
 29 30  1  0  0  0  0
 29 34  1  0  0  0  0
 30 31  1  0  0  0  0
 30 33  1  0  0  0  0
 30 35  1  0  0  0  0
 31 32  2  0  0  0  0
 31 39  1  0  0  0  0
 33 36  1  0  0  0  0
 33 37  1  0  0  0  0
 33 38  1  0  0  0  0
 39 40  1  0  0  0  0
 39 41  1  0  0  0  0
 40 42  1  0  0  0  0
 40 43  1  0  0  0  0
 40 44  1  0  0  0  0
M  CHG  1  23  -1
M  END
$$$$

  -OEChem-05262215553D

 44 43  0     1  0  0  0  0  0999 V2000
   -2.8860   -1.2676   -1.5263 C   0  0  0  0  0  0  0  0  0  0  0  0
   -2.2603   -2.3193   -1.5124 O   0  0  0  0  0  0  0  0  0  0  0  0
   -3.8493   -0.9467   -0.3984 C   0  0  0  0  0  0  0  0  0  0  0  0
   -4.6732   -0.3336   -0.7729 H   0  0  0  0  0  0  0  0  0  0  0  0
   -4.2581   -1.8680    0.0239 H   0  0  0  0  0  0  0  0  0  0  0  0
   -3.3311   -0.3924    0.3879 H   0  0  0  0  0  0  0  0  0  0  0  0
   -2.6393   -0.3512   -2.5243 N   0  0  0  0  0  0  0  0  0  0  0  0
   -1.6614   -0.5564   -3.6096 C   0  0  2  0  0  0  0  0  0  0  0  0
   -0.2013   -0.2780   -3.1758 C   0  0  0  0  0  0  0  0  0  0  0  0
    0.6319    0.1740   -3.9537 O   0  0  0  0  0  0  0  0  0  0  0  0
   -2.0969    0.3491   -4.7674 C   0  0  0  0  0  0  0  0  0  0  0  0
   -2.8579    0.6211   -2.2673 H   0  0  0  0  0  0  0  0  0  0  0  0
   -1.7038   -1.5954   -3.9502 H   0  0  0  0  0  0  0  0  0  0  0  0
   -2.0270    1.4018   -4.4723 H   0  0  0  0  0  0  0  0  0  0  0  0
   -1.4552    0.1910   -5.6394 H   0  0  0  0  0  0  0  0  0  0  0  0
   -3.1300    0.1334   -5.0544 H   0  0  0  0  0  0  0  0  0  0  0  0
    0.2086   -0.6104   -1.9000 N   0  0  0  0  0  0  0  0  0  0  0  0
    0.8371    0.4148   -1.0497 C   0  0  2  0  0  0  0  0  0  0  0  0
    1.8533   -0.2327   -0.0731 C   0  0  0  0  0  0  0  0  0  0  0  0
    2.7900   -0.9095   -0.4838 O   0  0  0  0  0  0  0  0  0  0  0  0
   -0.2951    1.1156   -0.2457 C   0  0  0  0  0  0  0  0  0  0  0  0
   -1.2483    1.9883   -1.0558 C   0  0  0  0  0  0  0  0  0  0  0  0
   -0.8385    2.5477   -2.0930 O   0  5  0  0  0  0  0  0  0  0  0  0
   -2.4568    1.9264   -0.7205 O   0  0  0  0  0  0  0  0  0  0  0  0
   -0.4846   -1.1938   -1.4321 H   0  0  0  0  0  0  0  0  0  0  0  0
    1.3757    1.1518   -1.6574 H   0  0  0  0  0  0  0  0  0  0  0  0
    0.1573    1.7869    0.4886 H   0  0  0  0  0  0  0  0  0  0  0  0
   -0.8750    0.3621    0.2953 H   0  0  0  0  0  0  0  0  0  0  0  0
    1.7163   -0.1277    1.3022 N   0  0  0  0  0  0  0  0  0  0  0  0
    2.6513   -0.6908    2.2895 C   0  0  2  0  0  0  0  0  0  0  0  0
    2.4517   -2.2110    2.5192 C   0  0  0  0  0  0  0  0  0  0  0  0
    2.3466   -2.6857    3.6461 O   0  0  0  0  0  0  0  0  0  0  0  0
    2.4943    0.1326    3.5736 C   0  0  0  0  0  0  0  0  0  0  0  0
    0.8951    0.3699    1.6352 H   0  0  0  0  0  0  0  0  0  0  0  0
    3.6767   -0.5558    1.9297 H   0  0  0  0  0  0  0  0  0  0  0  0
    1.4904    0.0046    3.9905 H   0  0  0  0  0  0  0  0  0  0  0  0
    3.2252   -0.1884    4.3224 H   0  0  0  0  0  0  0  0  0  0  0  0
    2.6562    1.1952    3.3680 H   0  0  0  0  0  0  0  0  0  0  0  0
    2.4209   -3.0594    1.4304 N   0  0  0  0  0  0  0  0  0  0  0  0
    2.2528   -4.5021    1.5120 C   0  0  0  0  0  0  0  0  0  0  0  0
    2.5493   -2.6177    0.5147 H   0  0  0  0  0  0  0  0  0  0  0  0
    3.0934   -4.9553    2.0469 H   0  0  0  0  0  0  0  0  0  0  0  0
    1.3235   -4.7511    2.0347 H   0  0  0  0  0  0  0  0  0  0  0  0
    2.2089   -4.9311    0.5064 H   0  0  0  0  0  0  0  0  0  0  0  0
  1  2  2  0  0  0  0
  1  3  1  0  0  0  0
  1  7  1  0  0  0  0
  3  4  1  0  0  0  0
  3  5  1  0  0  0  0
  3  6  1  0  0  0  0
  7  8  1  0  0  0  0
  7 12  1  0  0  0  0
  8  9  1  0  0  0  0
  8 11  1  0  0  0  0
  8 13  1  0  0  0  0
  9 10  2  0  0  0  0
  9 17  1  0  0  0  0
 11 14  1  0  0  0  0
 11 15  1  0  0  0  0
 11 16  1  0  0  0  0
 17 18  1  0  0  0  0
 17 25  1  0  0  0  0
 18 19  1  0  0  0  0
 18 21  1  0  0  0  0
 18 26  1  0  0  0  0
 19 20  2  0  0  0  0
 19 29  1  0  0  0  0
 21 22  1  0  0  0  0
 21 27  1  0  0  0  0
 21 28  1  0  0  0  0
 22 23  1  0  0  0  0
 22 24  2  0  0  0  0
 29 30  1  0  0  0  0
 29 34  1  0  0  0  0
 30 31  1  0  0  0  0
 30 33  1  0  0  0  0
 30 35  1  0  0  0  0
 31 32  2  0  0  0  0
 31 39  1  0  0  0  0
 33 36  1  0  0  0  0
 33 37  1  0  0  0  0
 33 38  1  0  0  0  0
 39 40  1  0  0  0  0
 39 41  1  0  0  0  0
 40 42  1  0  0  0  0
 40 43  1  0  0  0  0
 40 44  1  0  0  0  0
M  CHG  1  23  -1
M  END
$$$$

  -OEChem-05262215553D

 44 43  0     1  0  0  0  0  0999 V2000
   -2.9599   -1.2043   -1.6287 C   0  0  0  0  0  0  0  0  0  0  0  0
   -2.3601   -2.2710   -1.6322 O   0  0  0  0  0  0  0  0  0  0  0  0
   -3.9174   -0.8827   -0.4965 C   0  0  0  0  0  0  0  0  0  0  0  0
   -4.7100   -0.2199   -0.8526 H   0  0  0  0  0  0  0  0  0  0  0  0
   -4.3696   -1.8001   -0.1119 H   0  0  0  0  0  0  0  0  0  0  0  0
   -3.3816   -0.3815    0.3130 H   0  0  0  0  0  0  0  0  0  0  0  0
   -2.6784   -0.2712   -2.6019 N   0  0  0  0  0  0  0  0  0  0  0  0
   -1.6930   -0.4761   -3.6808 C   0  0  2  0  0  0  0  0  0  0  0  0
   -0.2294   -0.2620   -3.2214 C   0  0  0  0  0  0  0  0  0  0  0  0
    0.6323    0.1688   -3.9797 O   0  0  0  0  0  0  0  0  0  0  0  0
   -2.0822    0.4784   -4.8155 C   0  0  0  0  0  0  0  0  0  0  0  0
   -2.8739    0.7001   -2.3237 H   0  0  0  0  0  0  0  0  0  0  0  0
   -1.7671   -1.5018   -4.0541 H   0  0  0  0  0  0  0  0  0  0  0  0
   -1.9726    1.5188   -4.4904 H   0  0  0  0  0  0  0  0  0  0  0  0
   -1.4400    0.3192   -5.6871 H   0  0  0  0  0  0  0  0  0  0  0  0
   -3.1209    0.3123   -5.1155 H   0  0  0  0  0  0  0  0  0  0  0  0
    0.1504   -0.6419   -1.9495 N   0  0  0  0  0  0  0  0  0  0  0  0
    0.7984    0.3383   -1.0614 C   0  0  2  0  0  0  0  0  0  0  0  0
    1.7762   -0.3685   -0.0906 C   0  0  0  0  0  0  0  0  0  0  0  0
    2.8378   -0.8387   -0.4845 O   0  0  0  0  0  0  0  0  0  0  0  0
   -0.3166    1.0536   -0.2492 C   0  0  0  0  0  0  0  0  0  0  0  0
   -1.2294    1.9811   -1.0446 C   0  0  0  0  0  0  0  0  0  0  0  0
   -0.7888    2.5549   -2.0613 O   0  5  0  0  0  0  0  0  0  0  0  0
   -2.4440    1.9458   -0.7277 O   0  0  0  0  0  0  0  0  0  0  0  0
   -0.5731   -1.2103   -1.5092 H   0  0  0  0  0  0  0  0  0  0  0  0
    1.3697    1.0742   -1.6406 H   0  0  0  0  0  0  0  0  0  0  0  0
    0.1536    1.6770    0.5158 H   0  0  0  0  0  0  0  0  0  0  0  0
   -0.9338    0.3054    0.2564 H   0  0  0  0  0  0  0  0  0  0  0  0
    1.4601   -0.5574    1.2454 N   0  0  0  0  0  0  0  0  0  0  0  0
    2.3276   -1.2155    2.2346 C   0  0  2  0  0  0  0  0  0  0  0  0
    2.3030   -2.7625    2.1325 C   0  0  0  0  0  0  0  0  0  0  0  0
    2.1301   -3.4721    3.1189 O   0  0  0  0  0  0  0  0  0  0  0  0
    1.8956   -0.7010    3.6135 C   0  0  0  0  0  0  0  0  0  0  0  0
    0.5493   -0.2196    1.5432 H   0  0  0  0  0  0  0  0  0  0  0  0
    3.3638   -0.9021    2.0689 H   0  0  0  0  0  0  0  0  0  0  0  0
    0.8658   -1.0027    3.8305 H   0  0  0  0  0  0  0  0  0  0  0  0
    2.5481   -1.1068    4.3930 H   0  0  0  0  0  0  0  0  0  0  0  0
    1.9561    0.3912    3.6486 H   0  0  0  0  0  0  0  0  0  0  0  0
    2.5099   -3.3615    0.9057 N   0  0  0  0  0  0  0  0  0  0  0  0
    2.5123   -4.7981    0.6777 C   0  0  0  0  0  0  0  0  0  0  0  0
    2.6834   -2.7262    0.1205 H   0  0  0  0  0  0  0  0  0  0  0  0
    3.3262   -5.2721    1.2355 H   0  0  0  0  0  0  0  0  0  0  0  0
    1.5610   -5.2382    0.9939 H   0  0  0  0  0  0  0  0  0  0  0  0
    2.6525   -5.0075   -0.3871 H   0  0  0  0  0  0  0  0  0  0  0  0
  1  2  2  0  0  0  0
  1  3  1  0  0  0  0
  1  7  1  0  0  0  0
  3  4  1  0  0  0  0
  3  5  1  0  0  0  0
  3  6  1  0  0  0  0
  7  8  1  0  0  0  0
  7 12  1  0  0  0  0
  8  9  1  0  0  0  0
  8 11  1  0  0  0  0
  8 13  1  0  0  0  0
  9 10  2  0  0  0  0
  9 17  1  0  0  0  0
 11 14  1  0  0  0  0
 11 15  1  0  0  0  0
 11 16  1  0  0  0  0
 17 18  1  0  0  0  0
 17 25  1  0  0  0  0
 18 19  1  0  0  0  0
 18 21  1  0  0  0  0
 18 26  1  0  0  0  0
 19 20  2  0  0  0  0
 19 29  1  0  0  0  0
 21 22  1  0  0  0  0
 21 27  1  0  0  0  0
 21 28  1  0  0  0  0
 22 23  1  0  0  0  0
 22 24  2  0  0  0  0
 29 30  1  0  0  0  0
 29 34  1  0  0  0  0
 30 31  1  0  0  0  0
 30 33  1  0  0  0  0
 30 35  1  0  0  0  0
 31 32  2  0  0  0  0
 31 39  1  0  0  0  0
 33 36  1  0  0  0  0
 33 37  1  0  0  0  0
 33 38  1  0  0  0  0
 39 40  1  0  0  0  0
 39 41  1  0  0  0  0
 40 42  1  0  0  0  0
 40 43  1  0  0  0  0
 40 44  1  0  0  0  0
M  CHG  1  23  -1
M  END
$$$$

  -OEChem-05262215553D

 44 43  0     1  0  0  0  0  0999 V2000
   -3.1170   -1.0667   -1.6787 C   0  0  0  0  0  0  0  0  0  0  0  0
   -2.5664   -2.1597   -1.6943 O   0  0  0  0  0  0  0  0  0  0  0  0
   -4.0637   -0.7163   -0.5457 C   0  0  0  0  0  0  0  0  0  0  0  0
   -4.8092    0.0046   -0.8907 H   0  0  0  0  0  0  0  0  0  0  0  0
   -4.5771   -1.6134   -0.1910 H   0  0  0  0  0  0  0  0  0  0  0  0
   -3.5064   -0.2720    0.2826 H   0  0  0  0  0  0  0  0  0  0  0  0
   -2.7957   -0.1386   -2.6445 N   0  0  0  0  0  0  0  0  0  0  0  0
   -1.8362   -0.3835   -3.7377 C   0  0  2  0  0  0  0  0  0  0  0  0
   -0.3586   -0.2485   -3.2952 C   0  0  0  0  0  0  0  0  0  0  0  0
    0.5141    0.1491   -4.0586 O   0  0  0  0  0  0  0  0  0  0  0  0
   -2.1911    0.5993   -4.8595 C   0  0  0  0  0  0  0  0  0  0  0  0
   -2.9340    0.8383   -2.3524 H   0  0  0  0  0  0  0  0  0  0  0  0
   -1.9660   -1.4013   -4.1180 H   0  0  0  0  0  0  0  0  0  0  0  0
   -2.0208    1.6295   -4.5280 H   0  0  0  0  0  0  0  0  0  0  0  0
   -1.5717    0.4132   -5.7423 H   0  0  0  0  0  0  0  0  0  0  0  0
   -3.2417    0.4918   -5.1452 H   0  0  0  0  0  0  0  0  0  0  0  0
    0.0206   -0.6815   -2.0404 N   0  0  0  0  0  0  0  0  0  0  0  0
    0.7284    0.2433   -1.1391 C   0  0  2  0  0  0  0  0  0  0  0  0
    1.6851   -0.5313   -0.2030 C   0  0  0  0  0  0  0  0  0  0  0  0
    2.8357   -0.7881   -0.5393 O   0  0  0  0  0  0  0  0  0  0  0  0
   -0.3312    0.9881   -0.2825 C   0  0  0  0  0  0  0  0  0  0  0  0
   -1.2133    1.9805   -1.0340 C   0  0  0  0  0  0  0  0  0  0  0  0
   -0.7655    2.5586   -2.0451 O   0  5  0  0  0  0  0  0  0  0  0  0
   -2.4219    1.9972   -0.6934 O   0  0  0  0  0  0  0  0  0  0  0  0
   -0.7287   -1.2184   -1.6034 H   0  0  0  0  0  0  0  0  0  0  0  0
    1.3240    0.9670   -1.7097 H   0  0  0  0  0  0  0  0  0  0  0  0
    0.1862    1.5576    0.4942 H   0  0  0  0  0  0  0  0  0  0  0  0
   -0.9787    0.2581    0.2110 H   0  0  0  0  0  0  0  0  0  0  0  0
    1.2619   -1.0041    1.0291 N   0  0  0  0  0  0  0  0  0  0  0  0
    2.1143   -1.7169    1.9944 C   0  0  2  0  0  0  0  0  0  0  0  0
    2.3202   -3.2109    1.6349 C   0  0  0  0  0  0  0  0  0  0  0  0
    2.1350   -4.1043    2.4558 O   0  0  0  0  0  0  0  0  0  0  0  0
    1.4887   -1.5176    3.3807 C   0  0  0  0  0  0  0  0  0  0  0  0
    0.2925   -0.8232    1.2729 H   0  0  0  0  0  0  0  0  0  0  0  0
    3.1062   -1.2533    2.0062 H   0  0  0  0  0  0  0  0  0  0  0  0
    0.5009   -1.9868    3.4277 H   0  0  0  0  0  0  0  0  0  0  0  0
    2.1231   -1.9665    4.1514 H   0  0  0  0  0  0  0  0  0  0  0  0
    1.3817   -0.4511    3.6016 H   0  0  0  0  0  0  0  0  0  0  0  0
    2.7504   -3.5465    0.3666 N   0  0  0  0  0  0  0  0  0  0  0  0
    2.9522   -4.9086   -0.1019 C   0  0  0  0  0  0  0  0  0  0  0  0
    2.9057   -2.7634   -0.2760 H   0  0  0  0  0  0  0  0  0  0  0  0
    3.7488   -5.3959    0.4691 H   0  0  0  0  0  0  0  0  0  0  0  0
    2.0312   -5.4904    0.0057 H   0  0  0  0  0  0  0  0  0  0  0  0
    3.2354   -4.9023   -1.1586 H   0  0  0  0  0  0  0  0  0  0  0  0
  1  2  2  0  0  0  0
  1  3  1  0  0  0  0
  1  7  1  0  0  0  0
  3  4  1  0  0  0  0
  3  5  1  0  0  0  0
  3  6  1  0  0  0  0
  7  8  1  0  0  0  0
  7 12  1  0  0  0  0
  8  9  1  0  0  0  0
  8 11  1  0  0  0  0
  8 13  1  0  0  0  0
  9 10  2  0  0  0  0
  9 17  1  0  0  0  0
 11 14  1  0  0  0  0
 11 15  1  0  0  0  0
 11 16  1  0  0  0  0
 17 18  1  0  0  0  0
 17 25  1  0  0  0  0
 18 19  1  0  0  0  0
 18 21  1  0  0  0  0
 18 26  1  0  0  0  0
 19 20  2  0  0  0  0
 19 29  1  0  0  0  0
 21 22  1  0  0  0  0
 21 27  1  0  0  0  0
 21 28  1  0  0  0  0
 22 23  1  0  0  0  0
 22 24  2  0  0  0  0
 29 30  1  0  0  0  0
 29 34  1  0  0  0  0
 30 31  1  0  0  0  0
 30 33  1  0  0  0  0
 30 35  1  0  0  0  0
 31 32  2  0  0  0  0
 31 39  1  0  0  0  0
 33 36  1  0  0  0  0
 33 37  1  0  0  0  0
 33 38  1  0  0  0  0
 39 40  1  0  0  0  0
 39 41  1  0  0  0  0
 40 42  1  0  0  0  0
 40 43  1  0  0  0  0
 40 44  1  0  0  0  0
M  CHG  1  23  -1
M  END
$$$$

  -OEChem-05262215553D

 44 43  0     1  0  0  0  0  0999 V2000
   -3.2511   -0.9635   -1.7249 C   0  0  0  0  0  0  0  0  0  0  0  0
   -2.7162   -2.0642   -1.7570 O   0  0  0  0  0  0  0  0  0  0  0  0
   -4.1947   -0.6183   -0.5875 C   0  0  0  0  0  0  0  0  0  0  0  0
   -4.9087    0.1432   -0.9110 H   0  0  0  0  0  0  0  0  0  0  0  0
   -4.7460   -1.5072   -0.2713 H   0  0  0  0  0  0  0  0  0  0  0  0
   -3.6289   -0.2267    0.2614 H   0  0  0  0  0  0  0  0  0  0  0  0
   -2.9226   -0.0282   -2.6815 N   0  0  0  0  0  0  0  0  0  0  0  0
   -1.9925   -0.2776   -3.7987 C   0  0  2  0  0  0  0  0  0  0  0  0
   -0.5020   -0.2067   -3.3863 C   0  0  0  0  0  0  0  0  0  0  0  0
    0.3707    0.1672   -4.1618 O   0  0  0  0  0  0  0  0  0  0  0  0
   -2.3321    0.7463   -4.8873 C   0  0  0  0  0  0  0  0  0  0  0  0
   -3.0300    0.9461   -2.3697 H   0  0  0  0  0  0  0  0  0  0  0  0
   -2.1676   -1.2795   -4.2020 H   0  0  0  0  0  0  0  0  0  0  0  0
   -2.1196    1.7604   -4.5319 H   0  0  0  0  0  0  0  0  0  0  0  0
   -1.7350    0.5625   -5.7857 H   0  0  0  0  0  0  0  0  0  0  0  0
   -3.3905    0.6830   -5.1564 H   0  0  0  0  0  0  0  0  0  0  0  0
   -0.1102   -0.6887   -2.1541 N   0  0  0  0  0  0  0  0  0  0  0  0
    0.6454    0.1912   -1.2467 C   0  0  2  0  0  0  0  0  0  0  0  0
    1.5961   -0.6391   -0.3582 C   0  0  0  0  0  0  0  0  0  0  0  0
    2.8032   -0.6726   -0.5711 O   0  0  0  0  0  0  0  0  0  0  0  0
   -0.3615    0.9358   -0.3313 C   0  0  0  0  0  0  0  0  0  0  0  0
   -1.2396    1.9731   -1.0249 C   0  0  0  0  0  0  0  0  0  0  0  0
   -0.8091    2.5678   -2.0345 O   0  5  0  0  0  0  0  0  0  0  0  0
   -2.4363    2.0109   -0.6461 O   0  0  0  0  0  0  0  0  0  0  0  0
   -0.8748   -1.2025   -1.7152 H   0  0  0  0  0  0  0  0  0  0  0  0
    1.2467    0.9151   -1.8112 H   0  0  0  0  0  0  0  0  0  0  0  0
    0.2006    1.4664    0.4418 H   0  0  0  0  0  0  0  0  0  0  0  0
   -1.0110    0.2107    0.1667 H   0  0  0  0  0  0  0  0  0  0  0  0
    1.1091   -1.3842    0.7032 N   0  0  0  0  0  0  0  0  0  0  0  0
    1.9440   -2.1517    1.6408 C   0  0  2  0  0  0  0  0  0  0  0  0
    2.4211   -3.5092    1.0635 C   0  0  0  0  0  0  0  0  0  0  0  0
    2.2974   -4.5576    1.6897 O   0  0  0  0  0  0  0  0  0  0  0  0
    1.1375   -2.3037    2.9360 C   0  0  0  0  0  0  0  0  0  0  0  0
    0.1026   -1.3735    0.8403 H   0  0  0  0  0  0  0  0  0  0  0  0
    2.8438   -1.5730    1.8736 H   0  0  0  0  0  0  0  0  0  0  0  0
    0.2364   -2.8999    2.7596 H   0  0  0  0  0  0  0  0  0  0  0  0
    1.7396   -2.8023    3.7021 H   0  0  0  0  0  0  0  0  0  0  0  0
    0.8402   -1.3218    3.3171 H   0  0  0  0  0  0  0  0  0  0  0  0
    3.0348   -3.5383   -0.1730 N   0  0  0  0  0  0  0  0  0  0  0  0
    3.5129   -4.7455   -0.8282 C   0  0  0  0  0  0  0  0  0  0  0  0
    3.1357   -2.6342   -0.6448 H   0  0  0  0  0  0  0  0  0  0  0  0
    4.3079   -5.2116   -0.2377 H   0  0  0  0  0  0  0  0  0  0  0  0
    2.6949   -5.4624   -0.9521 H   0  0  0  0  0  0  0  0  0  0  0  0
    3.9117   -4.5018   -1.8174 H   0  0  0  0  0  0  0  0  0  0  0  0
  1  2  2  0  0  0  0
  1  3  1  0  0  0  0
  1  7  1  0  0  0  0
  3  4  1  0  0  0  0
  3  5  1  0  0  0  0
  3  6  1  0  0  0  0
  7  8  1  0  0  0  0
  7 12  1  0  0  0  0
  8  9  1  0  0  0  0
  8 11  1  0  0  0  0
  8 13  1  0  0  0  0
  9 10  2  0  0  0  0
  9 17  1  0  0  0  0
 11 14  1  0  0  0  0
 11 15  1  0  0  0  0
 11 16  1  0  0  0  0
 17 18  1  0  0  0  0
 17 25  1  0  0  0  0
 18 19  1  0  0  0  0
 18 21  1  0  0  0  0
 18 26  1  0  0  0  0
 19 20  2  0  0  0  0
 19 29  1  0  0  0  0
 21 22  1  0  0  0  0
 21 27  1  0  0  0  0
 21 28  1  0  0  0  0
 22 23  1  0  0  0  0
 22 24  2  0  0  0  0
 29 30  1  0  0  0  0
 29 34  1  0  0  0  0
 30 31  1  0  0  0  0
 30 33  1  0  0  0  0
 30 35  1  0  0  0  0
 31 32  2  0  0  0  0
 31 39  1  0  0  0  0
 33 36  1  0  0  0  0
 33 37  1  0  0  0  0
 33 38  1  0  0  0  0
 39 40  1  0  0  0  0
 39 41  1  0  0  0  0
 40 42  1  0  0  0  0
 40 43  1  0  0  0  0
 40 44  1  0  0  0  0
M  CHG  1  23  -1
M  END
$$$$

  -OEChem-05262215553D

 44 43  0     1  0  0  0  0  0999 V2000
   -3.3571   -0.9427   -1.7697 C   0  0  0  0  0  0  0  0  0  0  0  0
   -2.8208   -2.0389   -1.8705 O   0  0  0  0  0  0  0  0  0  0  0  0
   -4.2297   -0.6440   -0.5648 C   0  0  0  0  0  0  0  0  0  0  0  0
   -3.6113   -0.2960    0.2663 H   0  0  0  0  0  0  0  0  0  0  0  0
   -4.9543    0.1363   -0.8107 H   0  0  0  0  0  0  0  0  0  0  0  0
   -4.7693   -1.5431   -0.2574 H   0  0  0  0  0  0  0  0  0  0  0  0
   -3.0756    0.0319   -2.7024 N   0  0  0  0  0  0  0  0  0  0  0  0
   -2.1962   -0.1654   -3.8718 C   0  0  2  0  0  0  0  0  0  0  0  0
   -0.6870   -0.1353   -3.5242 C   0  0  0  0  0  0  0  0  0  0  0  0
    0.1618    0.2400   -4.3249 O   0  0  0  0  0  0  0  0  0  0  0  0
   -2.5640    0.9226   -4.8867 C   0  0  0  0  0  0  0  0  0  0  0  0
   -3.1691    0.9921   -2.3447 H   0  0  0  0  0  0  0  0  0  0  0  0
   -2.4039   -1.1412   -4.3215 H   0  0  0  0  0  0  0  0  0  0  0  0
   -2.3234    1.9126   -4.4844 H   0  0  0  0  0  0  0  0  0  0  0  0
   -2.0052    0.7825   -5.8171 H   0  0  0  0  0  0  0  0  0  0  0  0
   -3.6330    0.8879   -5.1158 H   0  0  0  0  0  0  0  0  0  0  0  0
   -0.2577   -0.6600   -2.3232 N   0  0  0  0  0  0  0  0  0  0  0  0
    0.5447    0.1792   -1.4179 C   0  0  2  0  0  0  0  0  0  0  0  0
    1.5118   -0.6927   -0.5922 C   0  0  0  0  0  0  0  0  0  0  0  0
    2.7238   -0.5064   -0.6122 O   0  0  0  0  0  0  0  0  0  0  0  0
   -0.4119    0.8958   -0.4323 C   0  0  0  0  0  0  0  0  0  0  0  0
   -1.3084    1.9643   -1.0508 C   0  0  0  0  0  0  0  0  0  0  0  0
   -0.9143    2.5901   -2.0567 O   0  5  0  0  0  0  0  0  0  0  0  0
   -2.4901    1.9938   -0.6264 O   0  0  0  0  0  0  0  0  0  0  0  0
   -1.0202   -1.1662   -1.8731 H   0  0  0  0  0  0  0  0  0  0  0  0
    1.1324    0.9157   -1.9804 H   0  0  0  0  0  0  0  0  0  0  0  0
    0.1895    1.3933    0.3334 H   0  0  0  0  0  0  0  0  0  0  0  0
   -1.0416    0.1565    0.0702 H   0  0  0  0  0  0  0  0  0  0  0  0
    1.0186   -1.6821    0.2424 N   0  0  0  0  0  0  0  0  0  0  0  0
    1.8314   -2.4743    1.1781 C   0  0  2  0  0  0  0  0  0  0  0  0
    2.6223   -3.6147    0.4871 C   0  0  0  0  0  0  0  0  0  0  0  0
    2.5707   -4.7737    0.8878 O   0  0  0  0  0  0  0  0  0  0  0  0
    0.8804   -2.9832    2.2686 C   0  0  0  0  0  0  0  0  0  0  0  0
    0.0155   -1.8399    0.2137 H   0  0  0  0  0  0  0  0  0  0  0  0
    2.5685   -1.8192    1.6545 H   0  0  0  0  0  0  0  0  0  0  0  0
    0.1357   -3.6630    1.8418 H   0  0  0  0  0  0  0  0  0  0  0  0
    1.4398   -3.5208    3.0406 H   0  0  0  0  0  0  0  0  0  0  0  0
    0.3599   -2.1449    2.7417 H   0  0  0  0  0  0  0  0  0  0  0  0
    3.4368   -3.3150   -0.5867 N   0  0  0  0  0  0  0  0  0  0  0  0
    4.1858   -4.2986   -1.3527 C   0  0  0  0  0  0  0  0  0  0  0  0
    3.4371   -2.3356   -0.8876 H   0  0  0  0  0  0  0  0  0  0  0  0
    4.8765   -4.8451   -0.7028 H   0  0  0  0  0  0  0  0  0  0  0  0
    3.5042   -5.0117   -1.8271 H   0  0  0  0  0  0  0  0  0  0  0  0
    4.7670   -3.8006   -2.1348 H   0  0  0  0  0  0  0  0  0  0  0  0
  1  2  2  0  0  0  0
  1  3  1  0  0  0  0
  1  7  1  0  0  0  0
  3  4  1  0  0  0  0
  3  5  1  0  0  0  0
  3  6  1  0  0  0  0
  7  8  1  0  0  0  0
  7 12  1  0  0  0  0
  8  9  1  0  0  0  0
  8 11  1  0  0  0  0
  8 13  1  0  0  0  0
  9 10  2  0  0  0  0
  9 17  1  0  0  0  0
 11 14  1  0  0  0  0
 11 15  1  0  0  0  0
 11 16  1  0  0  0  0
 17 18  1  0  0  0  0
 17 25  1  0  0  0  0
 18 19  1  0  0  0  0
 18 21  1  0  0  0  0
 18 26  1  0  0  0  0
 19 20  2  0  0  0  0
 19 29  1  0  0  0  0
 21 22  1  0  0  0  0
 21 27  1  0  0  0  0
 21 28  1  0  0  0  0
 22 23  1  0  0  0  0
 22 24  2  0  0  0  0
 29 30  1  0  0  0  0
 29 34  1  0  0  0  0
 30 31  1  0  0  0  0
 30 33  1  0  0  0  0
 30 35  1  0  0  0  0
 31 32  2  0  0  0  0
 31 39  1  0  0  0  0
 33 36  1  0  0  0  0
 33 37  1  0  0  0  0
 33 38  1  0  0  0  0
 39 40  1  0  0  0  0
 39 41  1  0  0  0  0
 40 42  1  0  0  0  0
 40 43  1  0  0  0  0
 40 44  1  0  0  0  0
M  CHG  1  23  -1
M  END
$$$$

  -OEChem-05262215553D

 44 43  0     1  0  0  0  0  0999 V2000
   -3.4368   -0.8927   -1.7456 C   0  0  0  0  0  0  0  0  0  0  0  0
   -2.9017   -1.9898   -1.8478 O   0  0  0  0  0  0  0  0  0  0  0  0
   -4.2466   -0.5679   -0.5045 C   0  0  0  0  0  0  0  0  0  0  0  0
   -3.5761   -0.3073    0.3185 H   0  0  0  0  0  0  0  0  0  0  0  0
   -4.9063    0.2821   -0.6975 H   0  0  0  0  0  0  0  0  0  0  0  0
   -4.8549   -1.4282   -0.2152 H   0  0  0  0  0  0  0  0  0  0  0  0
   -3.1987    0.0639   -2.7088 N   0  0  0  0  0  0  0  0  0  0  0  0
   -2.3745   -0.1560   -3.9136 C   0  0  2  0  0  0  0  0  0  0  0  0
   -0.8520   -0.1210   -3.6343 C   0  0  0  0  0  0  0  0  0  0  0  0
   -0.0367    0.2252   -4.4818 O   0  0  0  0  0  0  0  0  0  0  0  0
   -2.7893    0.9124   -4.9308 C   0  0  0  0  0  0  0  0  0  0  0  0
   -3.2689    1.0301   -2.3617 H   0  0  0  0  0  0  0  0  0  0  0  0
   -2.6019   -1.1400   -4.3344 H   0  0  0  0  0  0  0  0  0  0  0  0
   -2.5341    1.9102   -4.5571 H   0  0  0  0  0  0  0  0  0  0  0  0
   -2.2718    0.7564   -5.8824 H   0  0  0  0  0  0  0  0  0  0  0  0
   -3.8674    0.8706   -5.1118 H   0  0  0  0  0  0  0  0  0  0  0  0
   -0.3739   -0.6230   -2.4423 N   0  0  0  0  0  0  0  0  0  0  0  0
    0.4811    0.2275   -1.5977 C   0  0  2  0  0  0  0  0  0  0  0  0
    1.4764   -0.6341   -0.7956 C   0  0  0  0  0  0  0  0  0  0  0  0
    2.6535   -0.3116   -0.6747 O   0  0  0  0  0  0  0  0  0  0  0  0
   -0.4238    0.9586   -0.5763 C   0  0  0  0  0  0  0  0  0  0  0  0
   -1.3522    2.0162   -1.1661 C   0  0  0  0  0  0  0  0  0  0  0  0
   -1.0093    2.6247   -2.2013 O   0  5  0  0  0  0  0  0  0  0  0  0
   -2.5135    2.0475   -0.6884 O   0  0  0  0  0  0  0  0  0  0  0  0
   -1.1295   -1.0923   -1.9436 H   0  0  0  0  0  0  0  0  0  0  0  0
    1.0444    0.9511   -2.2004 H   0  0  0  0  0  0  0  0  0  0  0  0
    0.2155    1.4702    0.1483 H   0  0  0  0  0  0  0  0  0  0  0  0
   -1.0225    0.2256   -0.0282 H   0  0  0  0  0  0  0  0  0  0  0  0
    1.0465   -1.7853   -0.1569 N   0  0  0  0  0  0  0  0  0  0  0  0
    1.8851   -2.6281    0.7085 C   0  0  2  0  0  0  0  0  0  0  0  0
    2.8322   -3.5648   -0.0843 C   0  0  0  0  0  0  0  0  0  0  0  0
    2.9164   -4.7629    0.1684 O   0  0  0  0  0  0  0  0  0  0  0  0
    0.9348   -3.3893    1.6410 C   0  0  0  0  0  0  0  0  0  0  0  0
    0.0870   -2.0691   -0.3319 H   0  0  0  0  0  0  0  0  0  0  0  0
    2.5191   -1.9852    1.3278 H   0  0  0  0  0  0  0  0  0  0  0  0
    0.2922   -4.0640    1.0660 H   0  0  0  0  0  0  0  0  0  0  0  0
    1.5041   -3.9825    2.3635 H   0  0  0  0  0  0  0  0  0  0  0  0
    0.3020   -2.6886    2.1944 H   0  0  0  0  0  0  0  0  0  0  0  0
    3.6296   -3.0346   -1.0793 N   0  0  0  0  0  0  0  0  0  0  0  0
    4.5544   -3.8076   -1.8939 C   0  0  0  0  0  0  0  0  0  0  0  0
    3.5475   -2.0246   -1.2294 H   0  0  0  0  0  0  0  0  0  0  0  0
    5.3582   -4.2170   -1.2740 H   0  0  0  0  0  0  0  0  0  0  0  0
    4.0321   -4.6330   -2.3884 H   0  0  0  0  0  0  0  0  0  0  0  0
    4.9988   -3.1701   -2.6640 H   0  0  0  0  0  0  0  0  0  0  0  0
  1  2  2  0  0  0  0
  1  3  1  0  0  0  0
  1  7  1  0  0  0  0
  3  4  1  0  0  0  0
  3  5  1  0  0  0  0
  3  6  1  0  0  0  0
  7  8  1  0  0  0  0
  7 12  1  0  0  0  0
  8  9  1  0  0  0  0
  8 11  1  0  0  0  0
  8 13  1  0  0  0  0
  9 10  2  0  0  0  0
  9 17  1  0  0  0  0
 11 14  1  0  0  0  0
 11 15  1  0  0  0  0
 11 16  1  0  0  0  0
 17 18  1  0  0  0  0
 17 25  1  0  0  0  0
 18 19  1  0  0  0  0
 18 21  1  0  0  0  0
 18 26  1  0  0  0  0
 19 20  2  0  0  0  0
 19 29  1  0  0  0  0
 21 22  1  0  0  0  0
 21 27  1  0  0  0  0
 21 28  1  0  0  0  0
 22 23  1  0  0  0  0
 22 24  2  0  0  0  0
 29 30  1  0  0  0  0
 29 34  1  0  0  0  0
 30 31  1  0  0  0  0
 30 33  1  0  0  0  0
 30 35  1  0  0  0  0
 31 32  2  0  0  0  0
 31 39  1  0  0  0  0
 33 36  1  0  0  0  0
 33 37  1  0  0  0  0
 33 38  1  0  0  0  0
 39 40  1  0  0  0  0
 39 41  1  0  0  0  0
 40 42  1  0  0  0  0
 40 43  1  0  0  0  0
 40 44  1  0  0  0  0
M  CHG  1  23  -1
M  END
$$$$

  -OEChem-05262215553D

 44 43  0     1  0  0  0  0  0999 V2000
   -3.5196   -0.8305   -1.6378 C   0  0  0  0  0  0  0  0  0  0  0  0
   -3.0136   -1.9420   -1.7323 O   0  0  0  0  0  0  0  0  0  0  0  0
   -4.2161   -0.4294   -0.3514 C   0  0  0  0  0  0  0  0  0  0  0  0
   -3.4833   -0.0503    0.3653 H   0  0  0  0  0  0  0  0  0  0  0  0
   -4.9481    0.3575   -0.5506 H   0  0  0  0  0  0  0  0  0  0  0  0
   -4.7312   -1.2894    0.0833 H   0  0  0  0  0  0  0  0  0  0  0  0
   -3.3451    0.0759   -2.6609 N   0  0  0  0  0  0  0  0  0  0  0  0
   -2.6170   -0.2140   -3.9119 C   0  0  2  0  0  0  0  0  0  0  0  0
   -1.0778   -0.1923   -3.7476 C   0  0  0  0  0  0  0  0  0  0  0  0
   -0.3215    0.0654   -4.6772 O   0  0  0  0  0  0  0  0  0  0  0  0
   -3.0907    0.8125   -4.9463 C   0  0  0  0  0  0  0  0  0  0  0  0
   -3.3777    1.0590   -2.3567 H   0  0  0  0  0  0  0  0  0  0  0  0
   -2.8876   -1.2128   -4.2672 H   0  0  0  0  0  0  0  0  0  0  0  0
   -2.8016    1.8230   -4.6374 H   0  0  0  0  0  0  0  0  0  0  0  0
   -2.6421    0.6075   -5.9232 H   0  0  0  0  0  0  0  0  0  0  0  0
   -4.1789    0.7759   -5.0511 H   0  0  0  0  0  0  0  0  0  0  0  0
   -0.5177   -0.6205   -2.5624 N   0  0  0  0  0  0  0  0  0  0  0  0
    0.4122    0.2711   -1.8482 C   0  0  2  0  0  0  0  0  0  0  0  0
    1.4581   -0.5451   -1.0620 C   0  0  0  0  0  0  0  0  0  0  0  0
    2.5731   -0.0942   -0.8212 O   0  0  0  0  0  0  0  0  0  0  0  0
   -0.4075    1.0834   -0.8164 C   0  0  0  0  0  0  0  0  0  0  0  0
   -1.3670    2.1110   -1.4102 C   0  0  0  0  0  0  0  0  0  0  0  0
   -1.0934    2.6401   -2.5082 O   0  5  0  0  0  0  0  0  0  0  0  0
   -2.4944    2.1844   -0.8606 O   0  0  0  0  0  0  0  0  0  0  0  0
   -1.2466   -1.0209   -1.9723 H   0  0  0  0  0  0  0  0  0  0  0  0
    0.9355    0.9414   -2.5415 H   0  0  0  0  0  0  0  0  0  0  0  0
    0.2877    1.6358   -0.1786 H   0  0  0  0  0  0  0  0  0  0  0  0
   -0.9684    0.3974   -0.1752 H   0  0  0  0  0  0  0  0  0  0  0  0
    1.1410   -1.7984   -0.5662 N   0  0  0  0  0  0  0  0  0  0  0  0
    2.0389   -2.6304    0.2490 C   0  0  2  0  0  0  0  0  0  0  0  0
    3.1293   -3.3461   -0.5884 C   0  0  0  0  0  0  0  0  0  0  0  0
    3.3061   -4.5588   -0.5226 O   0  0  0  0  0  0  0  0  0  0  0  0
    1.1519   -3.6035    1.0350 C   0  0  0  0  0  0  0  0  0  0  0  0
    0.2588   -2.1940   -0.8796 H   0  0  0  0  0  0  0  0  0  0  0  0
    2.5590   -1.9940    0.9726 H   0  0  0  0  0  0  0  0  0  0  0  0
    0.6165   -4.2717    0.3529 H   0  0  0  0  0  0  0  0  0  0  0  0
    1.7603   -4.2119    1.7114 H   0  0  0  0  0  0  0  0  0  0  0  0
    0.4193   -3.0523    1.6324 H   0  0  0  0  0  0  0  0  0  0  0  0
    3.9433   -2.5956   -1.4136 N   0  0  0  0  0  0  0  0  0  0  0  0
    4.9423   -3.1537   -2.3119 C   0  0  0  0  0  0  0  0  0  0  0  0
    3.7431   -1.5915   -1.4449 H   0  0  0  0  0  0  0  0  0  0  0  0
    5.6896   -3.7219   -1.7491 H   0  0  0  0  0  0  0  0  0  0  0  0
    4.4698   -3.8164   -3.0441 H   0  0  0  0  0  0  0  0  0  0  0  0
    5.4526   -2.3497   -2.8509 H   0  0  0  0  0  0  0  0  0  0  0  0
  1  2  2  0  0  0  0
  1  3  1  0  0  0  0
  1  7  1  0  0  0  0
  3  4  1  0  0  0  0
  3  5  1  0  0  0  0
  3  6  1  0  0  0  0
  7  8  1  0  0  0  0
  7 12  1  0  0  0  0
  8  9  1  0  0  0  0
  8 11  1  0  0  0  0
  8 13  1  0  0  0  0
  9 10  2  0  0  0  0
  9 17  1  0  0  0  0
 11 14  1  0  0  0  0
 11 15  1  0  0  0  0
 11 16  1  0  0  0  0
 17 18  1  0  0  0  0
 17 25  1  0  0  0  0
 18 19  1  0  0  0  0
 18 21  1  0  0  0  0
 18 26  1  0  0  0  0
 19 20  2  0  0  0  0
 19 29  1  0  0  0  0
 21 22  1  0  0  0  0
 21 27  1  0  0  0  0
 21 28  1  0  0  0  0
 22 23  1  0  0  0  0
 22 24  2  0  0  0  0
 29 30  1  0  0  0  0
 29 34  1  0  0  0  0
 30 31  1  0  0  0  0
 30 33  1  0  0  0  0
 30 35  1  0  0  0  0
 31 32  2  0  0  0  0
 31 39  1  0  0  0  0
 33 36  1  0  0  0  0
 33 37  1  0  0  0  0
 33 38  1  0  0  0  0
 39 40  1  0  0  0  0
 39 41  1  0  0  0  0
 40 42  1  0  0  0  0
 40 43  1  0  0  0  0
 40 44  1  0  0  0  0
M  CHG  1  23  -1
M  END
$$$$

  -OEChem-05262215553D

 44 43  0     1  0  0  0  0  0999 V2000
   -3.5814   -0.7539   -1.6040 C   0  0  0  0  0  0  0  0  0  0  0  0
   -3.0959   -1.8697   -1.7426 O   0  0  0  0  0  0  0  0  0  0  0  0
   -4.2131   -0.3671   -0.2800 C   0  0  0  0  0  0  0  0  0  0  0  0
   -4.9644    0.4115   -0.4357 H   0  0  0  0  0  0  0  0  0  0  0  0
   -4.6930   -1.2359    0.1771 H   0  0  0  0  0  0  0  0  0  0  0  0
   -3.4482    0.0183    0.3990 H   0  0  0  0  0  0  0  0  0  0  0  0
   -3.4415    0.1680   -2.6184 N   0  0  0  0  0  0  0  0  0  0  0  0
   -2.7661   -0.1098   -3.9005 C   0  0  2  0  0  0  0  0  0  0  0  0
   -1.2217   -0.0931   -3.7984 C   0  0  0  0  0  0  0  0  0  0  0  0
   -0.5050    0.1541   -4.7616 O   0  0  0  0  0  0  0  0  0  0  0  0
   -3.2785    0.9272   -4.9056 C   0  0  0  0  0  0  0  0  0  0  0  0
   -3.4540    1.1470   -2.2989 H   0  0  0  0  0  0  0  0  0  0  0  0
   -3.0534   -1.1041   -4.2555 H   0  0  0  0  0  0  0  0  0  0  0  0
   -2.9692    1.9335   -4.6030 H   0  0  0  0  0  0  0  0  0  0  0  0
   -2.8749    0.7259   -5.9027 H   0  0  0  0  0  0  0  0  0  0  0  0
   -4.3706    0.8982   -4.9622 H   0  0  0  0  0  0  0  0  0  0  0  0
   -0.6072   -0.5267   -2.6418 N   0  0  0  0  0  0  0  0  0  0  0  0
    0.3558    0.3648   -1.9689 C   0  0  2  0  0  0  0  0  0  0  0  0
    1.4417   -0.4496   -1.2337 C   0  0  0  0  0  0  0  0  0  0  0  0
    2.4708    0.0764   -0.8218 O   0  0  0  0  0  0  0  0  0  0  0  0
   -0.4229    1.1714   -0.9007 C   0  0  0  0  0  0  0  0  0  0  0  0
   -1.4100    2.1967   -1.4504 C   0  0  0  0  0  0  0  0  0  0  0  0
   -1.1836    2.7294   -2.5576 O   0  5  0  0  0  0  0  0  0  0  0  0
   -2.5149    2.2631   -0.8559 O   0  0  0  0  0  0  0  0  0  0  0  0
   -1.3077   -0.9247   -2.0156 H   0  0  0  0  0  0  0  0  0  0  0  0
    0.8445    1.0390   -2.6833 H   0  0  0  0  0  0  0  0  0  0  0  0
    0.2945    1.7258   -0.2898 H   0  0  0  0  0  0  0  0  0  0  0  0
   -0.9535    0.4803   -0.2394 H   0  0  0  0  0  0  0  0  0  0  0  0
    1.2648   -1.8023   -0.9990 N   0  0  0  0  0  0  0  0  0  0  0  0
    2.2064   -2.6599   -0.2630 C   0  0  2  0  0  0  0  0  0  0  0  0
    3.4371   -3.0749   -1.1088 C   0  0  0  0  0  0  0  0  0  0  0  0
    3.7790   -4.2480   -1.2242 O   0  0  0  0  0  0  0  0  0  0  0  0
    1.4055   -3.8589    0.2591 C   0  0  0  0  0  0  0  0  0  0  0  0
    0.4683   -2.2316   -1.4632 H   0  0  0  0  0  0  0  0  0  0  0  0
    2.5875   -2.1107    0.6043 H   0  0  0  0  0  0  0  0  0  0  0  0
    1.0154   -4.4529   -0.5736 H   0  0  0  0  0  0  0  0  0  0  0  0
    2.0411   -4.5011    0.8766 H   0  0  0  0  0  0  0  0  0  0  0  0
    0.5644   -3.5173    0.8700 H   0  0  0  0  0  0  0  0  0  0  0  0
    4.1895   -2.0952   -1.7260 N   0  0  0  0  0  0  0  0  0  0  0  0
    5.3298   -2.3556   -2.5904 C   0  0  0  0  0  0  0  0  0  0  0  0
    3.8597   -1.1334   -1.6025 H   0  0  0  0  0  0  0  0  0  0  0  0
    6.1126   -2.8884   -2.0414 H   0  0  0  0  0  0  0  0  0  0  0  0
    5.0261   -2.9594   -3.4516 H   0  0  0  0  0  0  0  0  0  0  0  0
    5.7449   -1.4121   -2.9575 H   0  0  0  0  0  0  0  0  0  0  0  0
  1  2  2  0  0  0  0
  1  3  1  0  0  0  0
  1  7  1  0  0  0  0
  3  4  1  0  0  0  0
  3  5  1  0  0  0  0
  3  6  1  0  0  0  0
  7  8  1  0  0  0  0
  7 12  1  0  0  0  0
  8  9  1  0  0  0  0
  8 11  1  0  0  0  0
  8 13  1  0  0  0  0
  9 10  2  0  0  0  0
  9 17  1  0  0  0  0
 11 14  1  0  0  0  0
 11 15  1  0  0  0  0
 11 16  1  0  0  0  0
 17 18  1  0  0  0  0
 17 25  1  0  0  0  0
 18 19  1  0  0  0  0
 18 21  1  0  0  0  0
 18 26  1  0  0  0  0
 19 20  2  0  0  0  0
 19 29  1  0  0  0  0
 21 22  1  0  0  0  0
 21 27  1  0  0  0  0
 21 28  1  0  0  0  0
 22 23  1  0  0  0  0
 22 24  2  0  0  0  0
 29 30  1  0  0  0  0
 29 34  1  0  0  0  0
 30 31  1  0  0  0  0
 30 33  1  0  0  0  0
 30 35  1  0  0  0  0
 31 32  2  0  0  0  0
 31 39  1  0  0  0  0
 33 36  1  0  0  0  0
 33 37  1  0  0  0  0
 33 38  1  0  0  0  0
 39 40  1  0  0  0  0
 39 41  1  0  0  0  0
 40 42  1  0  0  0  0
 40 43  1  0  0  0  0
 40 44  1  0  0  0  0
M  CHG  1  23  -1
M  END
$$$$

  -OEChem-05262215553D

 44 43  0     1  0  0  0  0  0999 V2000
   -3.6063   -0.7505   -1.5165 C   0  0  0  0  0  0  0  0  0  0  0  0
   -3.1106   -1.8647   -1.6285 O   0  0  0  0  0  0  0  0  0  0  0  0
   -4.2010   -0.3184   -0.1895 C   0  0  0  0  0  0  0  0  0  0  0  0
   -3.4205    0.1058    0.4473 H   0  0  0  0  0  0  0  0  0  0  0  0
   -4.9686    0.4424   -0.3534 H   0  0  0  0  0  0  0  0  0  0  0  0
   -4.6535   -1.1736    0.3185 H   0  0  0  0  0  0  0  0  0  0  0  0
   -3.5216    0.1295   -2.5727 N   0  0  0  0  0  0  0  0  0  0  0  0
   -2.8844   -0.1902   -3.8637 C   0  0  2  0  0  0  0  0  0  0  0  0
   -1.3397   -0.1132   -3.8178 C   0  0  0  0  0  0  0  0  0  0  0  0
   -0.6657    0.1040   -4.8184 O   0  0  0  0  0  0  0  0  0  0  0  0
   -3.4690    0.7747   -4.9004 C   0  0  0  0  0  0  0  0  0  0  0  0
   -3.5455    1.1211   -2.2948 H   0  0  0  0  0  0  0  0  0  0  0  0
   -3.1479   -1.2109   -4.1574 H   0  0  0  0  0  0  0  0  0  0  0  0
   -3.1889    1.8058   -4.6592 H   0  0  0  0  0  0  0  0  0  0  0  0
   -3.0906    0.5376   -5.8995 H   0  0  0  0  0  0  0  0  0  0  0  0
   -4.5603    0.7025   -4.9176 H   0  0  0  0  0  0  0  0  0  0  0  0
   -0.6626   -0.4739   -2.6710 N   0  0  0  0  0  0  0  0  0  0  0  0
    0.2918    0.4833   -2.0784 C   0  0  2  0  0  0  0  0  0  0  0  0
    1.4376   -0.2621   -1.3578 C   0  0  0  0  0  0  0  0  0  0  0  0
    2.3565    0.3347   -0.8051 O   0  0  0  0  0  0  0  0  0  0  0  0
   -0.4778    1.3147   -1.0208 C   0  0  0  0  0  0  0  0  0  0  0  0
   -1.5209    2.2768   -1.5812 C   0  0  0  0  0  0  0  0  0  0  0  0
   -1.3525    2.7611   -2.7208 O   0  5  0  0  0  0  0  0  0  0  0  0
   -2.6069    2.3332   -0.9515 O   0  0  0  0  0  0  0  0  0  0  0  0
   -1.3174   -0.8718   -1.9968 H   0  0  0  0  0  0  0  0  0  0  0  0
    0.7270    1.1384   -2.8428 H   0  0  0  0  0  0  0  0  0  0  0  0
    0.2390    1.9258   -0.4657 H   0  0  0  0  0  0  0  0  0  0  0  0
   -0.9567    0.6397   -0.3060 H   0  0  0  0  0  0  0  0  0  0  0  0
    1.4598   -1.6452   -1.3379 N   0  0  0  0  0  0  0  0  0  0  0  0
    2.4854   -2.4647   -0.6755 C   0  0  2  0  0  0  0  0  0  0  0  0
    3.8026   -2.5602   -1.4867 C   0  0  0  0  0  0  0  0  0  0  0  0
    4.3176   -3.6397   -1.7619 O   0  0  0  0  0  0  0  0  0  0  0  0
    1.8528   -3.8337   -0.3980 C   0  0  0  0  0  0  0  0  0  0  0  0
    0.7618   -2.1026   -1.9202 H   0  0  0  0  0  0  0  0  0  0  0  0
    2.7373   -2.0115    0.2889 H   0  0  0  0  0  0  0  0  0  0  0  0
    1.5935   -4.3346   -1.3363 H   0  0  0  0  0  0  0  0  0  0  0  0
    2.5512   -4.4701    0.1544 H   0  0  0  0  0  0  0  0  0  0  0  0
    0.9440   -3.7180    0.2007 H   0  0  0  0  0  0  0  0  0  0  0  0
    4.4307   -1.3980   -1.8890 N   0  0  0  0  0  0  0  0  0  0  0  0
    5.6275   -1.3533   -2.7148 C   0  0  0  0  0  0  0  0  0  0  0  0
    3.9558   -0.5247   -1.6420 H   0  0  0  0  0  0  0  0  0  0  0  0
    6.4588   -1.8591   -2.2134 H   0  0  0  0  0  0  0  0  0  0  0  0
    5.4444   -1.8401   -3.6782 H   0  0  0  0  0  0  0  0  0  0  0  0
    5.9159   -0.3144   -2.9010 H   0  0  0  0  0  0  0  0  0  0  0  0
  1  2  2  0  0  0  0
  1  3  1  0  0  0  0
  1  7  1  0  0  0  0
  3  4  1  0  0  0  0
  3  5  1  0  0  0  0
  3  6  1  0  0  0  0
  7  8  1  0  0  0  0
  7 12  1  0  0  0  0
  8  9  1  0  0  0  0
  8 11  1  0  0  0  0
  8 13  1  0  0  0  0
  9 10  2  0  0  0  0
  9 17  1  0  0  0  0
 11 14  1  0  0  0  0
 11 15  1  0  0  0  0
 11 16  1  0  0  0  0
 17 18  1  0  0  0  0
 17 25  1  0  0  0  0
 18 19  1  0  0  0  0
 18 21  1  0  0  0  0
 18 26  1  0  0  0  0
 19 20  2  0  0  0  0
 19 29  1  0  0  0  0
 21 22  1  0  0  0  0
 21 27  1  0  0  0  0
 21 28  1  0  0  0  0
 22 23  1  0  0  0  0
 22 24  2  0  0  0  0
 29 30  1  0  0  0  0
 29 34  1  0  0  0  0
 30 31  1  0  0  0  0
 30 33  1  0  0  0  0
 30 35  1  0  0  0  0
 31 32  2  0  0  0  0
 31 39  1  0  0  0  0
 33 36  1  0  0  0  0
 33 37  1  0  0  0  0
 33 38  1  0  0  0  0
 39 40  1  0  0  0  0
 39 41  1  0  0  0  0
 40 42  1  0  0  0  0
 40 43  1  0  0  0  0
 40 44  1  0  0  0  0
M  CHG  1  23  -1
M  END
$$$$

  -OEChem-05262215553D

 44 43  0     1  0  0  0  0  0999 V2000
   -3.5855   -0.7588   -1.4641 C   0  0  0  0  0  0  0  0  0  0  0  0
   -3.0599   -1.8614   -1.5482 O   0  0  0  0  0  0  0  0  0  0  0  0
   -4.1519   -0.2902   -0.1369 C   0  0  0  0  0  0  0  0  0  0  0  0
   -3.3804    0.2347    0.4322 H   0  0  0  0  0  0  0  0  0  0  0  0
   -4.9857    0.3954   -0.3075 H   0  0  0  0  0  0  0  0  0  0  0  0
   -4.5088   -1.1435    0.4450 H   0  0  0  0  0  0  0  0  0  0  0  0
   -3.5571    0.0816   -2.5546 N   0  0  0  0  0  0  0  0  0  0  0  0
   -2.9334   -0.2644   -3.8449 C   0  0  2  0  0  0  0  0  0  0  0  0
   -1.3916   -0.1295   -3.8339 C   0  0  0  0  0  0  0  0  0  0  0  0
   -0.7445    0.0590   -4.8580 O   0  0  0  0  0  0  0  0  0  0  0  0
   -3.5747    0.6393   -4.9034 C   0  0  0  0  0  0  0  0  0  0  0  0
   -3.6130    1.0819   -2.3144 H   0  0  0  0  0  0  0  0  0  0  0  0
   -3.1640   -1.3044   -4.0950 H   0  0  0  0  0  0  0  0  0  0  0  0
   -3.3303    1.6884   -4.7053 H   0  0  0  0  0  0  0  0  0  0  0  0
   -3.2075    0.3808   -5.9012 H   0  0  0  0  0  0  0  0  0  0  0  0
   -4.6625    0.5259   -4.8951 H   0  0  0  0  0  0  0  0  0  0  0  0
   -0.6754   -0.4123   -2.6886 N   0  0  0  0  0  0  0  0  0  0  0  0
    0.2495    0.6068   -2.1551 C   0  0  2  0  0  0  0  0  0  0  0  0
    1.4372   -0.0710   -1.4323 C   0  0  0  0  0  0  0  0  0  0  0  0
    2.2205    0.5519   -0.7215 O   0  0  0  0  0  0  0  0  0  0  0  0
   -0.5416    1.4612   -1.1301 C   0  0  0  0  0  0  0  0  0  0  0  0
   -1.6245    2.3554   -1.7254 C   0  0  0  0  0  0  0  0  0  0  0  0
   -1.4821    2.7879   -2.8892 O   0  5  0  0  0  0  0  0  0  0  0  0
   -2.7071    2.4035   -1.0891 O   0  0  0  0  0  0  0  0  0  0  0  0
   -1.2929   -0.8166   -1.9833 H   0  0  0  0  0  0  0  0  0  0  0  0
    0.6475    1.2407   -2.9566 H   0  0  0  0  0  0  0  0  0  0  0  0
    0.1540    2.1268   -0.6127 H   0  0  0  0  0  0  0  0  0  0  0  0
   -0.9873    0.8037   -0.3781 H   0  0  0  0  0  0  0  0  0  0  0  0
    1.6773   -1.4196   -1.6255 N   0  0  0  0  0  0  0  0  0  0  0  0
    2.7636   -2.1867   -0.9963 C   0  0  2  0  0  0  0  0  0  0  0  0
    4.1362   -1.9649   -1.6812 C   0  0  0  0  0  0  0  0  0  0  0  0
    4.8384   -2.9025   -2.0472 O   0  0  0  0  0  0  0  0  0  0  0  0
    2.3296   -3.6575   -0.9893 C   0  0  0  0  0  0  0  0  0  0  0  0
    1.0745   -1.8783   -2.3059 H   0  0  0  0  0  0  0  0  0  0  0  0
    2.8718   -1.8652    0.0447 H   0  0  0  0  0  0  0  0  0  0  0  0
    2.2194   -4.0305   -2.0127 H   0  0  0  0  0  0  0  0  0  0  0  0
    3.0751   -4.2713   -0.4741 H   0  0  0  0  0  0  0  0  0  0  0  0
    1.3728   -3.7696   -0.4705 H   0  0  0  0  0  0  0  0  0  0  0  0
    4.5968   -0.6758   -1.8607 N   0  0  0  0  0  0  0  0  0  0  0  0
    5.8336   -0.3302   -2.5438 C   0  0  0  0  0  0  0  0  0  0  0  0
    3.9744    0.0697   -1.5352 H   0  0  0  0  0  0  0  0  0  0  0  0
    6.6922   -0.7705   -2.0270 H   0  0  0  0  0  0  0  0  0  0  0  0
    5.8149   -0.6953   -3.5757 H   0  0  0  0  0  0  0  0  0  0  0  0
    5.9596    0.7566   -2.5630 H   0  0  0  0  0  0  0  0  0  0  0  0
  1  2  2  0  0  0  0
  1  3  1  0  0  0  0
  1  7  1  0  0  0  0
  3  4  1  0  0  0  0
  3  5  1  0  0  0  0
  3  6  1  0  0  0  0
  7  8  1  0  0  0  0
  7 12  1  0  0  0  0
  8  9  1  0  0  0  0
  8 11  1  0  0  0  0
  8 13  1  0  0  0  0
  9 10  2  0  0  0  0
  9 17  1  0  0  0  0
 11 14  1  0  0  0  0
 11 15  1  0  0  0  0
 11 16  1  0  0  0  0
 17 18  1  0  0  0  0
 17 25  1  0  0  0  0
 18 19  1  0  0  0  0
 18 21  1  0  0  0  0
 18 26  1  0  0  0  0
 19 20  2  0  0  0  0
 19 29  1  0  0  0  0
 21 22  1  0  0  0  0
 21 27  1  0  0  0  0
 21 28  1  0  0  0  0
 22 23  1  0  0  0  0
 22 24  2  0  0  0  0
 29 30  1  0  0  0  0
 29 34  1  0  0  0  0
 30 31  1  0  0  0  0
 30 33  1  0  0  0  0
 30 35  1  0  0  0  0
 31 32  2  0  0  0  0
 31 39  1  0  0  0  0
 33 36  1  0  0  0  0
 33 37  1  0  0  0  0
 33 38  1  0  0  0  0
 39 40  1  0  0  0  0
 39 41  1  0  0  0  0
 40 42  1  0  0  0  0
 40 43  1  0  0  0  0
 40 44  1  0  0  0  0
M  CHG  1  23  -1
M  END
$$$$

  -OEChem-05262215553D

 44 43  0     1  0  0  0  0  0999 V2000
   -3.4835   -0.8033   -1.4384 C   0  0  0  0  0  0  0  0  0  0  0  0
   -2.9003   -1.8753   -1.5359 O   0  0  0  0  0  0  0  0  0  0  0  0
   -4.0363   -0.3604   -0.0967 C   0  0  0  0  0  0  0  0  0  0  0  0
   -4.9691    0.1897   -0.2424 H   0  0  0  0  0  0  0  0  0  0  0  0
   -4.2321   -1.2278    0.5387 H   0  0  0  0  0  0  0  0  0  0  0  0
   -3.3193    0.2944    0.4046 H   0  0  0  0  0  0  0  0  0  0  0  0
   -3.5420    0.0293   -2.5338 N   0  0  0  0  0  0  0  0  0  0  0  0
   -2.9434   -0.2886   -3.8435 C   0  0  2  0  0  0  0  0  0  0  0  0
   -1.4124   -0.0646   -3.8853 C   0  0  0  0  0  0  0  0  0  0  0  0
   -0.8072    0.1406   -4.9317 O   0  0  0  0  0  0  0  0  0  0  0  0
   -3.6702    0.5680   -4.8857 C   0  0  0  0  0  0  0  0  0  0  0  0
   -3.6482    1.0264   -2.2969 H   0  0  0  0  0  0  0  0  0  0  0  0
   -3.1228   -1.3418   -4.0801 H   0  0  0  0  0  0  0  0  0  0  0  0
   -3.4723    1.6305   -4.7091 H   0  0  0  0  0  0  0  0  0  0  0  0
   -3.3285    0.3156   -5.8941 H   0  0  0  0  0  0  0  0  0  0  0  0
   -4.7498    0.3999   -4.8335 H   0  0  0  0  0  0  0  0  0  0  0  0
   -0.6433   -0.2927   -2.7634 N   0  0  0  0  0  0  0  0  0  0  0  0
    0.2243    0.7867   -2.2535 C   0  0  2  0  0  0  0  0  0  0  0  0
    1.4678    0.1661   -1.5732 C   0  0  0  0  0  0  0  0  0  0  0  0
    2.0636    0.6956   -0.6393 O   0  0  0  0  0  0  0  0  0  0  0  0
   -0.5962    1.6119   -1.2269 C   0  0  0  0  0  0  0  0  0  0  0  0
   -1.7355    2.4364   -1.8175 C   0  0  0  0  0  0  0  0  0  0  0  0
   -1.6328    2.8575   -2.9899 O   0  5  0  0  0  0  0  0  0  0  0  0
   -2.8098    2.4378   -1.1652 O   0  0  0  0  0  0  0  0  0  0  0  0
   -1.2055   -0.7427   -2.0396 H   0  0  0  0  0  0  0  0  0  0  0  0
    0.5673    1.4346   -3.0690 H   0  0  0  0  0  0  0  0  0  0  0  0
    0.0691    2.3237   -0.7317 H   0  0  0  0  0  0  0  0  0  0  0  0
   -0.9929    0.9427   -0.4585 H   0  0  0  0  0  0  0  0  0  0  0  0
    1.9394   -1.0496   -2.0333 N   0  0  0  0  0  0  0  0  0  0  0  0
    2.9819   -1.8588   -1.3836 C   0  0  2  0  0  0  0  0  0  0  0  0
    4.4213   -1.3589   -1.6711 C   0  0  0  0  0  0  0  0  0  0  0  0
    5.3028   -2.1145   -2.0696 O   0  0  0  0  0  0  0  0  0  0  0  0
    2.7563   -3.3099   -1.8268 C   0  0  0  0  0  0  0  0  0  0  0  0
    1.4199   -1.4472   -2.8139 H   0  0  0  0  0  0  0  0  0  0  0  0
    2.8415   -1.8147   -0.2986 H   0  0  0  0  0  0  0  0  0  0  0  0
    2.9068   -3.4089   -2.9067 H   0  0  0  0  0  0  0  0  0  0  0  0
    3.4570   -3.9775   -1.3155 H   0  0  0  0  0  0  0  0  0  0  0  0
    1.7379   -3.6290   -1.5841 H   0  0  0  0  0  0  0  0  0  0  0  0
    4.7394   -0.0384   -1.4225 N   0  0  0  0  0  0  0  0  0  0  0  0
    6.0473    0.5537   -1.6563 C   0  0  0  0  0  0  0  0  0  0  0  0
    3.9717    0.5493   -1.0834 H   0  0  0  0  0  0  0  0  0  0  0  0
    6.8070    0.0582   -1.0433 H   0  0  0  0  0  0  0  0  0  0  0  0
    6.3253    0.4609   -2.7109 H   0  0  0  0  0  0  0  0  0  0  0  0
    6.0295    1.6161   -1.3955 H   0  0  0  0  0  0  0  0  0  0  0  0
  1  2  2  0  0  0  0
  1  3  1  0  0  0  0
  1  7  1  0  0  0  0
  3  4  1  0  0  0  0
  3  5  1  0  0  0  0
  3  6  1  0  0  0  0
  7  8  1  0  0  0  0
  7 12  1  0  0  0  0
  8  9  1  0  0  0  0
  8 11  1  0  0  0  0
  8 13  1  0  0  0  0
  9 10  2  0  0  0  0
  9 17  1  0  0  0  0
 11 14  1  0  0  0  0
 11 15  1  0  0  0  0
 11 16  1  0  0  0  0
 17 18  1  0  0  0  0
 17 25  1  0  0  0  0
 18 19  1  0  0  0  0
 18 21  1  0  0  0  0
 18 26  1  0  0  0  0
 19 20  2  0  0  0  0
 19 29  1  0  0  0  0
 21 22  1  0  0  0  0
 21 27  1  0  0  0  0
 21 28  1  0  0  0  0
 22 23  1  0  0  0  0
 22 24  2  0  0  0  0
 29 30  1  0  0  0  0
 29 34  1  0  0  0  0
 30 31  1  0  0  0  0
 30 33  1  0  0  0  0
 30 35  1  0  0  0  0
 31 32  2  0  0  0  0
 31 39  1  0  0  0  0
 33 36  1  0  0  0  0
 33 37  1  0  0  0  0
 33 38  1  0  0  0  0
 39 40  1  0  0  0  0
 39 41  1  0  0  0  0
 40 42  1  0  0  0  0
 40 43  1  0  0  0  0
 40 44  1  0  0  0  0
M  CHG  1  23  -1
M  END
$$$$

  -OEChem-05262215553D

 44 43  0     1  0  0  0  0  0999 V2000
   -3.4477   -0.7711   -1.3368 C   0  0  0  0  0  0  0  0  0  0  0  0
   -2.8528   -1.8390   -1.4042 O   0  0  0  0  0  0  0  0  0  0  0  0
   -4.0167   -0.3030   -0.0105 C   0  0  0  0  0  0  0  0  0  0  0  0
   -3.2851    0.3213    0.5085 H   0  0  0  0  0  0  0  0  0  0  0  0
   -4.9211    0.2870   -0.1793 H   0  0  0  0  0  0  0  0  0  0  0  0
   -4.2657   -1.1608    0.6192 H   0  0  0  0  0  0  0  0  0  0  0  0
   -3.5085    0.0340   -2.4524 N   0  0  0  0  0  0  0  0  0  0  0  0
   -2.8910   -0.3079   -3.7466 C   0  0  2  0  0  0  0  0  0  0  0  0
   -1.3661   -0.0483   -3.7814 C   0  0  0  0  0  0  0  0  0  0  0  0
   -0.7577    0.1490   -4.8279 O   0  0  0  0  0  0  0  0  0  0  0  0
   -3.6274    0.4992   -4.8209 C   0  0  0  0  0  0  0  0  0  0  0  0
   -3.6324    1.0349   -2.2416 H   0  0  0  0  0  0  0  0  0  0  0  0
   -3.0417   -1.3718   -3.9536 H   0  0  0  0  0  0  0  0  0  0  0  0
   -3.4652    1.5715   -4.6676 H   0  0  0  0  0  0  0  0  0  0  0  0
   -3.2623    0.2327   -5.8175 H   0  0  0  0  0  0  0  0  0  0  0  0
   -4.7016    0.2976   -4.7810 H   0  0  0  0  0  0  0  0  0  0  0  0
   -0.5925   -0.2413   -2.6562 N   0  0  0  0  0  0  0  0  0  0  0  0
    0.2459    0.8690   -2.1683 C   0  0  2  0  0  0  0  0  0  0  0  0
    1.4996    0.2779   -1.4837 C   0  0  0  0  0  0  0  0  0  0  0  0
    1.9684    0.6960   -0.4285 O   0  0  0  0  0  0  0  0  0  0  0  0
   -0.5908    1.6995   -1.1586 C   0  0  0  0  0  0  0  0  0  0  0  0
   -1.7481    2.4858   -1.7656 C   0  0  0  0  0  0  0  0  0  0  0  0
   -1.6539    2.8816   -2.9477 O   0  5  0  0  0  0  0  0  0  0  0  0
   -2.8217    2.4819   -1.1125 O   0  0  0  0  0  0  0  0  0  0  0  0
   -1.1416   -0.6933   -1.9237 H   0  0  0  0  0  0  0  0  0  0  0  0
    0.5756    1.5092   -2.9951 H   0  0  0  0  0  0  0  0  0  0  0  0
    0.0620    2.4352   -0.6817 H   0  0  0  0  0  0  0  0  0  0  0  0
   -0.9718    1.0398   -0.3739 H   0  0  0  0  0  0  0  0  0  0  0  0
    2.1629   -0.7528   -2.1232 N   0  0  0  0  0  0  0  0  0  0  0  0
    3.3023   -1.5004   -1.5710 C   0  0  2  0  0  0  0  0  0  0  0  0
    4.6489   -0.7462   -1.7123 C   0  0  0  0  0  0  0  0  0  0  0  0
    5.6333   -1.2655   -2.2296 O   0  0  0  0  0  0  0  0  0  0  0  0
    3.3107   -2.8726   -2.2557 C   0  0  0  0  0  0  0  0  0  0  0  0
    1.7417   -1.0665   -2.9962 H   0  0  0  0  0  0  0  0  0  0  0  0
    3.1390   -1.6625   -0.5005 H   0  0  0  0  0  0  0  0  0  0  0  0
    3.4858   -2.7646   -3.3310 H   0  0  0  0  0  0  0  0  0  0  0  0
    4.1019   -3.5016   -1.8359 H   0  0  0  0  0  0  0  0  0  0  0  0
    2.3522   -3.3794   -2.1061 H   0  0  0  0  0  0  0  0  0  0  0  0
    4.7558    0.5355   -1.2096 N   0  0  0  0  0  0  0  0  0  0  0  0
    5.9364    1.3751   -1.3412 C   0  0  0  0  0  0  0  0  0  0  0  0
    3.8985    0.9296   -0.8104 H   0  0  0  0  0  0  0  0  0  0  0  0
    6.8189    0.8627   -0.9449 H   0  0  0  0  0  0  0  0  0  0  0  0
    6.1122    1.6227   -2.3928 H   0  0  0  0  0  0  0  0  0  0  0  0
    5.7982    2.3057   -0.7826 H   0  0  0  0  0  0  0  0  0  0  0  0
  1  2  2  0  0  0  0
  1  3  1  0  0  0  0
  1  7  1  0  0  0  0
  3  4  1  0  0  0  0
  3  5  1  0  0  0  0
  3  6  1  0  0  0  0
  7  8  1  0  0  0  0
  7 12  1  0  0  0  0
  8  9  1  0  0  0  0
  8 11  1  0  0  0  0
  8 13  1  0  0  0  0
  9 10  2  0  0  0  0
  9 17  1  0  0  0  0
 11 14  1  0  0  0  0
 11 15  1  0  0  0  0
 11 16  1  0  0  0  0
 17 18  1  0  0  0  0
 17 25  1  0  0  0  0
 18 19  1  0  0  0  0
 18 21  1  0  0  0  0
 18 26  1  0  0  0  0
 19 20  2  0  0  0  0
 19 29  1  0  0  0  0
 21 22  1  0  0  0  0
 21 27  1  0  0  0  0
 21 28  1  0  0  0  0
 22 23  1  0  0  0  0
 22 24  2  0  0  0  0
 29 30  1  0  0  0  0
 29 34  1  0  0  0  0
 30 31  1  0  0  0  0
 30 33  1  0  0  0  0
 30 35  1  0  0  0  0
 31 32  2  0  0  0  0
 31 39  1  0  0  0  0
 33 36  1  0  0  0  0
 33 37  1  0  0  0  0
 33 38  1  0  0  0  0
 39 40  1  0  0  0  0
 39 41  1  0  0  0  0
 40 42  1  0  0  0  0
 40 43  1  0  0  0  0
 40 44  1  0  0  0  0
M  CHG  1  23  -1
M  END
$$$$

  -OEChem-05262215553D

 44 43  0     1  0  0  0  0  0999 V2000
   -3.3887   -0.7456   -1.2864 C   0  0  0  0  0  0  0  0  0  0  0  0
   -2.7948   -1.8152   -1.3243 O   0  0  0  0  0  0  0  0  0  0  0  0
   -3.9570   -0.2410    0.0267 C   0  0  0  0  0  0  0  0  0  0  0  0
   -4.8726    0.3266   -0.1568 H   0  0  0  0  0  0  0  0  0  0  0  0
   -4.1872   -1.0806    0.6874 H   0  0  0  0  0  0  0  0  0  0  0  0
   -3.2333    0.4134    0.5191 H   0  0  0  0  0  0  0  0  0  0  0  0
   -3.4489    0.0283   -2.4239 N   0  0  0  0  0  0  0  0  0  0  0  0
   -2.8184   -0.3433   -3.7036 C   0  0  2  0  0  0  0  0  0  0  0  0
   -1.2954   -0.0690   -3.7339 C   0  0  0  0  0  0  0  0  0  0  0  0
   -0.6799    0.1117   -4.7798 O   0  0  0  0  0  0  0  0  0  0  0  0
   -3.5551    0.4269   -4.8044 C   0  0  0  0  0  0  0  0  0  0  0  0
   -3.5847    1.0335   -2.2421 H   0  0  0  0  0  0  0  0  0  0  0  0
   -2.9580   -1.4138   -3.8823 H   0  0  0  0  0  0  0  0  0  0  0  0
   -3.4005    1.5042   -4.6823 H   0  0  0  0  0  0  0  0  0  0  0  0
   -3.1834    0.1334   -5.7908 H   0  0  0  0  0  0  0  0  0  0  0  0
   -4.6285    0.2205   -4.7634 H   0  0  0  0  0  0  0  0  0  0  0  0
   -0.5296   -0.2106   -2.5958 N   0  0  0  0  0  0  0  0  0  0  0  0
    0.2808    0.9301   -2.1365 C   0  0  2  0  0  0  0  0  0  0  0  0
    1.5375    0.3865   -1.4222 C   0  0  0  0  0  0  0  0  0  0  0  0
    1.8433    0.6573   -0.2639 O   0  0  0  0  0  0  0  0  0  0  0  0
   -0.5799    1.7843   -1.1684 C   0  0  0  0  0  0  0  0  0  0  0  0
   -1.7406    2.5312   -1.8170 C   0  0  0  0  0  0  0  0  0  0  0  0
   -1.6361    2.8851   -3.0114 O   0  5  0  0  0  0  0  0  0  0  0  0
   -2.8227    2.5362   -1.1782 O   0  0  0  0  0  0  0  0  0  0  0  0
   -1.0738   -0.6520   -1.8536 H   0  0  0  0  0  0  0  0  0  0  0  0
    0.6073    1.5485   -2.9814 H   0  0  0  0  0  0  0  0  0  0  0  0
    0.0579    2.5435   -0.7081 H   0  0  0  0  0  0  0  0  0  0  0  0
   -0.9636    1.1463   -0.3672 H   0  0  0  0  0  0  0  0  0  0  0  0
    2.3972   -0.4140   -2.1505 N   0  0  0  0  0  0  0  0  0  0  0  0
    3.5789   -1.0980   -1.6032 C   0  0  2  0  0  0  0  0  0  0  0  0
    4.8092   -0.1661   -1.4563 C   0  0  0  0  0  0  0  0  0  0  0  0
    5.9112   -0.4704   -1.9034 O   0  0  0  0  0  0  0  0  0  0  0  0
    3.8532   -2.3088   -2.5034 C   0  0  0  0  0  0  0  0  0  0  0  0
    2.0924   -0.6370   -3.0967 H   0  0  0  0  0  0  0  0  0  0  0  0
    3.3423   -1.4728   -0.6019 H   0  0  0  0  0  0  0  0  0  0  0  0
    4.1123   -1.9828   -3.5159 H   0  0  0  0  0  0  0  0  0  0  0  0
    4.6847   -2.8986   -2.1049 H   0  0  0  0  0  0  0  0  0  0  0  0
    2.9693   -2.9517   -2.5570 H   0  0  0  0  0  0  0  0  0  0  0  0
    4.6752    1.0222   -0.7657 N   0  0  0  0  0  0  0  0  0  0  0  0
    5.7475    1.9841   -0.5628 C   0  0  0  0  0  0  0  0  0  0  0  0
    3.7399    1.2227   -0.3987 H   0  0  0  0  0  0  0  0  0  0  0  0
    6.5865    1.5165   -0.0380 H   0  0  0  0  0  0  0  0  0  0  0  0
    6.1007    2.3710   -1.5240 H   0  0  0  0  0  0  0  0  0  0  0  0
    5.3884    2.8244    0.0387 H   0  0  0  0  0  0  0  0  0  0  0  0
  1  2  2  0  0  0  0
  1  3  1  0  0  0  0
  1  7  1  0  0  0  0
  3  4  1  0  0  0  0
  3  5  1  0  0  0  0
  3  6  1  0  0  0  0
  7  8  1  0  0  0  0
  7 12  1  0  0  0  0
  8  9  1  0  0  0  0
  8 11  1  0  0  0  0
  8 13  1  0  0  0  0
  9 10  2  0  0  0  0
  9 17  1  0  0  0  0
 11 14  1  0  0  0  0
 11 15  1  0  0  0  0
 11 16  1  0  0  0  0
 17 18  1  0  0  0  0
 17 25  1  0  0  0  0
 18 19  1  0  0  0  0
 18 21  1  0  0  0  0
 18 26  1  0  0  0  0
 19 20  2  0  0  0  0
 19 29  1  0  0  0  0
 21 22  1  0  0  0  0
 21 27  1  0  0  0  0
 21 28  1  0  0  0  0
 22 23  1  0  0  0  0
 22 24  2  0  0  0  0
 29 30  1  0  0  0  0
 29 34  1  0  0  0  0
 30 31  1  0  0  0  0
 30 33  1  0  0  0  0
 30 35  1  0  0  0  0
 31 32  2  0  0  0  0
 31 39  1  0  0  0  0
 33 36  1  0  0  0  0
 33 37  1  0  0  0  0
 33 38  1  0  0  0  0
 39 40  1  0  0  0  0
 39 41  1  0  0  0  0
 40 42  1  0  0  0  0
 40 43  1  0  0  0  0
 40 44  1  0  0  0  0
M  CHG  1  23  -1
M  END
$$$$

  -OEChem-05262215553D

 44 43  0     1  0  0  0  0  0999 V2000
   -3.4240   -1.1683   -1.7529 C   0  0  0  0  0  0  0  0  0  0  0  0
   -2.7106   -2.1510   -1.9046 O   0  0  0  0  0  0  0  0  0  0  0  0
   -4.2059   -0.9921   -0.4650 C   0  0  0  0  0  0  0  0  0  0  0  0
   -5.1611   -0.5025   -0.6712 H   0  0  0  0  0  0  0  0  0  0  0  0
   -4.3981   -1.9634   -0.0024 H   0  0  0  0  0  0  0  0  0  0  0  0
   -3.6382   -0.3703    0.2317 H   0  0  0  0  0  0  0  0  0  0  0  0
   -3.4370   -0.1890   -2.7207 N   0  0  0  0  0  0  0  0  0  0  0  0
   -2.5981   -0.2208   -3.9322 C   0  0  2  0  0  0  0  0  0  0  0  0
   -1.1541    0.2731   -3.6776 C   0  0  0  0  0  0  0  0  0  0  0  0
   -0.4638    0.7667   -4.5638 O   0  0  0  0  0  0  0  0  0  0  0  0
   -3.3120    0.6258   -4.9909 C   0  0  0  0  0  0  0  0  0  0  0  0
   -3.7415    0.7362   -2.3839 H   0  0  0  0  0  0  0  0  0  0  0  0
   -2.5267   -1.2470   -4.3050 H   0  0  0  0  0  0  0  0  0  0  0  0
   -3.3614    1.6721   -4.6706 H   0  0  0  0  0  0  0  0  0  0  0  0
   -2.7748    0.5799   -5.9431 H   0  0  0  0  0  0  0  0  0  0  0  0
   -4.3303    0.2596   -5.1495 H   0  0  0  0  0  0  0  0  0  0  0  0
   -0.5356    0.0334   -2.4681 N   0  0  0  0  0  0  0  0  0  0  0  0
    0.0146    1.1677   -1.7096 C   0  0  2  0  0  0  0  0  0  0  0  0
    1.2344    0.6823   -0.8945 C   0  0  0  0  0  0  0  0  0  0  0  0
    1.2020    0.4927    0.3185 O   0  0  0  0  0  0  0  0  0  0  0  0
   -1.0966    1.6992   -0.7644 C   0  0  0  0  0  0  0  0  0  0  0  0
   -2.2708    2.3869   -1.4529 C   0  0  0  0  0  0  0  0  0  0  0  0
   -2.0749    2.9713   -2.5404 O   0  5  0  0  0  0  0  0  0  0  0  0
   -3.4119    2.1175   -0.9997 O   0  0  0  0  0  0  0  0  0  0  0  0
   -1.0833   -0.6127   -1.9008 H   0  0  0  0  0  0  0  0  0  0  0  0
    0.3423    1.9717   -2.3791 H   0  0  0  0  0  0  0  0  0  0  0  0
   -0.6548    2.4374   -0.0899 H   0  0  0  0  0  0  0  0  0  0  0  0
   -1.4740    0.8767   -0.1501 H   0  0  0  0  0  0  0  0  0  0  0  0
    2.4205    0.4446   -1.5648 N   0  0  0  0  0  0  0  0  0  0  0  0
    3.6582   -0.0460   -0.9452 C   0  0  2  0  0  0  0  0  0  0  0  0
    4.9021    0.7281   -1.4271 C   0  0  0  0  0  0  0  0  0  0  0  0
    5.1186    0.8875   -2.6230 O   0  0  0  0  0  0  0  0  0  0  0  0
    3.7891   -1.5377   -1.2631 C   0  0  0  0  0  0  0  0  0  0  0  0
    2.4068    0.5814   -2.5753 H   0  0  0  0  0  0  0  0  0  0  0  0
    3.6055    0.0717    0.1415 H   0  0  0  0  0  0  0  0  0  0  0  0
    3.8385   -1.6973   -2.3450 H   0  0  0  0  0  0  0  0  0  0  0  0
    4.6963   -1.9466   -0.8084 H   0  0  0  0  0  0  0  0  0  0  0  0
    2.9265   -2.0840   -0.8689 H   0  0  0  0  0  0  0  0  0  0  0  0
    5.8159    1.2108   -0.5070 N   0  0  0  0  0  0  0  0  0  0  0  0
    6.9820    1.9998   -0.8814 C   0  0  0  0  0  0  0  0  0  0  0  0
    5.5623    1.1427    0.4743 H   0  0  0  0  0  0  0  0  0  0  0  0
    7.6457    1.4176   -1.5292 H   0  0  0  0  0  0  0  0  0  0  0  0
    6.6755    2.9070   -1.4129 H   0  0  0  0  0  0  0  0  0  0  0  0
    7.5415    2.2938    0.0116 H   0  0  0  0  0  0  0  0  0  0  0  0
  1  2  2  0  0  0  0
  1  3  1  0  0  0  0
  1  7  1  0  0  0  0
  3  4  1  0  0  0  0
  3  5  1  0  0  0  0
  3  6  1  0  0  0  0
  7  8  1  0  0  0  0
  7 12  1  0  0  0  0
  8  9  1  0  0  0  0
  8 11  1  0  0  0  0
  8 13  1  0  0  0  0
  9 10  2  0  0  0  0
  9 17  1  0  0  0  0
 11 14  1  0  0  0  0
 11 15  1  0  0  0  0
 11 16  1  0  0  0  0
 17 18  1  0  0  0  0
 17 25  1  0  0  0  0
 18 19  1  0  0  0  0
 18 21  1  0  0  0  0
 18 26  1  0  0  0  0
 19 20  2  0  0  0  0
 19 29  1  0  0  0  0
 21 22  1  0  0  0  0
 21 27  1  0  0  0  0
 21 28  1  0  0  0  0
 22 23  1  0  0  0  0
 22 24  2  0  0  0  0
 29 30  1  0  0  0  0
 29 34  1  0  0  0  0
 30 31  1  0  0  0  0
 30 33  1  0  0  0  0
 30 35  1  0  0  0  0
 31 32  2  0  0  0  0
 31 39  1  0  0  0  0
 33 36  1  0  0  0  0
 33 37  1  0  0  0  0
 33 38  1  0  0  0  0
 39 40  1  0  0  0  0
 39 41  1  0  0  0  0
 40 42  1  0  0  0  0
 40 43  1  0  0  0  0
 40 44  1  0  0  0  0
M  CHG  1  23  -1
M  END
$$$$

  -OEChem-05262215553D

 44 43  0     1  0  0  0  0  0999 V2000
   -3.4172   -1.1668   -1.7661 C   0  0  0  0  0  0  0  0  0  0  0  0
   -2.7197   -2.1660   -1.8776 O   0  0  0  0  0  0  0  0  0  0  0  0
   -4.2484   -0.9589   -0.5140 C   0  0  0  0  0  0  0  0  0  0  0  0
   -5.1821   -0.4497   -0.7657 H   0  0  0  0  0  0  0  0  0  0  0  0
   -4.4827   -1.9202   -0.0505 H   0  0  0  0  0  0  0  0  0  0  0  0
   -3.6966   -0.3426    0.2003 H   0  0  0  0  0  0  0  0  0  0  0  0
   -3.3776   -0.2029   -2.7488 N   0  0  0  0  0  0  0  0  0  0  0  0
   -2.4917   -0.2652   -3.9254 C   0  0  2  0  0  0  0  0  0  0  0  0
   -1.0563    0.2277   -3.6235 C   0  0  0  0  0  0  0  0  0  0  0  0
   -0.3396    0.7242   -4.4870 O   0  0  0  0  0  0  0  0  0  0  0  0
   -3.1574    0.5619   -5.0302 C   0  0  0  0  0  0  0  0  0  0  0  0
   -3.6827    0.7312   -2.4390 H   0  0  0  0  0  0  0  0  0  0  0  0
   -2.4112   -1.2997   -4.2725 H   0  0  0  0  0  0  0  0  0  0  0  0
   -3.2156    1.6144   -4.7328 H   0  0  0  0  0  0  0  0  0  0  0  0
   -2.5805    0.4956   -5.9576 H   0  0  0  0  0  0  0  0  0  0  0  0
   -4.1695    0.1957   -5.2246 H   0  0  0  0  0  0  0  0  0  0  0  0
   -0.4827    0.0011   -2.3894 N   0  0  0  0  0  0  0  0  0  0  0  0
    0.0378    1.1428   -1.6221 C   0  0  2  0  0  0  0  0  0  0  0  0
    1.2279    0.6839   -0.7512 C   0  0  0  0  0  0  0  0  0  0  0  0
    1.0865    0.2459    0.3877 O   0  0  0  0  0  0  0  0  0  0  0  0
   -1.1010    1.6860   -0.7183 C   0  0  0  0  0  0  0  0  0  0  0  0
   -2.2508    2.3691   -1.4513 C   0  0  0  0  0  0  0  0  0  0  0  0
   -2.0186    2.9415   -2.5379 O   0  5  0  0  0  0  0  0  0  0  0  0
   -3.4067    2.1160   -1.0280 O   0  0  0  0  0  0  0  0  0  0  0  0
   -1.0442   -0.6435   -1.8340 H   0  0  0  0  0  0  0  0  0  0  0  0
    0.3838    1.9402   -2.2899 H   0  0  0  0  0  0  0  0  0  0  0  0
   -0.6780    2.4257   -0.0337 H   0  0  0  0  0  0  0  0  0  0  0  0
   -1.5022    0.8688   -0.1120 H   0  0  0  0  0  0  0  0  0  0  0  0
    2.5063    0.7443   -1.2757 N   0  0  0  0  0  0  0  0  0  0  0  0
    3.7258    0.3453   -0.5621 C   0  0  2  0  0  0  0  0  0  0  0  0
    4.9318    1.2495   -0.8891 C   0  0  0  0  0  0  0  0  0  0  0  0
    5.0770    1.7281   -2.0081 O   0  0  0  0  0  0  0  0  0  0  0  0
    4.0366   -1.1095   -0.9226 C   0  0  0  0  0  0  0  0  0  0  0  0
    2.5985    1.0918   -2.2301 H   0  0  0  0  0  0  0  0  0  0  0  0
    3.5572    0.4142    0.5172 H   0  0  0  0  0  0  0  0  0  0  0  0
    4.2137   -1.2084   -1.9985 H   0  0  0  0  0  0  0  0  0  0  0  0
    4.9273   -1.4535   -0.3885 H   0  0  0  0  0  0  0  0  0  0  0  0
    3.1964   -1.7547   -0.6468 H   0  0  0  0  0  0  0  0  0  0  0  0
    5.8860    1.5013    0.0809 N   0  0  0  0  0  0  0  0  0  0  0  0
    7.0311    2.3768   -0.1298 C   0  0  0  0  0  0  0  0  0  0  0  0
    5.7069    1.1398    1.0129 H   0  0  0  0  0  0  0  0  0  0  0  0
    7.6598    1.9964   -0.9415 H   0  0  0  0  0  0  0  0  0  0  0  0
    6.6982    3.3883   -0.3850 H   0  0  0  0  0  0  0  0  0  0  0  0
    7.6368    2.4307    0.7799 H   0  0  0  0  0  0  0  0  0  0  0  0
  1  2  2  0  0  0  0
  1  3  1  0  0  0  0
  1  7  1  0  0  0  0
  3  4  1  0  0  0  0
  3  5  1  0  0  0  0
  3  6  1  0  0  0  0
  7  8  1  0  0  0  0
  7 12  1  0  0  0  0
  8  9  1  0  0  0  0
  8 11  1  0  0  0  0
  8 13  1  0  0  0  0
  9 10  2  0  0  0  0
  9 17  1  0  0  0  0
 11 14  1  0  0  0  0
 11 15  1  0  0  0  0
 11 16  1  0  0  0  0
 17 18  1  0  0  0  0
 17 25  1  0  0  0  0
 18 19  1  0  0  0  0
 18 21  1  0  0  0  0
 18 26  1  0  0  0  0
 19 20  2  0  0  0  0
 19 29  1  0  0  0  0
 21 22  1  0  0  0  0
 21 27  1  0  0  0  0
 21 28  1  0  0  0  0
 22 23  1  0  0  0  0
 22 24  2  0  0  0  0
 29 30  1  0  0  0  0
 29 34  1  0  0  0  0
 30 31  1  0  0  0  0
 30 33  1  0  0  0  0
 30 35  1  0  0  0  0
 31 32  2  0  0  0  0
 31 39  1  0  0  0  0
 33 36  1  0  0  0  0
 33 37  1  0  0  0  0
 33 38  1  0  0  0  0
 39 40  1  0  0  0  0
 39 41  1  0  0  0  0
 40 42  1  0  0  0  0
 40 43  1  0  0  0  0
 40 44  1  0  0  0  0
M  CHG  1  23  -1
M  END
$$$$

  -OEChem-05262215553D

 44 43  0     1  0  0  0  0  0999 V2000
   -3.3845   -1.1602   -1.8452 C   0  0  0  0  0  0  0  0  0  0  0  0
   -2.7189   -2.1775   -1.9836 O   0  0  0  0  0  0  0  0  0  0  0  0
   -4.2449   -0.9798   -0.6091 C   0  0  0  0  0  0  0  0  0  0  0  0
   -5.1904   -0.5029   -0.8794 H   0  0  0  0  0  0  0  0  0  0  0  0
   -4.4550   -1.9482   -0.1486 H   0  0  0  0  0  0  0  0  0  0  0  0
   -3.7272   -0.3458    0.1151 H   0  0  0  0  0  0  0  0  0  0  0  0
   -3.2858   -0.1553   -2.7812 N   0  0  0  0  0  0  0  0  0  0  0  0
   -2.3653   -0.1923   -3.9319 C   0  0  2  0  0  0  0  0  0  0  0  0
   -0.9339    0.2701   -3.5686 C   0  0  0  0  0  0  0  0  0  0  0  0
   -0.1833    0.7833   -4.3928 O   0  0  0  0  0  0  0  0  0  0  0  0
   -2.9892    0.6784   -5.0277 C   0  0  0  0  0  0  0  0  0  0  0  0
   -3.5831    0.7724   -2.4452 H   0  0  0  0  0  0  0  0  0  0  0  0
   -2.2872   -1.2156   -4.3113 H   0  0  0  0  0  0  0  0  0  0  0  0
   -3.0414    1.7222   -4.6999 H   0  0  0  0  0  0  0  0  0  0  0  0
   -2.3890    0.6321   -5.9413 H   0  0  0  0  0  0  0  0  0  0  0  0
   -4.0008    0.3330   -5.2596 H   0  0  0  0  0  0  0  0  0  0  0  0
   -0.4168    0.0152   -2.3150 N   0  0  0  0  0  0  0  0  0  0  0  0
    0.0942    1.1309   -1.5053 C   0  0  2  0  0  0  0  0  0  0  0  0
    1.2357    0.6411   -0.5899 C   0  0  0  0  0  0  0  0  0  0  0  0
    1.0239   -0.0560    0.3993 O   0  0  0  0  0  0  0  0  0  0  0  0
   -1.0665    1.6693   -0.6296 C   0  0  0  0  0  0  0  0  0  0  0  0
   -2.1793    2.3847   -1.3883 C   0  0  0  0  0  0  0  0  0  0  0  0
   -1.8998    2.9775   -2.4528 O   0  5  0  0  0  0  0  0  0  0  0  0
   -3.3527    2.1326   -1.0156 O   0  0  0  0  0  0  0  0  0  0  0  0
   -1.0019   -0.6352   -1.7927 H   0  0  0  0  0  0  0  0  0  0  0  0
    0.4770    1.9352   -2.1444 H   0  0  0  0  0  0  0  0  0  0  0  0
   -0.6580    2.3870    0.0864 H   0  0  0  0  0  0  0  0  0  0  0  0
   -1.5002    0.8447   -0.0566 H   0  0  0  0  0  0  0  0  0  0  0  0
    2.5448    0.9607   -0.8997 N   0  0  0  0  0  0  0  0  0  0  0  0
    3.7167    0.5185   -0.1351 C   0  0  2  0  0  0  0  0  0  0  0  0
    4.8892    1.5176   -0.2136 C   0  0  0  0  0  0  0  0  0  0  0  0
    5.0204    2.2624   -1.1784 O   0  0  0  0  0  0  0  0  0  0  0  0
    4.1505   -0.8495   -0.6694 C   0  0  0  0  0  0  0  0  0  0  0  0
    2.7030    1.5296   -1.7308 H   0  0  0  0  0  0  0  0  0  0  0  0
    3.4446    0.4215    0.9210 H   0  0  0  0  0  0  0  0  0  0  0  0
    4.4234   -0.7763   -1.7271 H   0  0  0  0  0  0  0  0  0  0  0  0
    5.0128   -1.2242   -0.1104 H   0  0  0  0  0  0  0  0  0  0  0  0
    3.3340   -1.5715   -0.5695 H   0  0  0  0  0  0  0  0  0  0  0  0
    5.8255    1.5630    0.8042 N   0  0  0  0  0  0  0  0  0  0  0  0
    6.9523    2.4860    0.8149 C   0  0  0  0  0  0  0  0  0  0  0  0
    5.6726    0.9594    1.6064 H   0  0  0  0  0  0  0  0  0  0  0  0
    7.6056    2.3011   -0.0440 H   0  0  0  0  0  0  0  0  0  0  0  0
    6.5990    3.5217    0.7739 H   0  0  0  0  0  0  0  0  0  0  0  0
    7.5384    2.3562    1.7295 H   0  0  0  0  0  0  0  0  0  0  0  0
  1  2  2  0  0  0  0
  1  3  1  0  0  0  0
  1  7  1  0  0  0  0
  3  4  1  0  0  0  0
  3  5  1  0  0  0  0
  3  6  1  0  0  0  0
  7  8  1  0  0  0  0
  7 12  1  0  0  0  0
  8  9  1  0  0  0  0
  8 11  1  0  0  0  0
  8 13  1  0  0  0  0
  9 10  2  0  0  0  0
  9 17  1  0  0  0  0
 11 14  1  0  0  0  0
 11 15  1  0  0  0  0
 11 16  1  0  0  0  0
 17 18  1  0  0  0  0
 17 25  1  0  0  0  0
 18 19  1  0  0  0  0
 18 21  1  0  0  0  0
 18 26  1  0  0  0  0
 19 20  2  0  0  0  0
 19 29  1  0  0  0  0
 21 22  1  0  0  0  0
 21 27  1  0  0  0  0
 21 28  1  0  0  0  0
 22 23  1  0  0  0  0
 22 24  2  0  0  0  0
 29 30  1  0  0  0  0
 29 34  1  0  0  0  0
 30 31  1  0  0  0  0
 30 33  1  0  0  0  0
 30 35  1  0  0  0  0
 31 32  2  0  0  0  0
 31 39  1  0  0  0  0
 33 36  1  0  0  0  0
 33 37  1  0  0  0  0
 33 38  1  0  0  0  0
 39 40  1  0  0  0  0
 39 41  1  0  0  0  0
 40 42  1  0  0  0  0
 40 43  1  0  0  0  0
 40 44  1  0  0  0  0
M  CHG  1  23  -1
M  END
$$$$

  -OEChem-05262215553D

 44 43  0     1  0  0  0  0  0999 V2000
   -3.4205   -1.1121   -1.8617 C   0  0  0  0  0  0  0  0  0  0  0  0
   -2.8512   -2.1823   -2.0255 O   0  0  0  0  0  0  0  0  0  0  0  0
   -4.2647   -0.8864   -0.6218 C   0  0  0  0  0  0  0  0  0  0  0  0
   -5.1609   -0.3166   -0.8792 H   0  0  0  0  0  0  0  0  0  0  0  0
   -4.5645   -1.8432   -0.1873 H   0  0  0  0  0  0  0  0  0  0  0  0
   -3.6925   -0.3220    0.1188 H   0  0  0  0  0  0  0  0  0  0  0  0
   -3.2261   -0.0944   -2.7686 N   0  0  0  0  0  0  0  0  0  0  0  0
   -2.2919   -0.1723   -3.9062 C   0  0  2  0  0  0  0  0  0  0  0  0
   -0.8434    0.2072   -3.5147 C   0  0  0  0  0  0  0  0  0  0  0  0
   -0.0546    0.6896   -4.3218 O   0  0  0  0  0  0  0  0  0  0  0  0
   -2.8485    0.7435   -5.0019 C   0  0  0  0  0  0  0  0  0  0  0  0
   -3.4651    0.8446   -2.4178 H   0  0  0  0  0  0  0  0  0  0  0  0
   -2.2646   -1.1942   -4.2966 H   0  0  0  0  0  0  0  0  0  0  0  0
   -2.8590    1.7836   -4.6587 H   0  0  0  0  0  0  0  0  0  0  0  0
   -2.2301    0.6820   -5.9025 H   0  0  0  0  0  0  0  0  0  0  0  0
   -3.8697    0.4501   -5.2618 H   0  0  0  0  0  0  0  0  0  0  0  0
   -0.3653   -0.0736   -2.2508 N   0  0  0  0  0  0  0  0  0  0  0  0
    0.1922    1.0131   -1.4319 C   0  0  2  0  0  0  0  0  0  0  0  0
    1.2880    0.4767   -0.4885 C   0  0  0  0  0  0  0  0  0  0  0  0
    1.0466   -0.3872    0.3511 O   0  0  0  0  0  0  0  0  0  0  0  0
   -0.9473    1.6011   -0.5624 C   0  0  0  0  0  0  0  0  0  0  0  0
   -2.0187    2.3707   -1.3261 C   0  0  0  0  0  0  0  0  0  0  0  0
   -1.7039    2.9539   -2.3858 O   0  5  0  0  0  0  0  0  0  0  0  0
   -3.2050    2.1716   -0.9629 O   0  0  0  0  0  0  0  0  0  0  0  0
   -0.9870   -0.6961   -1.7380 H   0  0  0  0  0  0  0  0  0  0  0  0
    0.6220    1.7978   -2.0655 H   0  0  0  0  0  0  0  0  0  0  0  0
   -0.5106    2.2976    0.1581 H   0  0  0  0  0  0  0  0  0  0  0  0
   -1.4227    0.7957    0.0053 H   0  0  0  0  0  0  0  0  0  0  0  0
    2.5781    0.9678   -0.5729 N   0  0  0  0  0  0  0  0  0  0  0  0
    3.6926    0.5361    0.2794 C   0  0  2  0  0  0  0  0  0  0  0  0
    4.7734    1.6251    0.4432 C   0  0  0  0  0  0  0  0  0  0  0  0
    4.8865    2.5312   -0.3752 O   0  0  0  0  0  0  0  0  0  0  0  0
    4.3052   -0.7296   -0.3284 C   0  0  0  0  0  0  0  0  0  0  0  0
    2.7596    1.6968   -1.2622 H   0  0  0  0  0  0  0  0  0  0  0  0
    3.3114    0.3056    1.2795 H   0  0  0  0  0  0  0  0  0  0  0  0
    4.6909   -0.5225   -1.3315 H   0  0  0  0  0  0  0  0  0  0  0  0
    5.1266   -1.0958    0.2942 H   0  0  0  0  0  0  0  0  0  0  0  0
    3.5504   -1.5190   -0.4024 H   0  0  0  0  0  0  0  0  0  0  0  0
    5.6424    1.5772    1.5189 N   0  0  0  0  0  0  0  0  0  0  0  0
    6.6707    2.5797    1.7631 C   0  0  0  0  0  0  0  0  0  0  0  0
    5.4996    0.8390    2.2017 H   0  0  0  0  0  0  0  0  0  0  0  0
    7.3660    2.6296    0.9189 H   0  0  0  0  0  0  0  0  0  0  0  0
    6.2173    3.5660    1.9061 H   0  0  0  0  0  0  0  0  0  0  0  0
    7.2385    2.3256    2.6628 H   0  0  0  0  0  0  0  0  0  0  0  0
  1  2  2  0  0  0  0
  1  3  1  0  0  0  0
  1  7  1  0  0  0  0
  3  4  1  0  0  0  0
  3  5  1  0  0  0  0
  3  6  1  0  0  0  0
  7  8  1  0  0  0  0
  7 12  1  0  0  0  0
  8  9  1  0  0  0  0
  8 11  1  0  0  0  0
  8 13  1  0  0  0  0
  9 10  2  0  0  0  0
  9 17  1  0  0  0  0
 11 14  1  0  0  0  0
 11 15  1  0  0  0  0
 11 16  1  0  0  0  0
 17 18  1  0  0  0  0
 17 25  1  0  0  0  0
 18 19  1  0  0  0  0
 18 21  1  0  0  0  0
 18 26  1  0  0  0  0
 19 20  2  0  0  0  0
 19 29  1  0  0  0  0
 21 22  1  0  0  0  0
 21 27  1  0  0  0  0
 21 28  1  0  0  0  0
 22 23  1  0  0  0  0
 22 24  2  0  0  0  0
 29 30  1  0  0  0  0
 29 34  1  0  0  0  0
 30 31  1  0  0  0  0
 30 33  1  0  0  0  0
 30 35  1  0  0  0  0
 31 32  2  0  0  0  0
 31 39  1  0  0  0  0
 33 36  1  0  0  0  0
 33 37  1  0  0  0  0
 33 38  1  0  0  0  0
 39 40  1  0  0  0  0
 39 41  1  0  0  0  0
 40 42  1  0  0  0  0
 40 43  1  0  0  0  0
 40 44  1  0  0  0  0
M  CHG  1  23  -1
M  END
$$$$

  -OEChem-05262215553D

 44 43  0     1  0  0  0  0  0999 V2000
   -3.4392   -1.0638   -1.8685 C   0  0  0  0  0  0  0  0  0  0  0  0
   -2.9551   -2.1671   -2.0793 O   0  0  0  0  0  0  0  0  0  0  0  0
   -4.2685   -0.8278   -0.6205 C   0  0  0  0  0  0  0  0  0  0  0  0
   -5.1120   -0.1725   -0.8516 H   0  0  0  0  0  0  0  0  0  0  0  0
   -4.6509   -1.7756   -0.2338 H   0  0  0  0  0  0  0  0  0  0  0  0
   -3.6551   -0.3501    0.1475 H   0  0  0  0  0  0  0  0  0  0  0  0
   -3.1680   -0.0259   -2.7317 N   0  0  0  0  0  0  0  0  0  0  0  0
   -2.2385   -0.1226   -3.8715 C   0  0  2  0  0  0  0  0  0  0  0  0
   -0.7751    0.1813   -3.4708 C   0  0  0  0  0  0  0  0  0  0  0  0
    0.0328    0.6567   -4.2631 O   0  0  0  0  0  0  0  0  0  0  0  0
   -2.7517    0.8410   -4.9476 C   0  0  0  0  0  0  0  0  0  0  0  0
   -3.3469    0.9129   -2.3465 H   0  0  0  0  0  0  0  0  0  0  0  0
   -2.2571   -1.1359   -4.2838 H   0  0  0  0  0  0  0  0  0  0  0  0
   -2.7105    1.8733   -4.5838 H   0  0  0  0  0  0  0  0  0  0  0  0
   -2.1389    0.7675   -5.8512 H   0  0  0  0  0  0  0  0  0  0  0  0
   -3.7864    0.6035   -5.2110 H   0  0  0  0  0  0  0  0  0  0  0  0
   -0.3126   -0.1578   -2.2154 N   0  0  0  0  0  0  0  0  0  0  0  0
    0.3020    0.8724   -1.3647 C   0  0  2  0  0  0  0  0  0  0  0  0
    1.3684    0.2620   -0.4331 C   0  0  0  0  0  0  0  0  0  0  0  0
    1.1464   -0.7604    0.2109 O   0  0  0  0  0  0  0  0  0  0  0  0
   -0.8044    1.4814   -0.4687 C   0  0  0  0  0  0  0  0  0  0  0  0
   -1.8422    2.3253   -1.2004 C   0  0  0  0  0  0  0  0  0  0  0  0
   -1.5055    2.9291   -2.2413 O   0  5  0  0  0  0  0  0  0  0  0  0
   -3.0345    2.1688   -0.8372 O   0  0  0  0  0  0  0  0  0  0  0  0
   -0.9557   -0.7713   -1.7195 H   0  0  0  0  0  0  0  0  0  0  0  0
    0.7674    1.6541   -1.9762 H   0  0  0  0  0  0  0  0  0  0  0  0
   -0.3351    2.1318    0.2743 H   0  0  0  0  0  0  0  0  0  0  0  0
   -1.3137    0.6785    0.0726 H   0  0  0  0  0  0  0  0  0  0  0  0
    2.5930    0.8852   -0.2751 N   0  0  0  0  0  0  0  0  0  0  0  0
    3.6522    0.4211    0.6287 C   0  0  2  0  0  0  0  0  0  0  0  0
    4.5710    1.5658    1.1030 C   0  0  0  0  0  0  0  0  0  0  0  0
    4.6328    2.6225    0.4844 O   0  0  0  0  0  0  0  0  0  0  0  0
    4.4738   -0.6509   -0.0947 C   0  0  0  0  0  0  0  0  0  0  0  0
    2.7401    1.7658   -0.7674 H   0  0  0  0  0  0  0  0  0  0  0  0
    3.1953   -0.0175    1.5219 H   0  0  0  0  0  0  0  0  0  0  0  0
    4.9416   -0.2327   -0.9918 H   0  0  0  0  0  0  0  0  0  0  0  0
    5.2584   -1.0407    0.5604 H   0  0  0  0  0  0  0  0  0  0  0  0
    3.8305   -1.4845   -0.3941 H   0  0  0  0  0  0  0  0  0  0  0  0
    5.3465    1.4021    2.2371 N   0  0  0  0  0  0  0  0  0  0  0  0
    6.2158    2.4417    2.7709 C   0  0  0  0  0  0  0  0  0  0  0  0
    5.2497    0.5289    2.7464 H   0  0  0  0  0  0  0  0  0  0  0  0
    6.9703    2.7273    2.0306 H   0  0  0  0  0  0  0  0  0  0  0  0
    5.6311    3.3273    3.0401 H   0  0  0  0  0  0  0  0  0  0  0  0
    6.7297    2.0801    3.6666 H   0  0  0  0  0  0  0  0  0  0  0  0
  1  2  2  0  0  0  0
  1  3  1  0  0  0  0
  1  7  1  0  0  0  0
  3  4  1  0  0  0  0
  3  5  1  0  0  0  0
  3  6  1  0  0  0  0
  7  8  1  0  0  0  0
  7 12  1  0  0  0  0
  8  9  1  0  0  0  0
  8 11  1  0  0  0  0
  8 13  1  0  0  0  0
  9 10  2  0  0  0  0
  9 17  1  0  0  0  0
 11 14  1  0  0  0  0
 11 15  1  0  0  0  0
 11 16  1  0  0  0  0
 17 18  1  0  0  0  0
 17 25  1  0  0  0  0
 18 19  1  0  0  0  0
 18 21  1  0  0  0  0
 18 26  1  0  0  0  0
 19 20  2  0  0  0  0
 19 29  1  0  0  0  0
 21 22  1  0  0  0  0
 21 27  1  0  0  0  0
 21 28  1  0  0  0  0
 22 23  1  0  0  0  0
 22 24  2  0  0  0  0
 29 30  1  0  0  0  0
 29 34  1  0  0  0  0
 30 31  1  0  0  0  0
 30 33  1  0  0  0  0
 30 35  1  0  0  0  0
 31 32  2  0  0  0  0
 31 39  1  0  0  0  0
 33 36  1  0  0  0  0
 33 37  1  0  0  0  0
 33 38  1  0  0  0  0
 39 40  1  0  0  0  0
 39 41  1  0  0  0  0
 40 42  1  0  0  0  0
 40 43  1  0  0  0  0
 40 44  1  0  0  0  0
M  CHG  1  23  -1
M  END
$$$$

  -OEChem-05262215553D

 44 43  0     1  0  0  0  0  0999 V2000
   -4.3009   -0.4714   -2.3460 C   0  0  0  0  0  0  0  0  0  0  0  0
   -4.5405   -1.5540   -2.8679 O   0  0  0  0  0  0  0  0  0  0  0  0
   -5.2962    0.1262   -1.3692 C   0  0  0  0  0  0  0  0  0  0  0  0
   -5.2191    1.2169   -1.3743 H   0  0  0  0  0  0  0  0  0  0  0  0
   -6.3144   -0.1580   -1.6448 H   0  0  0  0  0  0  0  0  0  0  0  0
   -5.0833   -0.2327   -0.3590 H   0  0  0  0  0  0  0  0  0  0  0  0
   -3.1587    0.2192   -2.6889 N   0  0  0  0  0  0  0  0  0  0  0  0
   -2.1162   -0.2790   -3.5942 C   0  0  2  0  0  0  0  0  0  0  0  0
   -0.7310    0.2601   -3.1754 C   0  0  0  0  0  0  0  0  0  0  0  0
   -0.1369    1.1034   -3.8402 O   0  0  0  0  0  0  0  0  0  0  0  0
   -2.4994    0.1109   -5.0280 C   0  0  0  0  0  0  0  0  0  0  0  0
   -2.9697    1.0837   -2.1613 H   0  0  0  0  0  0  0  0  0  0  0  0
   -2.0636   -1.3704   -3.5365 H   0  0  0  0  0  0  0  0  0  0  0  0
   -2.5815    1.1988   -5.1200 H   0  0  0  0  0  0  0  0  0  0  0  0
   -1.7420   -0.2431   -5.7338 H   0  0  0  0  0  0  0  0  0  0  0  0
   -3.4610   -0.3356   -5.2983 H   0  0  0  0  0  0  0  0  0  0  0  0
   -0.0610   -0.2744   -2.0904 N   0  0  0  0  0  0  0  0  0  0  0  0
    0.5113    0.6375   -1.0880 C   0  0  2  0  0  0  0  0  0  0  0  0
    1.7736    0.0244   -0.4427 C   0  0  0  0  0  0  0  0  0  0  0  0
    1.8948   -1.1900   -0.2951 O   0  0  0  0  0  0  0  0  0  0  0  0
   -0.4957    0.7847    0.0791 C   0  0  0  0  0  0  0  0  0  0  0  0
   -1.7793    1.5320   -0.2479 C   0  0  0  0  0  0  0  0  0  0  0  0
   -1.7715    2.4138   -1.1353 O   0  5  0  0  0  0  0  0  0  0  0  0
   -2.8163    1.1273    0.3246 O   0  0  0  0  0  0  0  0  0  0  0  0
   -0.5332   -1.0744   -1.6806 H   0  0  0  0  0  0  0  0  0  0  0  0
    0.7545    1.6146   -1.5215 H   0  0  0  0  0  0  0  0  0  0  0  0
   -0.0145    1.3324    0.8939 H   0  0  0  0  0  0  0  0  0  0  0  0
   -0.7560   -0.2089    0.4575 H   0  0  0  0  0  0  0  0  0  0  0  0
    2.7861    0.8484    0.0141 N   0  0  0  0  0  0  0  0  0  0  0  0
    3.9696    0.3836    0.7476 C   0  0  2  0  0  0  0  0  0  0  0  0
    4.4589    1.4113    1.7888 C   0  0  0  0  0  0  0  0  0  0  0  0
    4.1804    2.6000    1.6765 O   0  0  0  0  0  0  0  0  0  0  0  0
    5.0775    0.0849   -0.2664 C   0  0  0  0  0  0  0  0  0  0  0  0
    2.6195    1.8537   -0.0215 H   0  0  0  0  0  0  0  0  0  0  0  0
    3.7251   -0.5341    1.2922 H   0  0  0  0  0  0  0  0  0  0  0  0
    5.3432    0.9917   -0.8194 H   0  0  0  0  0  0  0  0  0  0  0  0
    5.9715   -0.2902    0.2409 H   0  0  0  0  0  0  0  0  0  0  0  0
    4.7421   -0.6734   -0.9812 H   0  0  0  0  0  0  0  0  0  0  0  0
    5.2336    0.9968    2.8578 N   0  0  0  0  0  0  0  0  0  0  0  0
    5.6884    1.8943    3.9114 C   0  0  0  0  0  0  0  0  0  0  0  0
    5.4038   -0.0001    2.9512 H   0  0  0  0  0  0  0  0  0  0  0  0
    6.2894    2.7068    3.4898 H   0  0  0  0  0  0  0  0  0  0  0  0
    4.8330    2.3254    4.4419 H   0  0  0  0  0  0  0  0  0  0  0  0
    6.3043    1.3483    4.6323 H   0  0  0  0  0  0  0  0  0  0  0  0
  1  2  2  0  0  0  0
  1  3  1  0  0  0  0
  1  7  1  0  0  0  0
  3  4  1  0  0  0  0
  3  5  1  0  0  0  0
  3  6  1  0  0  0  0
  7  8  1  0  0  0  0
  7 12  1  0  0  0  0
  8  9  1  0  0  0  0
  8 11  1  0  0  0  0
  8 13  1  0  0  0  0
  9 10  2  0  0  0  0
  9 17  1  0  0  0  0
 11 14  1  0  0  0  0
 11 15  1  0  0  0  0
 11 16  1  0  0  0  0
 17 18  1  0  0  0  0
 17 25  1  0  0  0  0
 18 19  1  0  0  0  0
 18 21  1  0  0  0  0
 18 26  1  0  0  0  0
 19 20  2  0  0  0  0
 19 29  1  0  0  0  0
 21 22  1  0  0  0  0
 21 27  1  0  0  0  0
 21 28  1  0  0  0  0
 22 23  1  0  0  0  0
 22 24  2  0  0  0  0
 29 30  1  0  0  0  0
 29 34  1  0  0  0  0
 30 31  1  0  0  0  0
 30 33  1  0  0  0  0
 30 35  1  0  0  0  0
 31 32  2  0  0  0  0
 31 39  1  0  0  0  0
 33 36  1  0  0  0  0
 33 37  1  0  0  0  0
 33 38  1  0  0  0  0
 39 40  1  0  0  0  0
 39 41  1  0  0  0  0
 40 42  1  0  0  0  0
 40 43  1  0  0  0  0
 40 44  1  0  0  0  0
M  CHG  1  23  -1
M  END
$$$$

  -OEChem-05262215553D

 44 43  0     1  0  0  0  0  0999 V2000
   -3.3463   -1.0588   -1.9020 C   0  0  0  0  0  0  0  0  0  0  0  0
   -2.8966   -2.1422   -2.2482 O   0  0  0  0  0  0  0  0  0  0  0  0
   -4.1646   -0.9515   -0.6287 C   0  0  0  0  0  0  0  0  0  0  0  0
   -5.0234   -0.2957   -0.7925 H   0  0  0  0  0  0  0  0  0  0  0  0
   -4.5245   -1.9374   -0.3238 H   0  0  0  0  0  0  0  0  0  0  0  0
   -3.5514   -0.5322    0.1729 H   0  0  0  0  0  0  0  0  0  0  0  0
   -3.0584    0.0663   -2.6417 N   0  0  0  0  0  0  0  0  0  0  0  0
   -2.1636    0.0797   -3.8134 C   0  0  2  0  0  0  0  0  0  0  0  0
   -0.6785    0.2827   -3.4281 C   0  0  0  0  0  0  0  0  0  0  0  0
    0.1146    0.8504   -4.1733 O   0  0  0  0  0  0  0  0  0  0  0  0
   -2.6728    1.1865   -4.7435 C   0  0  0  0  0  0  0  0  0  0  0  0
   -3.1957    0.9566   -2.1417 H   0  0  0  0  0  0  0  0  0  0  0  0
   -2.2313   -0.8732   -4.3470 H   0  0  0  0  0  0  0  0  0  0  0  0
   -2.5793    2.1635   -4.2570 H   0  0  0  0  0  0  0  0  0  0  0  0
   -2.0933    1.2042   -5.6714 H   0  0  0  0  0  0  0  0  0  0  0  0
   -3.7238    1.0191   -4.9956 H   0  0  0  0  0  0  0  0  0  0  0  0
   -0.1920   -0.2369   -2.2456 N   0  0  0  0  0  0  0  0  0  0  0  0
    0.5092    0.6386   -1.2920 C   0  0  2  0  0  0  0  0  0  0  0  0
    1.5789   -0.1191   -0.4742 C   0  0  0  0  0  0  0  0  0  0  0  0
    1.5657   -1.3423   -0.3631 O   0  0  0  0  0  0  0  0  0  0  0  0
   -0.5476    1.1614   -0.2865 C   0  0  0  0  0  0  0  0  0  0  0  0
   -1.5680    2.1380   -0.8617 C   0  0  0  0  0  0  0  0  0  0  0  0
   -1.2359    2.8674   -1.8200 O   0  5  0  0  0  0  0  0  0  0  0  0
   -2.7541    1.9818   -0.4788 O   0  0  0  0  0  0  0  0  0  0  0  0
   -0.8327   -0.9007   -1.8164 H   0  0  0  0  0  0  0  0  0  0  0  0
    0.9933    1.4729   -1.8128 H   0  0  0  0  0  0  0  0  0  0  0  0
   -0.0367    1.6890    0.5228 H   0  0  0  0  0  0  0  0  0  0  0  0
   -1.0740    0.3105    0.1566 H   0  0  0  0  0  0  0  0  0  0  0  0
    2.5370    0.5863    0.2330 N   0  0  0  0  0  0  0  0  0  0  0  0
    3.5367   -0.0242    1.1184 C   0  0  2  0  0  0  0  0  0  0  0  0
    3.9653    0.9136    2.2654 C   0  0  0  0  0  0  0  0  0  0  0  0
    3.8670    2.1304    2.1534 O   0  0  0  0  0  0  0  0  0  0  0  0
    4.7535   -0.4168    0.2750 C   0  0  0  0  0  0  0  0  0  0  0  0
    2.4802    1.6041    0.2114 H   0  0  0  0  0  0  0  0  0  0  0  0
    3.1126   -0.9232    1.5780 H   0  0  0  0  0  0  0  0  0  0  0  0
    5.1980    0.4692   -0.1896 H   0  0  0  0  0  0  0  0  0  0  0  0
    5.5104   -0.9028    0.8975 H   0  0  0  0  0  0  0  0  0  0  0  0
    4.4579   -1.1135   -0.5160 H   0  0  0  0  0  0  0  0  0  0  0  0
    4.4886    0.3823    3.4307 N   0  0  0  0  0  0  0  0  0  0  0  0
    4.8965    1.1936    4.5697 C   0  0  0  0  0  0  0  0  0  0  0  0
    4.5186   -0.6297    3.5094 H   0  0  0  0  0  0  0  0  0  0  0  0
    5.7069    1.8726    4.2846 H   0  0  0  0  0  0  0  0  0  0  0  0
    4.0532    1.7853    4.9408 H   0  0  0  0  0  0  0  0  0  0  0  0
    5.2519    0.5518    5.3814 H   0  0  0  0  0  0  0  0  0  0  0  0
  1  2  2  0  0  0  0
  1  3  1  0  0  0  0
  1  7  1  0  0  0  0
  3  4  1  0  0  0  0
  3  5  1  0  0  0  0
  3  6  1  0  0  0  0
  7  8  1  0  0  0  0
  7 12  1  0  0  0  0
  8  9  1  0  0  0  0
  8 11  1  0  0  0  0
  8 13  1  0  0  0  0
  9 10  2  0  0  0  0
  9 17  1  0  0  0  0
 11 14  1  0  0  0  0
 11 15  1  0  0  0  0
 11 16  1  0  0  0  0
 17 18  1  0  0  0  0
 17 25  1  0  0  0  0
 18 19  1  0  0  0  0
 18 21  1  0  0  0  0
 18 26  1  0  0  0  0
 19 20  2  0  0  0  0
 19 29  1  0  0  0  0
 21 22  1  0  0  0  0
 21 27  1  0  0  0  0
 21 28  1  0  0  0  0
 22 23  1  0  0  0  0
 22 24  2  0  0  0  0
 29 30  1  0  0  0  0
 29 34  1  0  0  0  0
 30 31  1  0  0  0  0
 30 33  1  0  0  0  0
 30 35  1  0  0  0  0
 31 32  2  0  0  0  0
 31 39  1  0  0  0  0
 33 36  1  0  0  0  0
 33 37  1  0  0  0  0
 33 38  1  0  0  0  0
 39 40  1  0  0  0  0
 39 41  1  0  0  0  0
 40 42  1  0  0  0  0
 40 43  1  0  0  0  0
 40 44  1  0  0  0  0
M  CHG  1  23  -1
M  END
$$$$

  -OEChem-05262215553D

 44 43  0     1  0  0  0  0  0999 V2000
   -4.8131    0.1143   -3.5098 C   0  0  0  0  0  0  0  0  0  0  0  0
   -4.9744   -1.0651   -3.7885 O   0  0  0  0  0  0  0  0  0  0  0  0
   -6.0040    1.0546   -3.4837 C   0  0  0  0  0  0  0  0  0  0  0  0
   -5.8510    1.8687   -4.1963 H   0  0  0  0  0  0  0  0  0  0  0  0
   -6.9176    0.5167   -3.7509 H   0  0  0  0  0  0  0  0  0  0  0  0
   -6.1221    1.4747   -2.4814 H   0  0  0  0  0  0  0  0  0  0  0  0
   -3.5572    0.6131   -3.2445 N   0  0  0  0  0  0  0  0  0  0  0  0
   -2.3711   -0.2070   -2.9753 C   0  0  2  0  0  0  0  0  0  0  0  0
   -1.3228    0.6118   -2.1932 C   0  0  0  0  0  0  0  0  0  0  0  0
   -1.3487    1.8399   -2.2420 O   0  0  0  0  0  0  0  0  0  0  0  0
   -1.7705   -0.7031   -4.2955 C   0  0  0  0  0  0  0  0  0  0  0  0
   -3.5050    1.5738   -2.9036 H   0  0  0  0  0  0  0  0  0  0  0  0
   -2.6571   -1.0630   -2.3540 H   0  0  0  0  0  0  0  0  0  0  0  0
   -1.4788    0.1449   -4.9230 H   0  0  0  0  0  0  0  0  0  0  0  0
   -0.8851   -1.3169   -4.1045 H   0  0  0  0  0  0  0  0  0  0  0  0
   -2.4967   -1.3097   -4.8444 H   0  0  0  0  0  0  0  0  0  0  0  0
   -0.2930   -0.0270   -1.5303 N   0  0  0  0  0  0  0  0  0  0  0  0
    0.3282    0.5482   -0.3284 C   0  0  2  0  0  0  0  0  0  0  0  0
    1.8727    0.4712   -0.3741 C   0  0  0  0  0  0  0  0  0  0  0  0
    2.4676   -0.0837   -1.2955 O   0  0  0  0  0  0  0  0  0  0  0  0
   -0.1587   -0.3153    0.8579 C   0  0  0  0  0  0  0  0  0  0  0  0
   -1.6414   -0.1692    1.1819 C   0  0  0  0  0  0  0  0  0  0  0  0
   -2.2169    0.9156    0.9335 O   0  5  0  0  0  0  0  0  0  0  0  0
   -2.2091   -1.1913    1.6337 O   0  0  0  0  0  0  0  0  0  0  0  0
   -0.3242   -1.0396   -1.5636 H   0  0  0  0  0  0  0  0  0  0  0  0
    0.0376    1.5949   -0.1825 H   0  0  0  0  0  0  0  0  0  0  0  0
    0.3849   -0.0291    1.7614 H   0  0  0  0  0  0  0  0  0  0  0  0
    0.0624   -1.3682    0.6585 H   0  0  0  0  0  0  0  0  0  0  0  0
    2.6260    0.9680    0.6751 N   0  0  0  0  0  0  0  0  0  0  0  0
    4.0846    0.8461    0.7873 C   0  0  2  0  0  0  0  0  0  0  0  0
    4.5594    0.7721    2.2529 C   0  0  0  0  0  0  0  0  0  0  0  0
    3.8851    1.2534    3.1564 O   0  0  0  0  0  0  0  0  0  0  0  0
    4.7245    2.0455    0.0823 C   0  0  0  0  0  0  0  0  0  0  0  0
    2.1175    1.3245    1.4841 H   0  0  0  0  0  0  0  0  0  0  0  0
    4.4116   -0.0759    0.2958 H   0  0  0  0  0  0  0  0  0  0  0  0
    4.4201    2.9797    0.5649 H   0  0  0  0  0  0  0  0  0  0  0  0
    5.8154    1.9730    0.1172 H   0  0  0  0  0  0  0  0  0  0  0  0
    4.4133    2.0784   -0.9666 H   0  0  0  0  0  0  0  0  0  0  0  0
    5.7679    0.1711    2.5579 N   0  0  0  0  0  0  0  0  0  0  0  0
    6.2634    0.0178    3.9193 C   0  0  0  0  0  0  0  0  0  0  0  0
    6.2767   -0.2656    1.7953 H   0  0  0  0  0  0  0  0  0  0  0  0
    6.3733    0.9958    4.3994 H   0  0  0  0  0  0  0  0  0  0  0  0
    5.5724   -0.5914    4.5113 H   0  0  0  0  0  0  0  0  0  0  0  0
    7.2401   -0.4750    3.9116 H   0  0  0  0  0  0  0  0  0  0  0  0
  1  2  2  0  0  0  0
  1  3  1  0  0  0  0
  1  7  1  0  0  0  0
  3  4  1  0  0  0  0
  3  5  1  0  0  0  0
  3  6  1  0  0  0  0
  7  8  1  0  0  0  0
  7 12  1  0  0  0  0
  8  9  1  0  0  0  0
  8 11  1  0  0  0  0
  8 13  1  0  0  0  0
  9 10  2  0  0  0  0
  9 17  1  0  0  0  0
 11 14  1  0  0  0  0
 11 15  1  0  0  0  0
 11 16  1  0  0  0  0
 17 18  1  0  0  0  0
 17 25  1  0  0  0  0
 18 19  1  0  0  0  0
 18 21  1  0  0  0  0
 18 26  1  0  0  0  0
 19 20  2  0  0  0  0
 19 29  1  0  0  0  0
 21 22  1  0  0  0  0
 21 27  1  0  0  0  0
 21 28  1  0  0  0  0
 22 23  1  0  0  0  0
 22 24  2  0  0  0  0
 29 30  1  0  0  0  0
 29 34  1  0  0  0  0
 30 31  1  0  0  0  0
 30 33  1  0  0  0  0
 30 35  1  0  0  0  0
 31 32  2  0  0  0  0
 31 39  1  0  0  0  0
 33 36  1  0  0  0  0
 33 37  1  0  0  0  0
 33 38  1  0  0  0  0
 39 40  1  0  0  0  0
 39 41  1  0  0  0  0
 40 42  1  0  0  0  0
 40 43  1  0  0  0  0
 40 44  1  0  0  0  0
M  CHG  1  23  -1
M  END
$$$$

  -OEChem-05262215553D

 44 43  0     1  0  0  0  0  0999 V2000
   -4.7762    0.1182   -3.4870 C   0  0  0  0  0  0  0  0  0  0  0  0
   -4.9333   -1.0532   -3.8007 O   0  0  0  0  0  0  0  0  0  0  0  0
   -5.9766    1.0420   -3.3864 C   0  0  0  0  0  0  0  0  0  0  0  0
   -5.8865    1.8506   -4.1155 H   0  0  0  0  0  0  0  0  0  0  0  0
   -6.8988    0.4886   -3.5830 H   0  0  0  0  0  0  0  0  0  0  0  0
   -6.0304    1.4708   -2.3820 H   0  0  0  0  0  0  0  0  0  0  0  0
   -3.5171    0.6229   -3.2476 N   0  0  0  0  0  0  0  0  0  0  0  0
   -2.3202   -0.1952   -3.0223 C   0  0  2  0  0  0  0  0  0  0  0  0
   -1.2673    0.6097   -2.2318 C   0  0  0  0  0  0  0  0  0  0  0  0
   -1.2802    1.8380   -2.2786 O   0  0  0  0  0  0  0  0  0  0  0  0
   -1.7387   -0.6493   -4.3657 C   0  0  0  0  0  0  0  0  0  0  0  0
   -3.4660    1.5732   -2.8781 H   0  0  0  0  0  0  0  0  0  0  0  0
   -2.5904   -1.0708   -2.4218 H   0  0  0  0  0  0  0  0  0  0  0  0
   -1.4635    0.2180   -4.9739 H   0  0  0  0  0  0  0  0  0  0  0  0
   -0.8459   -1.2615   -4.2072 H   0  0  0  0  0  0  0  0  0  0  0  0
   -2.4710   -1.2451   -4.9186 H   0  0  0  0  0  0  0  0  0  0  0  0
   -0.2634   -0.0420   -1.5413 N   0  0  0  0  0  0  0  0  0  0  0  0
    0.3151    0.5290   -0.3149 C   0  0  2  0  0  0  0  0  0  0  0  0
    1.8634    0.4482   -0.3054 C   0  0  0  0  0  0  0  0  0  0  0  0
    2.5000    0.1497   -1.3128 O   0  0  0  0  0  0  0  0  0  0  0  0
   -0.2434   -0.3359    0.8417 C   0  0  0  0  0  0  0  0  0  0  0  0
   -1.7386   -0.1713    1.0947 C   0  0  0  0  0  0  0  0  0  0  0  0
   -2.2896    0.9215    0.8275 O   0  5  0  0  0  0  0  0  0  0  0  0
   -2.3397   -1.1917    1.5050 O   0  0  0  0  0  0  0  0  0  0  0  0
   -0.3178   -1.0537   -1.5692 H   0  0  0  0  0  0  0  0  0  0  0  0
    0.0281    1.5778   -0.1766 H   0  0  0  0  0  0  0  0  0  0  0  0
    0.2504   -0.0623    1.7764 H   0  0  0  0  0  0  0  0  0  0  0  0
   -0.0267   -1.3909    0.6491 H   0  0  0  0  0  0  0  0  0  0  0  0
    2.5795    0.6434    0.8636 N   0  0  0  0  0  0  0  0  0  0  0  0
    4.0350    0.4958    0.9907 C   0  0  2  0  0  0  0  0  0  0  0  0
    4.4581    0.0124    2.3929 C   0  0  0  0  0  0  0  0  0  0  0  0
    3.7554    0.2360    3.3720 O   0  0  0  0  0  0  0  0  0  0  0  0
    4.6864    1.8457    0.6766 C   0  0  0  0  0  0  0  0  0  0  0  0
    2.0425    0.7828    1.7192 H   0  0  0  0  0  0  0  0  0  0  0  0
    4.3903   -0.2494    0.2718 H   0  0  0  0  0  0  0  0  0  0  0  0
    4.3558    2.6053    1.3923 H   0  0  0  0  0  0  0  0  0  0  0  0
    5.7762    1.7667    0.7294 H   0  0  0  0  0  0  0  0  0  0  0  0
    4.4122    2.1738   -0.3310 H   0  0  0  0  0  0  0  0  0  0  0  0
    5.6525   -0.6662    2.5592 N   0  0  0  0  0  0  0  0  0  0  0  0
    6.1051   -1.1876    3.8421 C   0  0  0  0  0  0  0  0  0  0  0  0
    6.1910   -0.8745    1.7237 H   0  0  0  0  0  0  0  0  0  0  0  0
    6.2552   -0.3707    4.5554 H   0  0  0  0  0  0  0  0  0  0  0  0
    5.3688   -1.8858    4.2539 H   0  0  0  0  0  0  0  0  0  0  0  0
    7.0537   -1.7186    3.7196 H   0  0  0  0  0  0  0  0  0  0  0  0
  1  2  2  0  0  0  0
  1  3  1  0  0  0  0
  1  7  1  0  0  0  0
  3  4  1  0  0  0  0
  3  5  1  0  0  0  0
  3  6  1  0  0  0  0
  7  8  1  0  0  0  0
  7 12  1  0  0  0  0
  8  9  1  0  0  0  0
  8 11  1  0  0  0  0
  8 13  1  0  0  0  0
  9 10  2  0  0  0  0
  9 17  1  0  0  0  0
 11 14  1  0  0  0  0
 11 15  1  0  0  0  0
 11 16  1  0  0  0  0
 17 18  1  0  0  0  0
 17 25  1  0  0  0  0
 18 19  1  0  0  0  0
 18 21  1  0  0  0  0
 18 26  1  0  0  0  0
 19 20  2  0  0  0  0
 19 29  1  0  0  0  0
 21 22  1  0  0  0  0
 21 27  1  0  0  0  0
 21 28  1  0  0  0  0
 22 23  1  0  0  0  0
 22 24  2  0  0  0  0
 29 30  1  0  0  0  0
 29 34  1  0  0  0  0
 30 31  1  0  0  0  0
 30 33  1  0  0  0  0
 30 35  1  0  0  0  0
 31 32  2  0  0  0  0
 31 39  1  0  0  0  0
 33 36  1  0  0  0  0
 33 37  1  0  0  0  0
 33 38  1  0  0  0  0
 39 40  1  0  0  0  0
 39 41  1  0  0  0  0
 40 42  1  0  0  0  0
 40 43  1  0  0  0  0
 40 44  1  0  0  0  0
M  CHG  1  23  -1
M  END
$$$$

  -OEChem-05262215553D

 44 43  0     1  0  0  0  0  0999 V2000
   -3.9885   -0.9166   -2.4403 C   0  0  0  0  0  0  0  0  0  0  0  0
   -4.0905   -1.8394   -3.2392 O   0  0  0  0  0  0  0  0  0  0  0  0
   -4.9842   -0.7990   -1.3016 C   0  0  0  0  0  0  0  0  0  0  0  0
   -5.1502    0.2532   -1.0553 H   0  0  0  0  0  0  0  0  0  0  0  0
   -5.9379   -1.2518   -1.5835 H   0  0  0  0  0  0  0  0  0  0  0  0
   -4.5944   -1.3062   -0.4155 H   0  0  0  0  0  0  0  0  0  0  0  0
   -2.9979    0.0275   -2.6038 N   0  0  0  0  0  0  0  0  0  0  0  0
   -2.0081    0.0364   -3.6899 C   0  0  2  0  0  0  0  0  0  0  0  0
   -0.6409    0.5512   -3.1865 C   0  0  0  0  0  0  0  0  0  0  0  0
   -0.0933    1.5244   -3.6958 O   0  0  0  0  0  0  0  0  0  0  0  0
   -2.5810    0.8765   -4.8385 C   0  0  0  0  0  0  0  0  0  0  0  0
   -2.9340    0.7597   -1.8819 H   0  0  0  0  0  0  0  0  0  0  0  0
   -1.8434   -0.9819   -4.0552 H   0  0  0  0  0  0  0  0  0  0  0  0
   -2.7463    1.9080   -4.5107 H   0  0  0  0  0  0  0  0  0  0  0  0
   -1.8884    0.8861   -5.6856 H   0  0  0  0  0  0  0  0  0  0  0  0
   -3.5347    0.4589   -5.1748 H   0  0  0  0  0  0  0  0  0  0  0  0
    0.0072   -0.1096   -2.1574 N   0  0  0  0  0  0  0  0  0  0  0  0
    0.5950    0.6895   -1.0689 C   0  0  2  0  0  0  0  0  0  0  0  0
    2.0298    0.2062   -0.7157 C   0  0  0  0  0  0  0  0  0  0  0  0
    2.7442   -0.3488   -1.5453 O   0  0  0  0  0  0  0  0  0  0  0  0
   -0.3263    0.4451    0.1567 C   0  0  0  0  0  0  0  0  0  0  0  0
   -1.7194    1.0463    0.0363 C   0  0  0  0  0  0  0  0  0  0  0  0
   -1.8938    2.0749   -0.6537 O   0  5  0  0  0  0  0  0  0  0  0  0
   -2.6508    0.3629    0.5172 O   0  0  0  0  0  0  0  0  0  0  0  0
   -0.5007   -0.9305   -1.8450 H   0  0  0  0  0  0  0  0  0  0  0  0
    0.6377    1.7581   -1.3106 H   0  0  0  0  0  0  0  0  0  0  0  0
    0.1101    0.9060    1.0452 H   0  0  0  0  0  0  0  0  0  0  0  0
   -0.4092   -0.6296    0.3453 H   0  0  0  0  0  0  0  0  0  0  0  0
    2.5434    0.3288    0.5654 N   0  0  0  0  0  0  0  0  0  0  0  0
    3.8349   -0.2103    1.0096 C   0  0  2  0  0  0  0  0  0  0  0  0
    3.8190   -0.6153    2.4980 C   0  0  0  0  0  0  0  0  0  0  0  0
    2.9992   -0.1325    3.2714 O   0  0  0  0  0  0  0  0  0  0  0  0
    4.9124    0.8482    0.7600 C   0  0  0  0  0  0  0  0  0  0  0  0
    1.9124    0.6808    1.2843 H   0  0  0  0  0  0  0  0  0  0  0  0
    4.0734   -1.1099    0.4327 H   0  0  0  0  0  0  0  0  0  0  0  0
    4.6952    1.7554    1.3327 H   0  0  0  0  0  0  0  0  0  0  0  0
    5.8958    0.4730    1.0580 H   0  0  0  0  0  0  0  0  0  0  0  0
    4.9489    1.1069   -0.3029 H   0  0  0  0  0  0  0  0  0  0  0  0
    4.7435   -1.5270    2.9754 N   0  0  0  0  0  0  0  0  0  0  0  0
    4.7582   -2.0056    4.3511 C   0  0  0  0  0  0  0  0  0  0  0  0
    5.3752   -1.9463    2.2999 H   0  0  0  0  0  0  0  0  0  0  0  0
    4.8786   -1.1689    5.0470 H   0  0  0  0  0  0  0  0  0  0  0  0
    3.8242   -2.5276    4.5838 H   0  0  0  0  0  0  0  0  0  0  0  0
    5.5902   -2.7003    4.4994 H   0  0  0  0  0  0  0  0  0  0  0  0
  1  2  2  0  0  0  0
  1  3  1  0  0  0  0
  1  7  1  0  0  0  0
  3  4  1  0  0  0  0
  3  5  1  0  0  0  0
  3  6  1  0  0  0  0
  7  8  1  0  0  0  0
  7 12  1  0  0  0  0
  8  9  1  0  0  0  0
  8 11  1  0  0  0  0
  8 13  1  0  0  0  0
  9 10  2  0  0  0  0
  9 17  1  0  0  0  0
 11 14  1  0  0  0  0
 11 15  1  0  0  0  0
 11 16  1  0  0  0  0
 17 18  1  0  0  0  0
 17 25  1  0  0  0  0
 18 19  1  0  0  0  0
 18 21  1  0  0  0  0
 18 26  1  0  0  0  0
 19 20  2  0  0  0  0
 19 29  1  0  0  0  0
 21 22  1  0  0  0  0
 21 27  1  0  0  0  0
 21 28  1  0  0  0  0
 22 23  1  0  0  0  0
 22 24  2  0  0  0  0
 29 30  1  0  0  0  0
 29 34  1  0  0  0  0
 30 31  1  0  0  0  0
 30 33  1  0  0  0  0
 30 35  1  0  0  0  0
 31 32  2  0  0  0  0
 31 39  1  0  0  0  0
 33 36  1  0  0  0  0
 33 37  1  0  0  0  0
 33 38  1  0  0  0  0
 39 40  1  0  0  0  0
 39 41  1  0  0  0  0
 40 42  1  0  0  0  0
 40 43  1  0  0  0  0
 40 44  1  0  0  0  0
M  CHG  1  23  -1
M  END
$$$$

  -OEChem-05262215553D

 44 43  0     1  0  0  0  0  0999 V2000
   -2.8179   -1.4863   -1.4432 C   0  0  0  0  0  0  0  0  0  0  0  0
   -2.2195   -2.5402   -1.6068 O   0  0  0  0  0  0  0  0  0  0  0  0
   -3.6637   -1.2890   -0.1995 C   0  0  0  0  0  0  0  0  0  0  0  0
   -4.4615   -0.5690   -0.3991 H   0  0  0  0  0  0  0  0  0  0  0  0
   -4.1115   -2.2372    0.1075 H   0  0  0  0  0  0  0  0  0  0  0  0
   -3.0429   -0.9052    0.6139 H   0  0  0  0  0  0  0  0  0  0  0  0
   -2.6517   -0.4663   -2.3544 N   0  0  0  0  0  0  0  0  0  0  0  0
   -1.7758   -0.5474   -3.5397 C   0  0  2  0  0  0  0  0  0  0  0  0
   -0.3117   -0.1511   -3.2324 C   0  0  0  0  0  0  0  0  0  0  0  0
    0.4048    0.3781   -4.0763 O   0  0  0  0  0  0  0  0  0  0  0  0
   -2.4024    0.3540   -4.6095 C   0  0  0  0  0  0  0  0  0  0  0  0
   -2.8892    0.4713   -2.0042 H   0  0  0  0  0  0  0  0  0  0  0  0
   -1.7590   -1.5725   -3.9221 H   0  0  0  0  0  0  0  0  0  0  0  0
   -2.3947    1.3980   -4.2779 H   0  0  0  0  0  0  0  0  0  0  0  0
   -1.8406    0.2837   -5.5459 H   0  0  0  0  0  0  0  0  0  0  0  0
   -3.4368    0.0554   -4.8032 H   0  0  0  0  0  0  0  0  0  0  0  0
    0.1881   -0.3624   -1.9624 N   0  0  0  0  0  0  0  0  0  0  0  0
    0.8525    0.7427   -1.2543 C   0  0  2  0  0  0  0  0  0  0  0  0
    2.1722    0.2822   -0.5807 C   0  0  0  0  0  0  0  0  0  0  0  0
    2.9383   -0.5035   -1.1293 O   0  0  0  0  0  0  0  0  0  0  0  0
   -0.1748    1.2296   -0.1972 C   0  0  0  0  0  0  0  0  0  0  0  0
   -1.4013    1.9219   -0.7843 C   0  0  0  0  0  0  0  0  0  0  0  0
   -1.2994    2.5351   -1.8675 O   0  5  0  0  0  0  0  0  0  0  0  0
   -2.4953    1.6437   -0.2386 O   0  0  0  0  0  0  0  0  0  0  0  0
   -0.4405   -0.9283   -1.3984 H   0  0  0  0  0  0  0  0  0  0  0  0
    1.1021    1.5638   -1.9371 H   0  0  0  0  0  0  0  0  0  0  0  0
    0.2953    1.9707    0.4528 H   0  0  0  0  0  0  0  0  0  0  0  0
   -0.4929    0.3871    0.4247 H   0  0  0  0  0  0  0  0  0  0  0  0
    2.4891    0.6513    0.7172 N   0  0  0  0  0  0  0  0  0  0  0  0
    3.6706    0.1834    1.4595 C   0  0  2  0  0  0  0  0  0  0  0  0
    3.4922   -1.2491    2.0238 C   0  0  0  0  0  0  0  0  0  0  0  0
    3.6667   -1.5037    3.2115 O   0  0  0  0  0  0  0  0  0  0  0  0
    3.9628    1.2248    2.5469 C   0  0  0  0  0  0  0  0  0  0  0  0
    1.7910    1.1998    1.2109 H   0  0  0  0  0  0  0  0  0  0  0  0
    4.5329    0.1559    0.7850 H   0  0  0  0  0  0  0  0  0  0  0  0
    3.1294    1.2875    3.2538 H   0  0  0  0  0  0  0  0  0  0  0  0
    4.8675    0.9530    3.0998 H   0  0  0  0  0  0  0  0  0  0  0  0
    4.1174    2.2107    2.0978 H   0  0  0  0  0  0  0  0  0  0  0  0
    3.1311   -2.2687    1.1658 N   0  0  0  0  0  0  0  0  0  0  0  0
    2.8687   -3.6390    1.5769 C   0  0  0  0  0  0  0  0  0  0  0  0
    2.9996   -2.0027    0.1849 H   0  0  0  0  0  0  0  0  0  0  0  0
    3.7711   -4.0905    2.0010 H   0  0  0  0  0  0  0  0  0  0  0  0
    2.0710   -3.6681    2.3261 H   0  0  0  0  0  0  0  0  0  0  0  0
    2.5543   -4.2344    0.7145 H   0  0  0  0  0  0  0  0  0  0  0  0
  1  2  2  0  0  0  0
  1  3  1  0  0  0  0
  1  7  1  0  0  0  0
  3  4  1  0  0  0  0
  3  5  1  0  0  0  0
  3  6  1  0  0  0  0
  7  8  1  0  0  0  0
  7 12  1  0  0  0  0
  8  9  1  0  0  0  0
  8 11  1  0  0  0  0
  8 13  1  0  0  0  0
  9 10  2  0  0  0  0
  9 17  1  0  0  0  0
 11 14  1  0  0  0  0
 11 15  1  0  0  0  0
 11 16  1  0  0  0  0
 17 18  1  0  0  0  0
 17 25  1  0  0  0  0
 18 19  1  0  0  0  0
 18 21  1  0  0  0  0
 18 26  1  0  0  0  0
 19 20  2  0  0  0  0
 19 29  1  0  0  0  0
 21 22  1  0  0  0  0
 21 27  1  0  0  0  0
 21 28  1  0  0  0  0
 22 23  1  0  0  0  0
 22 24  2  0  0  0  0
 29 30  1  0  0  0  0
 29 34  1  0  0  0  0
 30 31  1  0  0  0  0
 30 33  1  0  0  0  0
 30 35  1  0  0  0  0
 31 32  2  0  0  0  0
 31 39  1  0  0  0  0
 33 36  1  0  0  0  0
 33 37  1  0  0  0  0
 33 38  1  0  0  0  0
 39 40  1  0  0  0  0
 39 41  1  0  0  0  0
 40 42  1  0  0  0  0
 40 43  1  0  0  0  0
 40 44  1  0  0  0  0
M  CHG  1  23  -1
M  END
$$$$

  -OEChem-05262215553D

 44 43  0     1  0  0  0  0  0999 V2000
   -2.8602   -1.4348   -1.7113 C   0  0  0  0  0  0  0  0  0  0  0  0
   -2.2467   -2.4876   -1.8164 O   0  0  0  0  0  0  0  0  0  0  0  0
   -3.8248   -1.2409   -0.5566 C   0  0  0  0  0  0  0  0  0  0  0  0
   -4.5814   -0.4975   -0.8202 H   0  0  0  0  0  0  0  0  0  0  0  0
   -4.3233   -2.1839   -0.3192 H   0  0  0  0  0  0  0  0  0  0  0  0
   -3.2825   -0.8896    0.3247 H   0  0  0  0  0  0  0  0  0  0  0  0
   -2.6100   -0.4186   -2.6077 N   0  0  0  0  0  0  0  0  0  0  0  0
   -1.6418   -0.5149   -3.7175 C   0  0  2  0  0  0  0  0  0  0  0  0
   -0.1974   -0.1614   -3.2891 C   0  0  0  0  0  0  0  0  0  0  0  0
    0.5953    0.3629   -4.0645 O   0  0  0  0  0  0  0  0  0  0  0  0
   -2.1551    0.4079   -4.8284 C   0  0  0  0  0  0  0  0  0  0  0  0
   -2.8591    0.5225   -2.2769 H   0  0  0  0  0  0  0  0  0  0  0  0
   -1.6208   -1.5379   -4.1052 H   0  0  0  0  0  0  0  0  0  0  0  0
   -2.1505    1.4493   -4.4889 H   0  0  0  0  0  0  0  0  0  0  0  0
   -1.5191    0.3299   -5.7156 H   0  0  0  0  0  0  0  0  0  0  0  0
   -3.1764    0.1352   -5.1099 H   0  0  0  0  0  0  0  0  0  0  0  0
    0.2009   -0.4206   -1.9923 N   0  0  0  0  0  0  0  0  0  0  0  0
    0.8288    0.6523   -1.2058 C   0  0  2  0  0  0  0  0  0  0  0  0
    2.0840    0.1416   -0.4536 C   0  0  0  0  0  0  0  0  0  0  0  0
    3.0158   -0.3919   -1.0461 O   0  0  0  0  0  0  0  0  0  0  0  0
   -0.2561    1.1452   -0.2128 C   0  0  0  0  0  0  0  0  0  0  0  0
   -1.4199    1.8842   -0.8668 C   0  0  0  0  0  0  0  0  0  0  0  0
   -1.2297    2.5178   -1.9261 O   0  5  0  0  0  0  0  0  0  0  0  0
   -2.5546    1.6312   -0.3976 O   0  0  0  0  0  0  0  0  0  0  0  0
   -0.4871   -0.9819   -1.4960 H   0  0  0  0  0  0  0  0  0  0  0  0
    1.1483    1.4835   -1.8462 H   0  0  0  0  0  0  0  0  0  0  0  0
    0.1941    1.8545    0.4858 H   0  0  0  0  0  0  0  0  0  0  0  0
   -0.6427    0.2988    0.3630 H   0  0  0  0  0  0  0  0  0  0  0  0
    2.1715    0.1938    0.9286 N   0  0  0  0  0  0  0  0  0  0  0  0
    3.3109   -0.2991    1.7187 C   0  0  2  0  0  0  0  0  0  0  0  0
    3.3011   -1.8393    1.8940 C   0  0  0  0  0  0  0  0  0  0  0  0
    3.3828   -2.3651    3.0000 O   0  0  0  0  0  0  0  0  0  0  0  0
    3.2940    0.4554    3.0539 C   0  0  0  0  0  0  0  0  0  0  0  0
    1.3553    0.5500    1.4178 H   0  0  0  0  0  0  0  0  0  0  0  0
    4.2428   -0.0428    1.2035 H   0  0  0  0  0  0  0  0  0  0  0  0
    2.3884    0.2155    3.6199 H   0  0  0  0  0  0  0  0  0  0  0  0
    4.1642    0.1782    3.6573 H   0  0  0  0  0  0  0  0  0  0  0  0
    3.3245    1.5356    2.8811 H   0  0  0  0  0  0  0  0  0  0  0  0
    3.2128   -2.6433    0.7750 N   0  0  0  0  0  0  0  0  0  0  0  0
    3.1492   -4.0961    0.8072 C   0  0  0  0  0  0  0  0  0  0  0  0
    3.1499   -2.1552   -0.1241 H   0  0  0  0  0  0  0  0  0  0  0  0
    2.2897   -4.4280    1.3986 H   0  0  0  0  0  0  0  0  0  0  0  0
    3.0429   -4.4893   -0.2084 H   0  0  0  0  0  0  0  0  0  0  0  0
    4.0632   -4.5092    1.2457 H   0  0  0  0  0  0  0  0  0  0  0  0
  1  2  2  0  0  0  0
  1  3  1  0  0  0  0
  1  7  1  0  0  0  0
  3  4  1  0  0  0  0
  3  5  1  0  0  0  0
  3  6  1  0  0  0  0
  7  8  1  0  0  0  0
  7 12  1  0  0  0  0
  8  9  1  0  0  0  0
  8 11  1  0  0  0  0
  8 13  1  0  0  0  0
  9 10  2  0  0  0  0
  9 17  1  0  0  0  0
 11 14  1  0  0  0  0
 11 15  1  0  0  0  0
 11 16  1  0  0  0  0
 17 18  1  0  0  0  0
 17 25  1  0  0  0  0
 18 19  1  0  0  0  0
 18 21  1  0  0  0  0
 18 26  1  0  0  0  0
 19 20  2  0  0  0  0
 19 29  1  0  0  0  0
 21 22  1  0  0  0  0
 21 27  1  0  0  0  0
 21 28  1  0  0  0  0
 22 23  1  0  0  0  0
 22 24  2  0  0  0  0
 29 30  1  0  0  0  0
 29 34  1  0  0  0  0
 30 31  1  0  0  0  0
 30 33  1  0  0  0  0
 30 35  1  0  0  0  0
 31 32  2  0  0  0  0
 31 39  1  0  0  0  0
 33 36  1  0  0  0  0
 33 37  1  0  0  0  0
 33 38  1  0  0  0  0
 39 40  1  0  0  0  0
 39 41  1  0  0  0  0
 40 42  1  0  0  0  0
 40 43  1  0  0  0  0
 40 44  1  0  0  0  0
M  CHG  1  23  -1
M  END
$$$$

  -OEChem-05262215553D

 44 43  0     1  0  0  0  0  0999 V2000
   -2.9421   -1.3351   -1.8245 C   0  0  0  0  0  0  0  0  0  0  0  0
   -2.3349   -2.3917   -1.9279 O   0  0  0  0  0  0  0  0  0  0  0  0
   -3.9243   -1.1439   -0.6845 C   0  0  0  0  0  0  0  0  0  0  0  0
   -4.6321   -0.3472   -0.9278 H   0  0  0  0  0  0  0  0  0  0  0  0
   -4.4798   -2.0680   -0.5076 H   0  0  0  0  0  0  0  0  0  0  0  0
   -3.3874   -0.8673    0.2265 H   0  0  0  0  0  0  0  0  0  0  0  0
   -2.6625   -0.3124   -2.7048 N   0  0  0  0  0  0  0  0  0  0  0  0
   -1.6838   -0.4153   -3.8048 C   0  0  2  0  0  0  0  0  0  0  0  0
   -0.2300   -0.1426   -3.3494 C   0  0  0  0  0  0  0  0  0  0  0  0
    0.5990    0.3573   -4.1022 O   0  0  0  0  0  0  0  0  0  0  0  0
   -2.1394    0.5652   -4.8915 C   0  0  0  0  0  0  0  0  0  0  0  0
   -2.8891    0.6291   -2.3600 H   0  0  0  0  0  0  0  0  0  0  0  0
   -1.7046   -1.4255   -4.2251 H   0  0  0  0  0  0  0  0  0  0  0  0
   -2.0848    1.5948   -4.5214 H   0  0  0  0  0  0  0  0  0  0  0  0
   -1.4997    0.4802   -5.7753 H   0  0  0  0  0  0  0  0  0  0  0  0
   -3.1706    0.3541   -5.1893 H   0  0  0  0  0  0  0  0  0  0  0  0
    0.1388   -0.4570   -2.0563 N   0  0  0  0  0  0  0  0  0  0  0  0
    0.7921    0.5688   -1.2297 C   0  0  2  0  0  0  0  0  0  0  0  0
    2.0145   -0.0112   -0.4791 C   0  0  0  0  0  0  0  0  0  0  0  0
    3.0488   -0.3079   -1.0666 O   0  0  0  0  0  0  0  0  0  0  0  0
   -0.2805    1.0738   -0.2310 C   0  0  0  0  0  0  0  0  0  0  0  0
   -1.4096    1.8758   -0.8707 C   0  0  0  0  0  0  0  0  0  0  0  0
   -1.1878    2.5325   -1.9098 O   0  5  0  0  0  0  0  0  0  0  0  0
   -2.5563    1.6554   -0.4140 O   0  0  0  0  0  0  0  0  0  0  0  0
   -0.5808   -1.0042   -1.5884 H   0  0  0  0  0  0  0  0  0  0  0  0
    1.1509    1.4062   -1.8409 H   0  0  0  0  0  0  0  0  0  0  0  0
    0.1961    1.7365    0.4960 H   0  0  0  0  0  0  0  0  0  0  0  0
   -0.7096    0.2261    0.3117 H   0  0  0  0  0  0  0  0  0  0  0  0
    1.9584   -0.2868    0.8777 N   0  0  0  0  0  0  0  0  0  0  0  0
    3.0632   -0.8525    1.6673 C   0  0  2  0  0  0  0  0  0  0  0  0
    3.2097   -2.3852    1.4870 C   0  0  0  0  0  0  0  0  0  0  0  0
    3.2745   -3.1455    2.4483 O   0  0  0  0  0  0  0  0  0  0  0  0
    2.8305   -0.4385    3.1257 C   0  0  0  0  0  0  0  0  0  0  0  0
    1.0710   -0.1041    1.3377 H   0  0  0  0  0  0  0  0  0  0  0  0
    4.0059   -0.4023    1.3397 H   0  0  0  0  0  0  0  0  0  0  0  0
    1.9108   -0.8901    3.5116 H   0  0  0  0  0  0  0  0  0  0  0  0
    3.6673   -0.7651    3.7513 H   0  0  0  0  0  0  0  0  0  0  0  0
    2.7473    0.6500    3.2039 H   0  0  0  0  0  0  0  0  0  0  0  0
    3.2921   -2.9083    0.2119 N   0  0  0  0  0  0  0  0  0  0  0  0
    3.4085   -4.3258   -0.0926 C   0  0  0  0  0  0  0  0  0  0  0  0
    3.2519   -2.2292   -0.5546 H   0  0  0  0  0  0  0  0  0  0  0  0
    4.3395   -4.7296    0.3175 H   0  0  0  0  0  0  0  0  0  0  0  0
    2.5641   -4.8785    0.3314 H   0  0  0  0  0  0  0  0  0  0  0  0
    3.4116   -4.4770   -1.1762 H   0  0  0  0  0  0  0  0  0  0  0  0
  1  2  2  0  0  0  0
  1  3  1  0  0  0  0
  1  7  1  0  0  0  0
  3  4  1  0  0  0  0
  3  5  1  0  0  0  0
  3  6  1  0  0  0  0
  7  8  1  0  0  0  0
  7 12  1  0  0  0  0
  8  9  1  0  0  0  0
  8 11  1  0  0  0  0
  8 13  1  0  0  0  0
  9 10  2  0  0  0  0
  9 17  1  0  0  0  0
 11 14  1  0  0  0  0
 11 15  1  0  0  0  0
 11 16  1  0  0  0  0
 17 18  1  0  0  0  0
 17 25  1  0  0  0  0
 18 19  1  0  0  0  0
 18 21  1  0  0  0  0
 18 26  1  0  0  0  0
 19 20  2  0  0  0  0
 19 29  1  0  0  0  0
 21 22  1  0  0  0  0
 21 27  1  0  0  0  0
 21 28  1  0  0  0  0
 22 23  1  0  0  0  0
 22 24  2  0  0  0  0
 29 30  1  0  0  0  0
 29 34  1  0  0  0  0
 30 31  1  0  0  0  0
 30 33  1  0  0  0  0
 30 35  1  0  0  0  0
 31 32  2  0  0  0  0
 31 39  1  0  0  0  0
 33 36  1  0  0  0  0
 33 37  1  0  0  0  0
 33 38  1  0  0  0  0
 39 40  1  0  0  0  0
 39 41  1  0  0  0  0
 40 42  1  0  0  0  0
 40 43  1  0  0  0  0
 40 44  1  0  0  0  0
M  CHG  1  23  -1
M  END
$$$$

  -OEChem-05262215553D

 44 43  0     1  0  0  0  0  0999 V2000
   -3.0250   -1.2363   -1.8429 C   0  0  0  0  0  0  0  0  0  0  0  0
   -2.4131   -2.2924   -1.9243 O   0  0  0  0  0  0  0  0  0  0  0  0
   -4.0257   -1.0349   -0.7210 C   0  0  0  0  0  0  0  0  0  0  0  0
   -4.6855   -0.1942   -0.9515 H   0  0  0  0  0  0  0  0  0  0  0  0
   -4.6315   -1.9349   -0.5908 H   0  0  0  0  0  0  0  0  0  0  0  0
   -3.4987   -0.8181    0.2116 H   0  0  0  0  0  0  0  0  0  0  0  0
   -2.7393   -0.2276   -2.7374 N   0  0  0  0  0  0  0  0  0  0  0  0
   -1.7631   -0.3517   -3.8373 C   0  0  2  0  0  0  0  0  0  0  0  0
   -0.3029   -0.1103   -3.3841 C   0  0  0  0  0  0  0  0  0  0  0  0
    0.5360    0.3751   -4.1351 O   0  0  0  0  0  0  0  0  0  0  0  0
   -2.1993    0.6380   -4.9233 C   0  0  0  0  0  0  0  0  0  0  0  0
   -2.9540    0.7193   -2.4016 H   0  0  0  0  0  0  0  0  0  0  0  0
   -1.8066   -1.3617   -4.2566 H   0  0  0  0  0  0  0  0  0  0  0  0
   -2.1291    1.6654   -4.5500 H   0  0  0  0  0  0  0  0  0  0  0  0
   -1.5594    0.5452   -5.8060 H   0  0  0  0  0  0  0  0  0  0  0  0
   -3.2327    0.4434   -5.2242 H   0  0  0  0  0  0  0  0  0  0  0  0
    0.0688   -0.4580   -2.1009 N   0  0  0  0  0  0  0  0  0  0  0  0
    0.7442    0.5380   -1.2560 C   0  0  2  0  0  0  0  0  0  0  0  0
    1.9574   -0.0864   -0.5317 C   0  0  0  0  0  0  0  0  0  0  0  0
    3.0644   -0.1325   -1.0564 O   0  0  0  0  0  0  0  0  0  0  0  0
   -0.3033    1.0419   -0.2329 C   0  0  0  0  0  0  0  0  0  0  0  0
   -1.4227    1.8799   -0.8446 C   0  0  0  0  0  0  0  0  0  0  0  0
   -1.1994    2.5526   -1.8735 O   0  5  0  0  0  0  0  0  0  0  0  0
   -2.5675    1.6837   -0.3725 O   0  0  0  0  0  0  0  0  0  0  0  0
   -0.6612   -0.9994   -1.6411 H   0  0  0  0  0  0  0  0  0  0  0  0
    1.1147    1.3823   -1.8511 H   0  0  0  0  0  0  0  0  0  0  0  0
    0.1985    1.6709    0.5070 H   0  0  0  0  0  0  0  0  0  0  0  0
   -0.7473    0.1915    0.2929 H   0  0  0  0  0  0  0  0  0  0  0  0
    1.8166   -0.6751    0.7144 N   0  0  0  0  0  0  0  0  0  0  0  0
    2.8942   -1.3648    1.4412 C   0  0  2  0  0  0  0  0  0  0  0  0
    3.1728   -2.7871    0.8904 C   0  0  0  0  0  0  0  0  0  0  0  0
    3.1518   -3.7774    1.6151 O   0  0  0  0  0  0  0  0  0  0  0  0
    2.5095   -1.3634    2.9255 C   0  0  0  0  0  0  0  0  0  0  0  0
    0.8755   -0.7013    1.0960 H   0  0  0  0  0  0  0  0  0  0  0  0
    3.8223   -0.7931    1.3362 H   0  0  0  0  0  0  0  0  0  0  0  0
    1.5899   -1.9355    3.0841 H   0  0  0  0  0  0  0  0  0  0  0  0
    3.3068   -1.8140    3.5250 H   0  0  0  0  0  0  0  0  0  0  0  0
    2.3508   -0.3393    3.2767 H   0  0  0  0  0  0  0  0  0  0  0  0
    3.4575   -2.9436   -0.4516 N   0  0  0  0  0  0  0  0  0  0  0  0
    3.6070   -4.2289   -1.1157 C   0  0  0  0  0  0  0  0  0  0  0  0
    3.4219   -2.0894   -1.0169 H   0  0  0  0  0  0  0  0  0  0  0  0
    4.4085   -4.8107   -0.6494 H   0  0  0  0  0  0  0  0  0  0  0  0
    2.6738   -4.7988   -1.0595 H   0  0  0  0  0  0  0  0  0  0  0  0
    3.8581   -4.0773   -2.1699 H   0  0  0  0  0  0  0  0  0  0  0  0
  1  2  2  0  0  0  0
  1  3  1  0  0  0  0
  1  7  1  0  0  0  0
  3  4  1  0  0  0  0
  3  5  1  0  0  0  0
  3  6  1  0  0  0  0
  7  8  1  0  0  0  0
  7 12  1  0  0  0  0
  8  9  1  0  0  0  0
  8 11  1  0  0  0  0
  8 13  1  0  0  0  0
  9 10  2  0  0  0  0
  9 17  1  0  0  0  0
 11 14  1  0  0  0  0
 11 15  1  0  0  0  0
 11 16  1  0  0  0  0
 17 18  1  0  0  0  0
 17 25  1  0  0  0  0
 18 19  1  0  0  0  0
 18 21  1  0  0  0  0
 18 26  1  0  0  0  0
 19 20  2  0  0  0  0
 19 29  1  0  0  0  0
 21 22  1  0  0  0  0
 21 27  1  0  0  0  0
 21 28  1  0  0  0  0
 22 23  1  0  0  0  0
 22 24  2  0  0  0  0
 29 30  1  0  0  0  0
 29 34  1  0  0  0  0
 30 31  1  0  0  0  0
 30 33  1  0  0  0  0
 30 35  1  0  0  0  0
 31 32  2  0  0  0  0
 31 39  1  0  0  0  0
 33 36  1  0  0  0  0
 33 37  1  0  0  0  0
 33 38  1  0  0  0  0
 39 40  1  0  0  0  0
 39 41  1  0  0  0  0
 40 42  1  0  0  0  0
 40 43  1  0  0  0  0
 40 44  1  0  0  0  0
M  CHG  1  23  -1
M  END
$$$$

  -OEChem-05262215553D

 44 43  0     1  0  0  0  0  0999 V2000
   -3.1722   -1.1564   -1.7940 C   0  0  0  0  0  0  0  0  0  0  0  0
   -2.5890   -2.2304   -1.8516 O   0  0  0  0  0  0  0  0  0  0  0  0
   -4.1277   -0.8843   -0.6476 C   0  0  0  0  0  0  0  0  0  0  0  0
   -4.7712   -0.0339   -0.8870 H   0  0  0  0  0  0  0  0  0  0  0  0
   -4.7539   -1.7603   -0.4631 H   0  0  0  0  0  0  0  0  0  0  0  0
   -3.5632   -0.6491    0.2583 H   0  0  0  0  0  0  0  0  0  0  0  0
   -2.8909   -0.1926   -2.7386 N   0  0  0  0  0  0  0  0  0  0  0  0
   -1.9658   -0.3936   -3.8714 C   0  0  2  0  0  0  0  0  0  0  0  0
   -0.4791   -0.2061   -3.4863 C   0  0  0  0  0  0  0  0  0  0  0  0
    0.3544    0.1954   -4.2909 O   0  0  0  0  0  0  0  0  0  0  0  0
   -2.3992    0.5821   -4.9706 C   0  0  0  0  0  0  0  0  0  0  0  0
   -3.0562    0.7736   -2.4297 H   0  0  0  0  0  0  0  0  0  0  0  0
   -2.0710   -1.4124   -4.2562 H   0  0  0  0  0  0  0  0  0  0  0  0
   -2.2690    1.6157   -4.6316 H   0  0  0  0  0  0  0  0  0  0  0  0
   -1.7981    0.4344   -5.8731 H   0  0  0  0  0  0  0  0  0  0  0  0
   -3.4512    0.4260   -5.2269 H   0  0  0  0  0  0  0  0  0  0  0  0
   -0.0718   -0.5193   -2.2057 N   0  0  0  0  0  0  0  0  0  0  0  0
    0.6705    0.4864   -1.4315 C   0  0  2  0  0  0  0  0  0  0  0  0
    1.8861   -0.1557   -0.7323 C   0  0  0  0  0  0  0  0  0  0  0  0
    3.0257   -0.0100   -1.1604 O   0  0  0  0  0  0  0  0  0  0  0  0
   -0.3039    1.0641   -0.3780 C   0  0  0  0  0  0  0  0  0  0  0  0
   -1.4258    1.9151   -0.9664 C   0  0  0  0  0  0  0  0  0  0  0  0
   -1.2349    2.5389   -2.0323 O   0  5  0  0  0  0  0  0  0  0  0  0
   -2.5520    1.7698   -0.4351 O   0  0  0  0  0  0  0  0  0  0  0  0
   -0.8128   -1.0007   -1.6986 H   0  0  0  0  0  0  0  0  0  0  0  0
    1.0426    1.2936   -2.0757 H   0  0  0  0  0  0  0  0  0  0  0  0
    0.2585    1.7024    0.3085 H   0  0  0  0  0  0  0  0  0  0  0  0
   -0.7468    0.2521    0.2059 H   0  0  0  0  0  0  0  0  0  0  0  0
    1.7137   -0.9530    0.3869 N   0  0  0  0  0  0  0  0  0  0  0  0
    2.7991   -1.6655    1.0784 C   0  0  2  0  0  0  0  0  0  0  0  0
    3.2452   -2.9479    0.3303 C   0  0  0  0  0  0  0  0  0  0  0  0
    3.2948   -4.0392    0.8898 O   0  0  0  0  0  0  0  0  0  0  0  0
    2.3167   -1.9416    2.5076 C   0  0  0  0  0  0  0  0  0  0  0  0
    0.7542   -1.1358    0.6656 H   0  0  0  0  0  0  0  0  0  0  0  0
    3.6754   -1.0119    1.1424 H   0  0  0  0  0  0  0  0  0  0  0  0
    1.4499   -2.6100    2.4986 H   0  0  0  0  0  0  0  0  0  0  0  0
    3.1130   -2.4129    3.0919 H   0  0  0  0  0  0  0  0  0  0  0  0
    2.0339   -1.0068    3.0013 H   0  0  0  0  0  0  0  0  0  0  0  0
    3.6077   -2.8588   -0.9992 N   0  0  0  0  0  0  0  0  0  0  0  0
    3.9411   -3.9980   -1.8396 C   0  0  0  0  0  0  0  0  0  0  0  0
    3.5269   -1.9295   -1.4235 H   0  0  0  0  0  0  0  0  0  0  0  0
    4.8094   -4.5299   -1.4381 H   0  0  0  0  0  0  0  0  0  0  0  0
    3.0953   -4.6906   -1.8977 H   0  0  0  0  0  0  0  0  0  0  0  0
    4.1806   -3.6582   -2.8518 H   0  0  0  0  0  0  0  0  0  0  0  0
  1  2  2  0  0  0  0
  1  3  1  0  0  0  0
  1  7  1  0  0  0  0
  3  4  1  0  0  0  0
  3  5  1  0  0  0  0
  3  6  1  0  0  0  0
  7  8  1  0  0  0  0
  7 12  1  0  0  0  0
  8  9  1  0  0  0  0
  8 11  1  0  0  0  0
  8 13  1  0  0  0  0
  9 10  2  0  0  0  0
  9 17  1  0  0  0  0
 11 14  1  0  0  0  0
 11 15  1  0  0  0  0
 11 16  1  0  0  0  0
 17 18  1  0  0  0  0
 17 25  1  0  0  0  0
 18 19  1  0  0  0  0
 18 21  1  0  0  0  0
 18 26  1  0  0  0  0
 19 20  2  0  0  0  0
 19 29  1  0  0  0  0
 21 22  1  0  0  0  0
 21 27  1  0  0  0  0
 21 28  1  0  0  0  0
 22 23  1  0  0  0  0
 22 24  2  0  0  0  0
 29 30  1  0  0  0  0
 29 34  1  0  0  0  0
 30 31  1  0  0  0  0
 30 33  1  0  0  0  0
 30 35  1  0  0  0  0
 31 32  2  0  0  0  0
 31 39  1  0  0  0  0
 33 36  1  0  0  0  0
 33 37  1  0  0  0  0
 33 38  1  0  0  0  0
 39 40  1  0  0  0  0
 39 41  1  0  0  0  0
 40 42  1  0  0  0  0
 40 43  1  0  0  0  0
 40 44  1  0  0  0  0
M  CHG  1  23  -1
M  END
$$$$

  -OEChem-05262215553D

 44 43  0     1  0  0  0  0  0999 V2000
   -3.3539   -1.0600   -1.7495 C   0  0  0  0  0  0  0  0  0  0  0  0
   -2.8028   -2.1505   -1.8188 O   0  0  0  0  0  0  0  0  0  0  0  0
   -4.2247   -0.7378   -0.5500 C   0  0  0  0  0  0  0  0  0  0  0  0
   -4.8789   -1.5828   -0.3228 H   0  0  0  0  0  0  0  0  0  0  0  0
   -3.5956   -0.5258    0.3182 H   0  0  0  0  0  0  0  0  0  0  0  0
   -4.8409    0.1414   -0.7557 H   0  0  0  0  0  0  0  0  0  0  0  0
   -3.1044   -0.1232   -2.7296 N   0  0  0  0  0  0  0  0  0  0  0  0
   -2.2618   -0.3725   -3.9161 C   0  0  2  0  0  0  0  0  0  0  0  0
   -0.7457   -0.2486   -3.6280 C   0  0  0  0  0  0  0  0  0  0  0  0
    0.0556    0.0893   -4.4924 O   0  0  0  0  0  0  0  0  0  0  0  0
   -2.7196    0.6155   -4.9949 C   0  0  0  0  0  0  0  0  0  0  0  0
   -3.2169    0.8529   -2.4286 H   0  0  0  0  0  0  0  0  0  0  0  0
   -2.4380   -1.3882   -4.2829 H   0  0  0  0  0  0  0  0  0  0  0  0
   -2.5163    1.6441   -4.6774 H   0  0  0  0  0  0  0  0  0  0  0  0
   -2.1883    0.4312   -5.9337 H   0  0  0  0  0  0  0  0  0  0  0  0
   -3.7928    0.5110   -5.1789 H   0  0  0  0  0  0  0  0  0  0  0  0
   -0.2737   -0.5495   -2.3668 N   0  0  0  0  0  0  0  0  0  0  0  0
    0.5579    0.4424   -1.6681 C   0  0  2  0  0  0  0  0  0  0  0  0
    1.7883   -0.2283   -1.0258 C   0  0  0  0  0  0  0  0  0  0  0  0
    2.9314    0.1136   -1.3086 O   0  0  0  0  0  0  0  0  0  0  0  0
   -0.3178    1.0755   -0.5635 C   0  0  0  0  0  0  0  0  0  0  0  0
   -1.4461    1.9556   -1.0950 C   0  0  0  0  0  0  0  0  0  0  0  0
   -1.3044    2.5488   -2.1861 O   0  5  0  0  0  0  0  0  0  0  0  0
   -2.5419    1.8555   -0.4936 O   0  0  0  0  0  0  0  0  0  0  0  0
   -1.0112   -0.9705   -1.8042 H   0  0  0  0  0  0  0  0  0  0  0  0
    0.9161    1.2213   -2.3535 H   0  0  0  0  0  0  0  0  0  0  0  0
    0.3142    1.7074    0.0662 H   0  0  0  0  0  0  0  0  0  0  0  0
   -0.7432    0.2927    0.0710 H   0  0  0  0  0  0  0  0  0  0  0  0
    1.6238   -1.2229   -0.0764 N   0  0  0  0  0  0  0  0  0  0  0  0
    2.7228   -1.8872    0.6416 C   0  0  2  0  0  0  0  0  0  0  0  0
    3.4467   -2.9622   -0.2094 C   0  0  0  0  0  0  0  0  0  0  0  0
    3.6496   -4.0952    0.2171 O   0  0  0  0  0  0  0  0  0  0  0  0
    2.1310   -2.4528    1.9384 C   0  0  0  0  0  0  0  0  0  0  0  0
    0.6721   -1.5381    0.0860 H   0  0  0  0  0  0  0  0  0  0  0  0
    3.4748   -1.1396    0.9148 H   0  0  0  0  0  0  0  0  0  0  0  0
    1.3904   -3.2278    1.7163 H   0  0  0  0  0  0  0  0  0  0  0  0
    2.9204   -2.8932    2.5554 H   0  0  0  0  0  0  0  0  0  0  0  0
    1.6463   -1.6585    2.5143 H   0  0  0  0  0  0  0  0  0  0  0  0
    3.9031   -2.6310   -1.4696 N   0  0  0  0  0  0  0  0  0  0  0  0
    4.5572   -3.5586   -2.3792 C   0  0  0  0  0  0  0  0  0  0  0  0
    3.7207   -1.6701   -1.7747 H   0  0  0  0  0  0  0  0  0  0  0  0
    5.4938   -3.9238   -1.9458 H   0  0  0  0  0  0  0  0  0  0  0  0
    3.9054   -4.4131   -2.5879 H   0  0  0  0  0  0  0  0  0  0  0  0
    4.7841   -3.0580   -3.3252 H   0  0  0  0  0  0  0  0  0  0  0  0
  1  2  2  0  0  0  0
  1  3  1  0  0  0  0
  1  7  1  0  0  0  0
  3  4  1  0  0  0  0
  3  5  1  0  0  0  0
  3  6  1  0  0  0  0
  7  8  1  0  0  0  0
  7 12  1  0  0  0  0
  8  9  1  0  0  0  0
  8 11  1  0  0  0  0
  8 13  1  0  0  0  0
  9 10  2  0  0  0  0
  9 17  1  0  0  0  0
 11 14  1  0  0  0  0
 11 15  1  0  0  0  0
 11 16  1  0  0  0  0
 17 18  1  0  0  0  0
 17 25  1  0  0  0  0
 18 19  1  0  0  0  0
 18 21  1  0  0  0  0
 18 26  1  0  0  0  0
 19 20  2  0  0  0  0
 19 29  1  0  0  0  0
 21 22  1  0  0  0  0
 21 27  1  0  0  0  0
 21 28  1  0  0  0  0
 22 23  1  0  0  0  0
 22 24  2  0  0  0  0
 29 30  1  0  0  0  0
 29 34  1  0  0  0  0
 30 31  1  0  0  0  0
 30 33  1  0  0  0  0
 30 35  1  0  0  0  0
 31 32  2  0  0  0  0
 31 39  1  0  0  0  0
 33 36  1  0  0  0  0
 33 37  1  0  0  0  0
 33 38  1  0  0  0  0
 39 40  1  0  0  0  0
 39 41  1  0  0  0  0
 40 42  1  0  0  0  0
 40 43  1  0  0  0  0
 40 44  1  0  0  0  0
M  CHG  1  23  -1
M  END
$$$$

  -OEChem-05262215553D

 44 43  0     1  0  0  0  0  0999 V2000
   -3.4807   -0.9726   -1.6032 C   0  0  0  0  0  0  0  0  0  0  0  0
   -2.9425   -2.0718   -1.6219 O   0  0  0  0  0  0  0  0  0  0  0  0
   -4.2965   -0.5572   -0.3935 C   0  0  0  0  0  0  0  0  0  0  0  0
   -4.8768    0.3411   -0.6199 H   0  0  0  0  0  0  0  0  0  0  0  0
   -4.9831   -1.3583   -0.1101 H   0  0  0  0  0  0  0  0  0  0  0  0
   -3.6311   -0.3384    0.4456 H   0  0  0  0  0  0  0  0  0  0  0  0
   -3.2793   -0.1141   -2.6630 N   0  0  0  0  0  0  0  0  0  0  0  0
   -2.5188   -0.4647   -3.8783 C   0  0  2  0  0  0  0  0  0  0  0  0
   -0.9866   -0.3437   -3.6996 C   0  0  0  0  0  0  0  0  0  0  0  0
   -0.2380   -0.0998   -4.6397 O   0  0  0  0  0  0  0  0  0  0  0  0
   -3.0351    0.4445   -4.9992 C   0  0  0  0  0  0  0  0  0  0  0  0
   -3.3612    0.8833   -2.4297 H   0  0  0  0  0  0  0  0  0  0  0  0
   -2.7289   -1.5027   -4.1542 H   0  0  0  0  0  0  0  0  0  0  0  0
   -2.8038    1.4916   -4.7751 H   0  0  0  0  0  0  0  0  0  0  0  0
   -2.5653    0.1819   -5.9521 H   0  0  0  0  0  0  0  0  0  0  0  0
   -4.1186    0.3401   -5.1079 H   0  0  0  0  0  0  0  0  0  0  0  0
   -0.4296   -0.5629   -2.4567 N   0  0  0  0  0  0  0  0  0  0  0  0
    0.4566    0.4711   -1.8991 C   0  0  2  0  0  0  0  0  0  0  0  0
    1.7294   -0.1574   -1.2995 C   0  0  0  0  0  0  0  0  0  0  0  0
    2.8354    0.3455   -1.4680 O   0  0  0  0  0  0  0  0  0  0  0  0
   -0.3266    1.1821   -0.7741 C   0  0  0  0  0  0  0  0  0  0  0  0
   -1.4954    2.0280   -1.2718 C   0  0  0  0  0  0  0  0  0  0  0  0
   -1.4435    2.5434   -2.4100 O   0  5  0  0  0  0  0  0  0  0  0  0
   -2.5383    1.9766   -0.5778 O   0  0  0  0  0  0  0  0  0  0  0  0
   -1.1401   -0.9087   -1.8132 H   0  0  0  0  0  0  0  0  0  0  0  0
    0.7630    1.1976   -2.6629 H   0  0  0  0  0  0  0  0  0  0  0  0
    0.3533    1.8530   -0.2423 H   0  0  0  0  0  0  0  0  0  0  0  0
   -0.6955    0.4445   -0.0553 H   0  0  0  0  0  0  0  0  0  0  0  0
    1.6394   -1.2831   -0.4990 N   0  0  0  0  0  0  0  0  0  0  0  0
    2.7794   -1.9296    0.1687 C   0  0  2  0  0  0  0  0  0  0  0  0
    3.6381   -2.7907   -0.7934 C   0  0  0  0  0  0  0  0  0  0  0  0
    3.9032   -3.9639   -0.5491 O   0  0  0  0  0  0  0  0  0  0  0  0
    2.2112   -2.7331    1.3450 C   0  0  0  0  0  0  0  0  0  0  0  0
    0.7309   -1.7365   -0.4659 H   0  0  0  0  0  0  0  0  0  0  0  0
    3.4384   -1.1576    0.5792 H   0  0  0  0  0  0  0  0  0  0  0  0
    1.5574   -3.5331    0.9829 H   0  0  0  0  0  0  0  0  0  0  0  0
    3.0227   -3.1836    1.9252 H   0  0  0  0  0  0  0  0  0  0  0  0
    1.6341   -2.0811    2.0081 H   0  0  0  0  0  0  0  0  0  0  0  0
    4.1406   -2.2173   -1.9449 N   0  0  0  0  0  0  0  0  0  0  0  0
    4.8758   -2.9409   -2.9710 C   0  0  0  0  0  0  0  0  0  0  0  0
    3.8677   -1.2445   -2.1146 H   0  0  0  0  0  0  0  0  0  0  0  0
    5.7663   -3.4143   -2.5451 H   0  0  0  0  0  0  0  0  0  0  0  0
    4.2437   -3.7134   -3.4202 H   0  0  0  0  0  0  0  0  0  0  0  0
    5.1941   -2.2517   -3.7589 H   0  0  0  0  0  0  0  0  0  0  0  0
  1  2  2  0  0  0  0
  1  3  1  0  0  0  0
  1  7  1  0  0  0  0
  3  4  1  0  0  0  0
  3  5  1  0  0  0  0
  3  6  1  0  0  0  0
  7  8  1  0  0  0  0
  7 12  1  0  0  0  0
  8  9  1  0  0  0  0
  8 11  1  0  0  0  0
  8 13  1  0  0  0  0
  9 10  2  0  0  0  0
  9 17  1  0  0  0  0
 11 14  1  0  0  0  0
 11 15  1  0  0  0  0
 11 16  1  0  0  0  0
 17 18  1  0  0  0  0
 17 25  1  0  0  0  0
 18 19  1  0  0  0  0
 18 21  1  0  0  0  0
 18 26  1  0  0  0  0
 19 20  2  0  0  0  0
 19 29  1  0  0  0  0
 21 22  1  0  0  0  0
 21 27  1  0  0  0  0
 21 28  1  0  0  0  0
 22 23  1  0  0  0  0
 22 24  2  0  0  0  0
 29 30  1  0  0  0  0
 29 34  1  0  0  0  0
 30 31  1  0  0  0  0
 30 33  1  0  0  0  0
 30 35  1  0  0  0  0
 31 32  2  0  0  0  0
 31 39  1  0  0  0  0
 33 36  1  0  0  0  0
 33 37  1  0  0  0  0
 33 38  1  0  0  0  0
 39 40  1  0  0  0  0
 39 41  1  0  0  0  0
 40 42  1  0  0  0  0
 40 43  1  0  0  0  0
 40 44  1  0  0  0  0
M  CHG  1  23  -1
M  END
$$$$

  -OEChem-05262215553D

 44 43  0     1  0  0  0  0  0999 V2000
   -3.5634   -0.9897   -1.6242 C   0  0  0  0  0  0  0  0  0  0  0  0
   -3.0432   -2.0907   -1.7447 O   0  0  0  0  0  0  0  0  0  0  0  0
   -4.2771   -0.6349   -0.3338 C   0  0  0  0  0  0  0  0  0  0  0  0
   -4.9843    0.1805   -0.5072 H   0  0  0  0  0  0  0  0  0  0  0  0
   -4.8232   -1.5020    0.0455 H   0  0  0  0  0  0  0  0  0  0  0  0
   -3.5504   -0.3126    0.4161 H   0  0  0  0  0  0  0  0  0  0  0  0
   -3.4117   -0.0659   -2.6358 N   0  0  0  0  0  0  0  0  0  0  0  0
   -2.7091   -0.3384   -3.9054 C   0  0  2  0  0  0  0  0  0  0  0  0
   -1.1702   -0.2253   -3.7890 C   0  0  0  0  0  0  0  0  0  0  0  0
   -0.4579    0.0270   -4.7546 O   0  0  0  0  0  0  0  0  0  0  0  0
   -3.2736    0.6378   -4.9432 C   0  0  0  0  0  0  0  0  0  0  0  0
   -3.4840    0.9156   -2.3366 H   0  0  0  0  0  0  0  0  0  0  0  0
   -2.9330   -1.3574   -4.2356 H   0  0  0  0  0  0  0  0  0  0  0  0
   -3.0323    1.6694   -4.6654 H   0  0  0  0  0  0  0  0  0  0  0  0
   -2.8468    0.4363   -5.9305 H   0  0  0  0  0  0  0  0  0  0  0  0
   -4.3609    0.5382   -5.0100 H   0  0  0  0  0  0  0  0  0  0  0  0
   -0.5643   -0.4612   -2.5722 N   0  0  0  0  0  0  0  0  0  0  0  0
    0.3438    0.5638   -2.0324 C   0  0  2  0  0  0  0  0  0  0  0  0
    1.6410   -0.0675   -1.4899 C   0  0  0  0  0  0  0  0  0  0  0  0
    2.6869    0.5703   -1.4262 O   0  0  0  0  0  0  0  0  0  0  0  0
   -0.4058    1.2484   -0.8694 C   0  0  0  0  0  0  0  0  0  0  0  0
   -1.5937    2.0965   -1.3165 C   0  0  0  0  0  0  0  0  0  0  0  0
   -1.5744    2.6312   -2.4467 O   0  5  0  0  0  0  0  0  0  0  0  0
   -2.6252    2.0039   -0.6089 O   0  0  0  0  0  0  0  0  0  0  0  0
   -1.2520   -0.8056   -1.9044 H   0  0  0  0  0  0  0  0  0  0  0  0
    0.6191    1.3040   -2.7943 H   0  0  0  0  0  0  0  0  0  0  0  0
    0.2876    1.9145   -0.3489 H   0  0  0  0  0  0  0  0  0  0  0  0
   -0.7447    0.4955   -0.1517 H   0  0  0  0  0  0  0  0  0  0  0  0
    1.6260   -1.3518   -0.9742 N   0  0  0  0  0  0  0  0  0  0  0  0
    2.7707   -2.0138   -0.3299 C   0  0  2  0  0  0  0  0  0  0  0  0
    3.8254   -2.5341   -1.3397 C   0  0  0  0  0  0  0  0  0  0  0  0
    4.2434   -3.6876   -1.3029 O   0  0  0  0  0  0  0  0  0  0  0  0
    2.2021   -3.1230    0.5634 C   0  0  0  0  0  0  0  0  0  0  0  0
    0.7814   -1.8892   -1.1499 H   0  0  0  0  0  0  0  0  0  0  0  0
    3.2805   -1.2930    0.3177 H   0  0  0  0  0  0  0  0  0  0  0  0
    1.6975   -3.8825   -0.0424 H   0  0  0  0  0  0  0  0  0  0  0  0
    3.0061   -3.6059    1.1279 H   0  0  0  0  0  0  0  0  0  0  0  0
    1.4829   -2.7076    1.2760 H   0  0  0  0  0  0  0  0  0  0  0  0
    4.3405   -1.6676   -2.2830 N   0  0  0  0  0  0  0  0  0  0  0  0
    5.3113   -2.0405   -3.3001 C   0  0  0  0  0  0  0  0  0  0  0  0
    3.9631   -0.7153   -2.2705 H   0  0  0  0  0  0  0  0  0  0  0  0
    4.9205   -2.8516   -3.9227 H   0  0  0  0  0  0  0  0  0  0  0  0
    5.5270   -1.1828   -3.9443 H   0  0  0  0  0  0  0  0  0  0  0  0
    6.2460   -2.3691   -2.8344 H   0  0  0  0  0  0  0  0  0  0  0  0
  1  2  2  0  0  0  0
  1  3  1  0  0  0  0
  1  7  1  0  0  0  0
  3  4  1  0  0  0  0
  3  5  1  0  0  0  0
  3  6  1  0  0  0  0
  7  8  1  0  0  0  0
  7 12  1  0  0  0  0
  8  9  1  0  0  0  0
  8 11  1  0  0  0  0
  8 13  1  0  0  0  0
  9 10  2  0  0  0  0
  9 17  1  0  0  0  0
 11 14  1  0  0  0  0
 11 15  1  0  0  0  0
 11 16  1  0  0  0  0
 17 18  1  0  0  0  0
 17 25  1  0  0  0  0
 18 19  1  0  0  0  0
 18 21  1  0  0  0  0
 18 26  1  0  0  0  0
 19 20  2  0  0  0  0
 19 29  1  0  0  0  0
 21 22  1  0  0  0  0
 21 27  1  0  0  0  0
 21 28  1  0  0  0  0
 22 23  1  0  0  0  0
 22 24  2  0  0  0  0
 29 30  1  0  0  0  0
 29 34  1  0  0  0  0
 30 31  1  0  0  0  0
 30 33  1  0  0  0  0
 30 35  1  0  0  0  0
 31 32  2  0  0  0  0
 31 39  1  0  0  0  0
 33 36  1  0  0  0  0
 33 37  1  0  0  0  0
 33 38  1  0  0  0  0
 39 40  1  0  0  0  0
 39 41  1  0  0  0  0
 40 42  1  0  0  0  0
 40 43  1  0  0  0  0
 40 44  1  0  0  0  0
M  CHG  1  23  -1
M  END
$$$$

  -OEChem-05262215553D

 44 43  0     1  0  0  0  0  0999 V2000
   -3.6229   -0.9378   -1.5922 C   0  0  0  0  0  0  0  0  0  0  0  0
   -3.1055   -2.0378   -1.7335 O   0  0  0  0  0  0  0  0  0  0  0  0
   -4.3190   -0.5961   -0.2886 C   0  0  0  0  0  0  0  0  0  0  0  0
   -5.0087    0.2388   -0.4382 H   0  0  0  0  0  0  0  0  0  0  0  0
   -4.8821   -1.4587    0.0755 H   0  0  0  0  0  0  0  0  0  0  0  0
   -3.5796   -0.3063    0.4624 H   0  0  0  0  0  0  0  0  0  0  0  0
   -3.4928   -0.0048   -2.5983 N   0  0  0  0  0  0  0  0  0  0  0  0
   -2.8083   -0.2641   -3.8796 C   0  0  2  0  0  0  0  0  0  0  0  0
   -1.2711   -0.1189   -3.7882 C   0  0  0  0  0  0  0  0  0  0  0  0
   -0.5790    0.1413   -4.7663 O   0  0  0  0  0  0  0  0  0  0  0  0
   -3.4115    0.6976   -4.9086 C   0  0  0  0  0  0  0  0  0  0  0  0
   -3.5643    0.9740   -2.2894 H   0  0  0  0  0  0  0  0  0  0  0  0
   -3.0151   -1.2881   -4.2050 H   0  0  0  0  0  0  0  0  0  0  0  0
   -3.1857    1.7347   -4.6377 H   0  0  0  0  0  0  0  0  0  0  0  0
   -2.9995    0.5012   -5.9031 H   0  0  0  0  0  0  0  0  0  0  0  0
   -4.4978    0.5757   -4.9537 H   0  0  0  0  0  0  0  0  0  0  0  0
   -0.6342   -0.3543   -2.5871 N   0  0  0  0  0  0  0  0  0  0  0  0
    0.2692    0.6830   -2.0602 C   0  0  2  0  0  0  0  0  0  0  0  0
    1.5908    0.0714   -1.5520 C   0  0  0  0  0  0  0  0  0  0  0  0
    2.5625    0.7712   -1.2849 O   0  0  0  0  0  0  0  0  0  0  0  0
   -0.4723    1.3446   -0.8779 C   0  0  0  0  0  0  0  0  0  0  0  0
   -1.6840    2.1727   -1.2976 C   0  0  0  0  0  0  0  0  0  0  0  0
   -1.6942    2.7154   -2.4244 O   0  5  0  0  0  0  0  0  0  0  0  0
   -2.7022    2.0542   -0.5746 O   0  0  0  0  0  0  0  0  0  0  0  0
   -1.2997   -0.7123   -1.9036 H   0  0  0  0  0  0  0  0  0  0  0  0
    0.5154    1.4327   -2.8225 H   0  0  0  0  0  0  0  0  0  0  0  0
    0.2155    2.0205   -0.3627 H   0  0  0  0  0  0  0  0  0  0  0  0
   -0.7836    0.5788   -0.1611 H   0  0  0  0  0  0  0  0  0  0  0  0
    1.6895   -1.2919   -1.3377 N   0  0  0  0  0  0  0  0  0  0  0  0
    2.8798   -1.9796   -0.8149 C   0  0  2  0  0  0  0  0  0  0  0  0
    3.9986   -2.1490   -1.8744 C   0  0  0  0  0  0  0  0  0  0  0  0
    4.4993   -3.2426   -2.1193 O   0  0  0  0  0  0  0  0  0  0  0  0
    2.4052   -3.3151   -0.2286 C   0  0  0  0  0  0  0  0  0  0  0  0
    0.9157   -1.8473   -1.6942 H   0  0  0  0  0  0  0  0  0  0  0  0
    3.3032   -1.3874    0.0029 H   0  0  0  0  0  0  0  0  0  0  0  0
    1.9859   -3.9514   -1.0145 H   0  0  0  0  0  0  0  0  0  0  0  0
    3.2420   -3.8447    0.2377 H   0  0  0  0  0  0  0  0  0  0  0  0
    1.6373   -3.1457    0.5325 H   0  0  0  0  0  0  0  0  0  0  0  0
    4.4674   -1.0350   -2.5422 N   0  0  0  0  0  0  0  0  0  0  0  0
    5.4446   -1.0743   -3.6193 C   0  0  0  0  0  0  0  0  0  0  0  0
    3.9981   -0.1519   -2.3206 H   0  0  0  0  0  0  0  0  0  0  0  0
    6.3755   -1.5367   -3.2759 H   0  0  0  0  0  0  0  0  0  0  0  0
    5.0550   -1.6472   -4.4670 H   0  0  0  0  0  0  0  0  0  0  0  0
    5.6682   -0.0588   -3.9598 H   0  0  0  0  0  0  0  0  0  0  0  0
  1  2  2  0  0  0  0
  1  3  1  0  0  0  0
  1  7  1  0  0  0  0
  3  4  1  0  0  0  0
  3  5  1  0  0  0  0
  3  6  1  0  0  0  0
  7  8  1  0  0  0  0
  7 12  1  0  0  0  0
  8  9  1  0  0  0  0
  8 11  1  0  0  0  0
  8 13  1  0  0  0  0
  9 10  2  0  0  0  0
  9 17  1  0  0  0  0
 11 14  1  0  0  0  0
 11 15  1  0  0  0  0
 11 16  1  0  0  0  0
 17 18  1  0  0  0  0
 17 25  1  0  0  0  0
 18 19  1  0  0  0  0
 18 21  1  0  0  0  0
 18 26  1  0  0  0  0
 19 20  2  0  0  0  0
 19 29  1  0  0  0  0
 21 22  1  0  0  0  0
 21 27  1  0  0  0  0
 21 28  1  0  0  0  0
 22 23  1  0  0  0  0
 22 24  2  0  0  0  0
 29 30  1  0  0  0  0
 29 34  1  0  0  0  0
 30 31  1  0  0  0  0
 30 33  1  0  0  0  0
 30 35  1  0  0  0  0
 31 32  2  0  0  0  0
 31 39  1  0  0  0  0
 33 36  1  0  0  0  0
 33 37  1  0  0  0  0
 33 38  1  0  0  0  0
 39 40  1  0  0  0  0
 39 41  1  0  0  0  0
 40 42  1  0  0  0  0
 40 43  1  0  0  0  0
 40 44  1  0  0  0  0
M  CHG  1  23  -1
M  END
$$$$

  -OEChem-05262215553D

 44 43  0     1  0  0  0  0  0999 V2000
   -3.6579   -0.9896   -1.5765 C   0  0  0  0  0  0  0  0  0  0  0  0
   -3.1558   -2.0898   -1.7621 O   0  0  0  0  0  0  0  0  0  0  0  0
   -4.2906   -0.6681   -0.2356 C   0  0  0  0  0  0  0  0  0  0  0  0
   -5.0450    0.1139   -0.3544 H   0  0  0  0  0  0  0  0  0  0  0  0
   -4.7678   -1.5583    0.1813 H   0  0  0  0  0  0  0  0  0  0  0  0
   -3.5257   -0.3120    0.4593 H   0  0  0  0  0  0  0  0  0  0  0  0
   -3.5567   -0.0325   -2.5627 N   0  0  0  0  0  0  0  0  0  0  0  0
   -2.8938   -0.2518   -3.8625 C   0  0  2  0  0  0  0  0  0  0  0  0
   -1.3607   -0.0563   -3.8008 C   0  0  0  0  0  0  0  0  0  0  0  0
   -0.6933    0.2053   -4.7956 O   0  0  0  0  0  0  0  0  0  0  0  0
   -3.5471    0.7059   -4.8644 C   0  0  0  0  0  0  0  0  0  0  0  0
   -3.6408    0.9386   -2.2317 H   0  0  0  0  0  0  0  0  0  0  0  0
   -3.0748   -1.2770   -4.2002 H   0  0  0  0  0  0  0  0  0  0  0  0
   -3.3487    1.7455   -4.5830 H   0  0  0  0  0  0  0  0  0  0  0  0
   -3.1493    0.5379   -5.8698 H   0  0  0  0  0  0  0  0  0  0  0  0
   -4.6296    0.5510   -4.8899 H   0  0  0  0  0  0  0  0  0  0  0  0
   -0.6905   -0.2520   -2.6105 N   0  0  0  0  0  0  0  0  0  0  0  0
    0.1861    0.8248   -2.1157 C   0  0  2  0  0  0  0  0  0  0  0  0
    1.5406    0.2677   -1.6276 C   0  0  0  0  0  0  0  0  0  0  0  0
    2.4150    0.9959   -1.1682 O   0  0  0  0  0  0  0  0  0  0  0  0
   -0.5680    1.4718   -0.9322 C   0  0  0  0  0  0  0  0  0  0  0  0
   -1.8154    2.2458   -1.3490 C   0  0  0  0  0  0  0  0  0  0  0  0
   -1.8553    2.7721   -2.4828 O   0  5  0  0  0  0  0  0  0  0  0  0
   -2.8262    2.0806   -0.6244 O   0  0  0  0  0  0  0  0  0  0  0  0
   -1.3259   -0.6229   -1.9061 H   0  0  0  0  0  0  0  0  0  0  0  0
    0.3896    1.5722   -2.8925 H   0  0  0  0  0  0  0  0  0  0  0  0
    0.0961    2.1823   -0.4332 H   0  0  0  0  0  0  0  0  0  0  0  0
   -0.8396    0.7039   -0.2017 H   0  0  0  0  0  0  0  0  0  0  0  0
    1.7929   -1.0905   -1.6936 N   0  0  0  0  0  0  0  0  0  0  0  0
    3.0213   -1.7487   -1.2249 C   0  0  2  0  0  0  0  0  0  0  0  0
    4.2085   -1.5883   -2.2080 C   0  0  0  0  0  0  0  0  0  0  0  0
    4.8616   -2.5510   -2.5992 O   0  0  0  0  0  0  0  0  0  0  0  0
    2.6644   -3.2152   -0.9536 C   0  0  0  0  0  0  0  0  0  0  0  0
    1.0958   -1.6394   -2.1920 H   0  0  0  0  0  0  0  0  0  0  0  0
    3.3300   -1.2971   -0.2762 H   0  0  0  0  0  0  0  0  0  0  0  0
    2.3702   -3.7160   -1.8816 H   0  0  0  0  0  0  0  0  0  0  0  0
    3.5248   -3.7434   -0.5307 H   0  0  0  0  0  0  0  0  0  0  0  0
    1.8355   -3.2804   -0.2420 H   0  0  0  0  0  0  0  0  0  0  0  0
    4.5602   -0.3237   -2.6358 N   0  0  0  0  0  0  0  0  0  0  0  0
    5.5984   -0.0467   -3.6158 C   0  0  0  0  0  0  0  0  0  0  0  0
    3.9810    0.4441   -2.2840 H   0  0  0  0  0  0  0  0  0  0  0  0
    6.5702   -0.3962   -3.2527 H   0  0  0  0  0  0  0  0  0  0  0  0
    5.3718   -0.5465   -4.5632 H   0  0  0  0  0  0  0  0  0  0  0  0
    5.6628    1.0302   -3.7987 H   0  0  0  0  0  0  0  0  0  0  0  0
  1  2  2  0  0  0  0
  1  3  1  0  0  0  0
  1  7  1  0  0  0  0
  3  4  1  0  0  0  0
  3  5  1  0  0  0  0
  3  6  1  0  0  0  0
  7  8  1  0  0  0  0
  7 12  1  0  0  0  0
  8  9  1  0  0  0  0
  8 11  1  0  0  0  0
  8 13  1  0  0  0  0
  9 10  2  0  0  0  0
  9 17  1  0  0  0  0
 11 14  1  0  0  0  0
 11 15  1  0  0  0  0
 11 16  1  0  0  0  0
 17 18  1  0  0  0  0
 17 25  1  0  0  0  0
 18 19  1  0  0  0  0
 18 21  1  0  0  0  0
 18 26  1  0  0  0  0
 19 20  2  0  0  0  0
 19 29  1  0  0  0  0
 21 22  1  0  0  0  0
 21 27  1  0  0  0  0
 21 28  1  0  0  0  0
 22 23  1  0  0  0  0
 22 24  2  0  0  0  0
 29 30  1  0  0  0  0
 29 34  1  0  0  0  0
 30 31  1  0  0  0  0
 30 33  1  0  0  0  0
 30 35  1  0  0  0  0
 31 32  2  0  0  0  0
 31 39  1  0  0  0  0
 33 36  1  0  0  0  0
 33 37  1  0  0  0  0
 33 38  1  0  0  0  0
 39 40  1  0  0  0  0
 39 41  1  0  0  0  0
 40 42  1  0  0  0  0
 40 43  1  0  0  0  0
 40 44  1  0  0  0  0
M  CHG  1  23  -1
M  END
$$$$

  -OEChem-05262215553D

 44 43  0     1  0  0  0  0  0999 V2000
   -3.6060   -1.0675   -1.4975 C   0  0  0  0  0  0  0  0  0  0  0  0
   -3.0289   -2.1412   -1.6033 O   0  0  0  0  0  0  0  0  0  0  0  0
   -4.2295   -0.6777   -0.1709 C   0  0  0  0  0  0  0  0  0  0  0  0
   -5.0208    0.0595   -0.3299 H   0  0  0  0  0  0  0  0  0  0  0  0
   -4.6573   -1.5564    0.3178 H   0  0  0  0  0  0  0  0  0  0  0  0
   -3.4696   -0.2380    0.4803 H   0  0  0  0  0  0  0  0  0  0  0  0
   -3.5911   -0.1913   -2.5610 N   0  0  0  0  0  0  0  0  0  0  0  0
   -2.9200   -0.4676   -3.8454 C   0  0  2  0  0  0  0  0  0  0  0  0
   -1.4064   -0.1513   -3.8159 C   0  0  0  0  0  0  0  0  0  0  0  0
   -0.7600    0.0621   -4.8359 O   0  0  0  0  0  0  0  0  0  0  0  0
   -3.6484    0.3480   -4.9184 C   0  0  0  0  0  0  0  0  0  0  0  0
   -3.7435    0.7952   -2.3084 H   0  0  0  0  0  0  0  0  0  0  0  0
   -3.0233   -1.5284   -4.0940 H   0  0  0  0  0  0  0  0  0  0  0  0
   -3.5355    1.4198   -4.7241 H   0  0  0  0  0  0  0  0  0  0  0  0
   -3.2370    0.1307   -5.9089 H   0  0  0  0  0  0  0  0  0  0  0  0
   -4.7146    0.1038   -4.9252 H   0  0  0  0  0  0  0  0  0  0  0  0
   -0.7137   -0.1952   -2.6238 N   0  0  0  0  0  0  0  0  0  0  0  0
    0.0784    0.9829   -2.2285 C   0  0  2  0  0  0  0  0  0  0  0  0
    1.4738    0.5589   -1.7185 C   0  0  0  0  0  0  0  0  0  0  0  0
    2.2115    1.3223   -1.1025 O   0  0  0  0  0  0  0  0  0  0  0  0
   -0.7265    1.6746   -1.1031 C   0  0  0  0  0  0  0  0  0  0  0  0
   -2.0268    2.3145   -1.5816 C   0  0  0  0  0  0  0  0  0  0  0  0
   -2.1003    2.7348   -2.7574 O   0  5  0  0  0  0  0  0  0  0  0  0
   -3.0261    2.1391   -0.8431 O   0  0  0  0  0  0  0  0  0  0  0  0
   -1.3059   -0.5621   -1.8808 H   0  0  0  0  0  0  0  0  0  0  0  0
    0.2248    1.6731   -3.0683 H   0  0  0  0  0  0  0  0  0  0  0  0
   -0.1208    2.4752   -0.6704 H   0  0  0  0  0  0  0  0  0  0  0  0
   -0.9422    0.9560   -0.3068 H   0  0  0  0  0  0  0  0  0  0  0  0
    1.9318   -0.7210   -1.9712 N   0  0  0  0  0  0  0  0  0  0  0  0
    3.1919   -1.2889   -1.4690 C   0  0  2  0  0  0  0  0  0  0  0  0
    4.4325   -0.8337   -2.2791 C   0  0  0  0  0  0  0  0  0  0  0  0
    5.2615   -1.6348   -2.7007 O   0  0  0  0  0  0  0  0  0  0  0  0
    3.0175   -2.8125   -1.4478 C   0  0  0  0  0  0  0  0  0  0  0  0
    1.3258   -1.2928   -2.5567 H   0  0  0  0  0  0  0  0  0  0  0  0
    3.3459   -0.9554   -0.4376 H   0  0  0  0  0  0  0  0  0  0  0  0
    2.8911   -3.1984   -2.4644 H   0  0  0  0  0  0  0  0  0  0  0  0
    3.8954   -3.2895   -1.0012 H   0  0  0  0  0  0  0  0  0  0  0  0
    2.1385   -3.0871   -0.8564 H   0  0  0  0  0  0  0  0  0  0  0  0
    4.6339    0.5143   -2.5009 N   0  0  0  0  0  0  0  0  0  0  0  0
    5.7331    1.0662   -3.2773 C   0  0  0  0  0  0  0  0  0  0  0  0
    3.9221    1.1420   -2.1158 H   0  0  0  0  0  0  0  0  0  0  0  0
    6.6932    0.8094   -2.8187 H   0  0  0  0  0  0  0  0  0  0  0  0
    5.7119    0.6755   -4.2996 H   0  0  0  0  0  0  0  0  0  0  0  0
    5.6506    2.1563   -3.3219 H   0  0  0  0  0  0  0  0  0  0  0  0
  1  2  2  0  0  0  0
  1  3  1  0  0  0  0
  1  7  1  0  0  0  0
  3  4  1  0  0  0  0
  3  5  1  0  0  0  0
  3  6  1  0  0  0  0
  7  8  1  0  0  0  0
  7 12  1  0  0  0  0
  8  9  1  0  0  0  0
  8 11  1  0  0  0  0
  8 13  1  0  0  0  0
  9 10  2  0  0  0  0
  9 17  1  0  0  0  0
 11 14  1  0  0  0  0
 11 15  1  0  0  0  0
 11 16  1  0  0  0  0
 17 18  1  0  0  0  0
 17 25  1  0  0  0  0
 18 19  1  0  0  0  0
 18 21  1  0  0  0  0
 18 26  1  0  0  0  0
 19 20  2  0  0  0  0
 19 29  1  0  0  0  0
 21 22  1  0  0  0  0
 21 27  1  0  0  0  0
 21 28  1  0  0  0  0
 22 23  1  0  0  0  0
 22 24  2  0  0  0  0
 29 30  1  0  0  0  0
 29 34  1  0  0  0  0
 30 31  1  0  0  0  0
 30 33  1  0  0  0  0
 30 35  1  0  0  0  0
 31 32  2  0  0  0  0
 31 39  1  0  0  0  0
 33 36  1  0  0  0  0
 33 37  1  0  0  0  0
 33 38  1  0  0  0  0
 39 40  1  0  0  0  0
 39 41  1  0  0  0  0
 40 42  1  0  0  0  0
 40 43  1  0  0  0  0
 40 44  1  0  0  0  0
M  CHG  1  23  -1
M  END
$$$$

  -OEChem-05262215553D

 44 43  0     1  0  0  0  0  0999 V2000
   -3.5540   -1.0636   -1.4167 C   0  0  0  0  0  0  0  0  0  0  0  0
   -2.9360   -2.1192   -1.4082 O   0  0  0  0  0  0  0  0  0  0  0  0
   -4.2231   -0.5736   -0.1469 C   0  0  0  0  0  0  0  0  0  0  0  0
   -4.5297   -1.4214    0.4706 H   0  0  0  0  0  0  0  0  0  0  0  0
   -3.5288    0.0511    0.4207 H   0  0  0  0  0  0  0  0  0  0  0  0
   -5.1056    0.0219   -0.3940 H   0  0  0  0  0  0  0  0  0  0  0  0
   -3.5517   -0.2936   -2.5591 N   0  0  0  0  0  0  0  0  0  0  0  0
   -2.8354   -0.6588   -3.7962 C   0  0  2  0  0  0  0  0  0  0  0  0
   -1.3435   -0.2529   -3.7700 C   0  0  0  0  0  0  0  0  0  0  0  0
   -0.6774   -0.1247   -4.7917 O   0  0  0  0  0  0  0  0  0  0  0  0
   -3.5817    0.0012   -4.9603 C   0  0  0  0  0  0  0  0  0  0  0  0
   -3.7599    0.7038   -2.4078 H   0  0  0  0  0  0  0  0  0  0  0  0
   -2.8712   -1.7436   -3.9379 H   0  0  0  0  0  0  0  0  0  0  0  0
   -3.5366    1.0918   -4.8735 H   0  0  0  0  0  0  0  0  0  0  0  0
   -3.1334   -0.2884   -5.9156 H   0  0  0  0  0  0  0  0  0  0  0  0
   -4.6315   -0.3059   -4.9633 H   0  0  0  0  0  0  0  0  0  0  0  0
   -0.6788   -0.1279   -2.5684 N   0  0  0  0  0  0  0  0  0  0  0  0
    0.0347    1.1296   -2.2855 C   0  0  2  0  0  0  0  0  0  0  0  0
    1.4349    0.8236   -1.7091 C   0  0  0  0  0  0  0  0  0  0  0  0
    2.0270    1.5796   -0.9443 O   0  0  0  0  0  0  0  0  0  0  0  0
   -0.8433    1.8974   -1.2683 C   0  0  0  0  0  0  0  0  0  0  0  0
   -2.1572    2.4063   -1.8545 C   0  0  0  0  0  0  0  0  0  0  0  0
   -2.2076    2.6867   -3.0725 O   0  5  0  0  0  0  0  0  0  0  0  0
   -3.1739    2.2512   -1.1352 O   0  0  0  0  0  0  0  0  0  0  0  0
   -1.2630   -0.4521   -1.8001 H   0  0  0  0  0  0  0  0  0  0  0  0
    0.1714    1.7307   -3.1928 H   0  0  0  0  0  0  0  0  0  0  0  0
   -0.2958    2.7746   -0.9139 H   0  0  0  0  0  0  0  0  0  0  0  0
   -1.0473    1.2629   -0.4009 H   0  0  0  0  0  0  0  0  0  0  0  0
    2.0724   -0.3409   -2.0939 N   0  0  0  0  0  0  0  0  0  0  0  0
    3.3535   -0.8273   -1.5606 C   0  0  2  0  0  0  0  0  0  0  0  0
    4.5810   -0.1205   -2.1898 C   0  0  0  0  0  0  0  0  0  0  0  0
    5.5214   -0.7512   -2.6636 O   0  0  0  0  0  0  0  0  0  0  0  0
    3.3709   -2.3475   -1.7627 C   0  0  0  0  0  0  0  0  0  0  0  0
    1.5685   -0.9080   -2.7743 H   0  0  0  0  0  0  0  0  0  0  0  0
    3.3895   -0.6310   -0.4840 H   0  0  0  0  0  0  0  0  0  0  0  0
    3.3528   -2.5924   -2.8296 H   0  0  0  0  0  0  0  0  0  0  0  0
    4.2749   -2.7795   -1.3223 H   0  0  0  0  0  0  0  0  0  0  0  0
    2.5005   -2.8061   -1.2832 H   0  0  0  0  0  0  0  0  0  0  0  0
    4.6341    1.2593   -2.1916 N   0  0  0  0  0  0  0  0  0  0  0  0
    5.6830    2.0404   -2.8280 C   0  0  0  0  0  0  0  0  0  0  0  0
    3.8215    1.7370   -1.7910 H   0  0  0  0  0  0  0  0  0  0  0  0
    6.6595    1.7928   -2.3999 H   0  0  0  0  0  0  0  0  0  0  0  0
    5.7061    1.8413   -3.9042 H   0  0  0  0  0  0  0  0  0  0  0  0
    5.4990    3.1080   -2.6762 H   0  0  0  0  0  0  0  0  0  0  0  0
  1  2  2  0  0  0  0
  1  3  1  0  0  0  0
  1  7  1  0  0  0  0
  3  4  1  0  0  0  0
  3  5  1  0  0  0  0
  3  6  1  0  0  0  0
  7  8  1  0  0  0  0
  7 12  1  0  0  0  0
  8  9  1  0  0  0  0
  8 11  1  0  0  0  0
  8 13  1  0  0  0  0
  9 10  2  0  0  0  0
  9 17  1  0  0  0  0
 11 14  1  0  0  0  0
 11 15  1  0  0  0  0
 11 16  1  0  0  0  0
 17 18  1  0  0  0  0
 17 25  1  0  0  0  0
 18 19  1  0  0  0  0
 18 21  1  0  0  0  0
 18 26  1  0  0  0  0
 19 20  2  0  0  0  0
 19 29  1  0  0  0  0
 21 22  1  0  0  0  0
 21 27  1  0  0  0  0
 21 28  1  0  0  0  0
 22 23  1  0  0  0  0
 22 24  2  0  0  0  0
 29 30  1  0  0  0  0
 29 34  1  0  0  0  0
 30 31  1  0  0  0  0
 30 33  1  0  0  0  0
 30 35  1  0  0  0  0
 31 32  2  0  0  0  0
 31 39  1  0  0  0  0
 33 36  1  0  0  0  0
 33 37  1  0  0  0  0
 33 38  1  0  0  0  0
 39 40  1  0  0  0  0
 39 41  1  0  0  0  0
 40 42  1  0  0  0  0
 40 43  1  0  0  0  0
 40 44  1  0  0  0  0
M  CHG  1  23  -1
M  END
$$$$

  -OEChem-05262215553D

 44 43  0     1  0  0  0  0  0999 V2000
   -3.5741   -1.0131   -1.4868 C   0  0  0  0  0  0  0  0  0  0  0  0
   -2.9621   -2.0713   -1.4391 O   0  0  0  0  0  0  0  0  0  0  0  0
   -4.3208   -0.5196   -0.2617 C   0  0  0  0  0  0  0  0  0  0  0  0
   -4.7067   -1.3655    0.3124 H   0  0  0  0  0  0  0  0  0  0  0  0
   -3.6497    0.0673    0.3707 H   0  0  0  0  0  0  0  0  0  0  0  0
   -5.1587    0.1143   -0.5635 H   0  0  0  0  0  0  0  0  0  0  0  0
   -3.5076   -0.2494   -2.6317 N   0  0  0  0  0  0  0  0  0  0  0  0
   -2.7279   -0.6212   -3.8274 C   0  0  2  0  0  0  0  0  0  0  0  0
   -1.2433   -0.1988   -3.7346 C   0  0  0  0  0  0  0  0  0  0  0  0
   -0.5321   -0.0630   -4.7252 O   0  0  0  0  0  0  0  0  0  0  0  0
   -3.4228    0.0164   -5.0349 C   0  0  0  0  0  0  0  0  0  0  0  0
   -3.7279    0.7478   -2.4986 H   0  0  0  0  0  0  0  0  0  0  0  0
   -2.7469   -1.7077   -3.9574 H   0  0  0  0  0  0  0  0  0  0  0  0
   -3.3913    1.1084   -4.9608 H   0  0  0  0  0  0  0  0  0  0  0  0
   -2.9264   -0.2818   -5.9632 H   0  0  0  0  0  0  0  0  0  0  0  0
   -4.4683   -0.3008   -5.0837 H   0  0  0  0  0  0  0  0  0  0  0  0
   -0.6248   -0.0703   -2.5095 N   0  0  0  0  0  0  0  0  0  0  0  0
    0.0420    1.2040   -2.1959 C   0  0  2  0  0  0  0  0  0  0  0  0
    1.4280    0.9202   -1.5780 C   0  0  0  0  0  0  0  0  0  0  0  0
    1.8770    1.5238   -0.6075 O   0  0  0  0  0  0  0  0  0  0  0  0
   -0.8884    1.9628   -1.2184 C   0  0  0  0  0  0  0  0  0  0  0  0
   -2.1862    2.4469   -1.8584 C   0  0  0  0  0  0  0  0  0  0  0  0
   -2.1922    2.7196   -3.0794 O   0  5  0  0  0  0  0  0  0  0  0  0
   -3.2282    2.2932   -1.1767 O   0  0  0  0  0  0  0  0  0  0  0  0
   -1.2285   -0.4125   -1.7645 H   0  0  0  0  0  0  0  0  0  0  0  0
    0.2005    1.8084   -3.0973 H   0  0  0  0  0  0  0  0  0  0  0  0
   -0.3692    2.8505   -0.8471 H   0  0  0  0  0  0  0  0  0  0  0  0
   -1.1172    1.3281   -0.3572 H   0  0  0  0  0  0  0  0  0  0  0  0
    2.2251   -0.0375   -2.1767 N   0  0  0  0  0  0  0  0  0  0  0  0
    3.5313   -0.4903   -1.6742 C   0  0  2  0  0  0  0  0  0  0  0  0
    4.6866    0.4912   -2.0000 C   0  0  0  0  0  0  0  0  0  0  0  0
    5.7403    0.1104   -2.5017 O   0  0  0  0  0  0  0  0  0  0  0  0
    3.7679   -1.8950   -2.2426 C   0  0  0  0  0  0  0  0  0  0  0  0
    1.8185   -0.4975   -2.9909 H   0  0  0  0  0  0  0  0  0  0  0  0
    3.4828   -0.5744   -0.5836 H   0  0  0  0  0  0  0  0  0  0  0  0
    3.8474   -1.8591   -3.3339 H   0  0  0  0  0  0  0  0  0  0  0  0
    4.6944   -2.3168   -1.8408 H   0  0  0  0  0  0  0  0  0  0  0  0
    2.9416   -2.5598   -1.9729 H   0  0  0  0  0  0  0  0  0  0  0  0
    4.5501    1.8254   -1.6711 N   0  0  0  0  0  0  0  0  0  0  0  0
    5.5595    2.8432   -1.9172 C   0  0  0  0  0  0  0  0  0  0  0  0
    3.6650    2.0877   -1.2271 H   0  0  0  0  0  0  0  0  0  0  0  0
    6.4854    2.6002   -1.3861 H   0  0  0  0  0  0  0  0  0  0  0  0
    5.7734    2.9177   -2.9882 H   0  0  0  0  0  0  0  0  0  0  0  0
    5.2034    3.8164   -1.5661 H   0  0  0  0  0  0  0  0  0  0  0  0
  1  2  2  0  0  0  0
  1  3  1  0  0  0  0
  1  7  1  0  0  0  0
  3  4  1  0  0  0  0
  3  5  1  0  0  0  0
  3  6  1  0  0  0  0
  7  8  1  0  0  0  0
  7 12  1  0  0  0  0
  8  9  1  0  0  0  0
  8 11  1  0  0  0  0
  8 13  1  0  0  0  0
  9 10  2  0  0  0  0
  9 17  1  0  0  0  0
 11 14  1  0  0  0  0
 11 15  1  0  0  0  0
 11 16  1  0  0  0  0
 17 18  1  0  0  0  0
 17 25  1  0  0  0  0
 18 19  1  0  0  0  0
 18 21  1  0  0  0  0
 18 26  1  0  0  0  0
 19 20  2  0  0  0  0
 19 29  1  0  0  0  0
 21 22  1  0  0  0  0
 21 27  1  0  0  0  0
 21 28  1  0  0  0  0
 22 23  1  0  0  0  0
 22 24  2  0  0  0  0
 29 30  1  0  0  0  0
 29 34  1  0  0  0  0
 30 31  1  0  0  0  0
 30 33  1  0  0  0  0
 30 35  1  0  0  0  0
 31 32  2  0  0  0  0
 31 39  1  0  0  0  0
 33 36  1  0  0  0  0
 33 37  1  0  0  0  0
 33 38  1  0  0  0  0
 39 40  1  0  0  0  0
 39 41  1  0  0  0  0
 40 42  1  0  0  0  0
 40 43  1  0  0  0  0
 40 44  1  0  0  0  0
M  CHG  1  23  -1
M  END
$$$$

  -OEChem-05262215553D

 44 43  0     1  0  0  0  0  0999 V2000
   -3.4625   -0.9652   -1.2880 C   0  0  0  0  0  0  0  0  0  0  0  0
   -2.8178   -1.9891   -1.1080 O   0  0  0  0  0  0  0  0  0  0  0  0
   -4.2343   -0.3492   -0.1366 C   0  0  0  0  0  0  0  0  0  0  0  0
   -5.0863    0.2196   -0.5177 H   0  0  0  0  0  0  0  0  0  0  0  0
   -4.6017   -1.1300    0.5335 H   0  0  0  0  0  0  0  0  0  0  0  0
   -3.5859    0.3291    0.4236 H   0  0  0  0  0  0  0  0  0  0  0  0
   -3.4108   -0.3445   -2.5169 N   0  0  0  0  0  0  0  0  0  0  0  0
   -2.5982   -0.8242   -3.6501 C   0  0  2  0  0  0  0  0  0  0  0  0
   -1.1397   -0.3131   -3.6002 C   0  0  0  0  0  0  0  0  0  0  0  0
   -0.4250   -0.2464   -4.5963 O   0  0  0  0  0  0  0  0  0  0  0  0
   -3.3100   -0.3832   -4.9330 C   0  0  0  0  0  0  0  0  0  0  0  0
   -3.6750    0.6509   -2.5093 H   0  0  0  0  0  0  0  0  0  0  0  0
   -2.5575   -1.9178   -3.6403 H   0  0  0  0  0  0  0  0  0  0  0  0
   -3.3351    0.7097   -4.9985 H   0  0  0  0  0  0  0  0  0  0  0  0
   -2.7876   -0.7709   -5.8130 H   0  0  0  0  0  0  0  0  0  0  0  0
   -4.3373   -0.7585   -4.9470 H   0  0  0  0  0  0  0  0  0  0  0  0
   -0.5472   -0.0052   -2.3945 N   0  0  0  0  0  0  0  0  0  0  0  0
    0.0494    1.3287   -2.2314 C   0  0  2  0  0  0  0  0  0  0  0  0
    1.4340    1.1769   -1.5713 C   0  0  0  0  0  0  0  0  0  0  0  0
    1.7443    1.6932   -0.5011 O   0  0  0  0  0  0  0  0  0  0  0  0
   -0.9299    2.1566   -1.3654 C   0  0  0  0  0  0  0  0  0  0  0  0
   -2.2373    2.4946   -2.0757 C   0  0  0  0  0  0  0  0  0  0  0  0
   -2.2326    2.6132   -3.3212 O   0  5  0  0  0  0  0  0  0  0  0  0
   -3.2837    2.3781   -1.3935 O   0  0  0  0  0  0  0  0  0  0  0  0
   -1.1359   -0.2916   -1.6149 H   0  0  0  0  0  0  0  0  0  0  0  0
    0.1951    1.8290   -3.1966 H   0  0  0  0  0  0  0  0  0  0  0  0
   -0.4554    3.1049   -1.1000 H   0  0  0  0  0  0  0  0  0  0  0  0
   -1.1448    1.6213   -0.4356 H   0  0  0  0  0  0  0  0  0  0  0  0
    2.3792    0.4225   -2.2396 N   0  0  0  0  0  0  0  0  0  0  0  0
    3.6683   -0.0021   -1.6733 C   0  0  2  0  0  0  0  0  0  0  0  0
    4.7547    1.1040   -1.7114 C   0  0  0  0  0  0  0  0  0  0  0  0
    5.8898    0.8831   -2.1233 O   0  0  0  0  0  0  0  0  0  0  0  0
    4.0850   -1.2717   -2.4265 C   0  0  0  0  0  0  0  0  0  0  0  0
    2.0469   -0.0269   -3.0927 H   0  0  0  0  0  0  0  0  0  0  0  0
    3.5236   -0.2684   -0.6210 H   0  0  0  0  0  0  0  0  0  0  0  0
    4.2655   -1.0487   -3.4829 H   0  0  0  0  0  0  0  0  0  0  0  0
    5.0024   -1.6860   -1.9967 H   0  0  0  0  0  0  0  0  0  0  0  0
    3.2998   -2.0309   -2.3579 H   0  0  0  0  0  0  0  0  0  0  0  0
    4.4601    2.3589   -1.2157 N   0  0  0  0  0  0  0  0  0  0  0  0
    5.4049    3.4629   -1.1474 C   0  0  0  0  0  0  0  0  0  0  0  0
    3.5154    2.4781   -0.8378 H   0  0  0  0  0  0  0  0  0  0  0  0
    6.2443    3.2073   -0.4931 H   0  0  0  0  0  0  0  0  0  0  0  0
    5.7904    3.6989   -2.1444 H   0  0  0  0  0  0  0  0  0  0  0  0
    4.9117    4.3539   -0.7475 H   0  0  0  0  0  0  0  0  0  0  0  0
  1  2  2  0  0  0  0
  1  3  1  0  0  0  0
  1  7  1  0  0  0  0
  3  4  1  0  0  0  0
  3  5  1  0  0  0  0
  3  6  1  0  0  0  0
  7  8  1  0  0  0  0
  7 12  1  0  0  0  0
  8  9  1  0  0  0  0
  8 11  1  0  0  0  0
  8 13  1  0  0  0  0
  9 10  2  0  0  0  0
  9 17  1  0  0  0  0
 11 14  1  0  0  0  0
 11 15  1  0  0  0  0
 11 16  1  0  0  0  0
 17 18  1  0  0  0  0
 17 25  1  0  0  0  0
 18 19  1  0  0  0  0
 18 21  1  0  0  0  0
 18 26  1  0  0  0  0
 19 20  2  0  0  0  0
 19 29  1  0  0  0  0
 21 22  1  0  0  0  0
 21 27  1  0  0  0  0
 21 28  1  0  0  0  0
 22 23  1  0  0  0  0
 22 24  2  0  0  0  0
 29 30  1  0  0  0  0
 29 34  1  0  0  0  0
 30 31  1  0  0  0  0
 30 33  1  0  0  0  0
 30 35  1  0  0  0  0
 31 32  2  0  0  0  0
 31 39  1  0  0  0  0
 33 36  1  0  0  0  0
 33 37  1  0  0  0  0
 33 38  1  0  0  0  0
 39 40  1  0  0  0  0
 39 41  1  0  0  0  0
 40 42  1  0  0  0  0
 40 43  1  0  0  0  0
 40 44  1  0  0  0  0
M  CHG  1  23  -1
M  END
$$$$

  -OEChem-05262215553D

 44 43  0     1  0  0  0  0  0999 V2000
   -3.4744   -0.9556   -1.3494 C   0  0  0  0  0  0  0  0  0  0  0  0
   -2.8970   -2.0261   -1.2203 O   0  0  0  0  0  0  0  0  0  0  0  0
   -4.2588   -0.3782   -0.1867 C   0  0  0  0  0  0  0  0  0  0  0  0
   -5.1044    0.2058   -0.5589 H   0  0  0  0  0  0  0  0  0  0  0  0
   -4.6366   -1.1807    0.4515 H   0  0  0  0  0  0  0  0  0  0  0  0
   -3.6153    0.2776    0.4052 H   0  0  0  0  0  0  0  0  0  0  0  0
   -3.3398   -0.2533   -2.5269 N   0  0  0  0  0  0  0  0  0  0  0  0
   -2.4987   -0.6874   -3.6577 C   0  0  2  0  0  0  0  0  0  0  0  0
   -1.0344   -0.2070   -3.5309 C   0  0  0  0  0  0  0  0  0  0  0  0
   -0.2906   -0.0884   -4.5011 O   0  0  0  0  0  0  0  0  0  0  0  0
   -3.1595   -0.1643   -4.9373 C   0  0  0  0  0  0  0  0  0  0  0  0
   -3.5758    0.7475   -2.4662 H   0  0  0  0  0  0  0  0  0  0  0  0
   -2.4774   -1.7804   -3.7076 H   0  0  0  0  0  0  0  0  0  0  0  0
   -3.1593    0.9307   -4.9466 H   0  0  0  0  0  0  0  0  0  0  0  0
   -2.6174   -0.5181   -5.8195 H   0  0  0  0  0  0  0  0  0  0  0  0
   -4.1937   -0.5144   -5.0025 H   0  0  0  0  0  0  0  0  0  0  0  0
   -0.4817    0.0372   -2.2914 N   0  0  0  0  0  0  0  0  0  0  0  0
    0.1352    1.3491   -2.0541 C   0  0  2  0  0  0  0  0  0  0  0  0
    1.4917    1.1496   -1.3511 C   0  0  0  0  0  0  0  0  0  0  0  0
    1.6980    1.4205   -0.1709 O   0  0  0  0  0  0  0  0  0  0  0  0
   -0.8592    2.1540   -1.1832 C   0  0  0  0  0  0  0  0  0  0  0  0
   -2.1379    2.5464   -1.9171 C   0  0  0  0  0  0  0  0  0  0  0  0
   -2.0913    2.7213   -3.1549 O   0  5  0  0  0  0  0  0  0  0  0  0
   -3.2072    2.4104   -1.2753 O   0  0  0  0  0  0  0  0  0  0  0  0
   -1.1040   -0.2660   -1.5455 H   0  0  0  0  0  0  0  0  0  0  0  0
    0.3186    1.8909   -2.9900 H   0  0  0  0  0  0  0  0  0  0  0  0
   -0.3766    3.0795   -0.8583 H   0  0  0  0  0  0  0  0  0  0  0  0
   -1.1146    1.5808   -0.2866 H   0  0  0  0  0  0  0  0  0  0  0  0
    2.5455    0.6892   -2.1174 N   0  0  0  0  0  0  0  0  0  0  0  0
    3.8565    0.2905   -1.5829 C   0  0  2  0  0  0  0  0  0  0  0  0
    4.7986    1.4930   -1.3196 C   0  0  0  0  0  0  0  0  0  0  0  0
    5.9505    1.5212   -1.7431 O   0  0  0  0  0  0  0  0  0  0  0  0
    4.4485   -0.7274   -2.5656 C   0  0  0  0  0  0  0  0  0  0  0  0
    2.3022    0.4145   -3.0686 H   0  0  0  0  0  0  0  0  0  0  0  0
    3.7118   -0.2162   -0.6230 H   0  0  0  0  0  0  0  0  0  0  0  0
    4.6301   -0.2607   -3.5391 H   0  0  0  0  0  0  0  0  0  0  0  0
    5.3976   -1.1165   -2.1838 H   0  0  0  0  0  0  0  0  0  0  0  0
    3.7616   -1.5683   -2.7028 H   0  0  0  0  0  0  0  0  0  0  0  0
    4.3451    2.5465   -0.5507 N   0  0  0  0  0  0  0  0  0  0  0  0
    5.1203    3.7391   -0.2460 C   0  0  0  0  0  0  0  0  0  0  0  0
    3.3824    2.4679   -0.2094 H   0  0  0  0  0  0  0  0  0  0  0  0
    6.0560    3.4706    0.2546 H   0  0  0  0  0  0  0  0  0  0  0  0
    5.3534    4.2882   -1.1640 H   0  0  0  0  0  0  0  0  0  0  0  0
    4.5499    4.3968    0.4167 H   0  0  0  0  0  0  0  0  0  0  0  0
  1  2  2  0  0  0  0
  1  3  1  0  0  0  0
  1  7  1  0  0  0  0
  3  4  1  0  0  0  0
  3  5  1  0  0  0  0
  3  6  1  0  0  0  0
  7  8  1  0  0  0  0
  7 12  1  0  0  0  0
  8  9  1  0  0  0  0
  8 11  1  0  0  0  0
  8 13  1  0  0  0  0
  9 10  2  0  0  0  0
  9 17  1  0  0  0  0
 11 14  1  0  0  0  0
 11 15  1  0  0  0  0
 11 16  1  0  0  0  0
 17 18  1  0  0  0  0
 17 25  1  0  0  0  0
 18 19  1  0  0  0  0
 18 21  1  0  0  0  0
 18 26  1  0  0  0  0
 19 20  2  0  0  0  0
 19 29  1  0  0  0  0
 21 22  1  0  0  0  0
 21 27  1  0  0  0  0
 21 28  1  0  0  0  0
 22 23  1  0  0  0  0
 22 24  2  0  0  0  0
 29 30  1  0  0  0  0
 29 34  1  0  0  0  0
 30 31  1  0  0  0  0
 30 33  1  0  0  0  0
 30 35  1  0  0  0  0
 31 32  2  0  0  0  0
 31 39  1  0  0  0  0
 33 36  1  0  0  0  0
 33 37  1  0  0  0  0
 33 38  1  0  0  0  0
 39 40  1  0  0  0  0
 39 41  1  0  0  0  0
 40 42  1  0  0  0  0
 40 43  1  0  0  0  0
 40 44  1  0  0  0  0
M  CHG  1  23  -1
M  END
$$$$

  -OEChem-05262215553D

 44 43  0     1  0  0  0  0  0999 V2000
   -3.4601   -0.9927   -1.3134 C   0  0  0  0  0  0  0  0  0  0  0  0
   -2.9669   -2.1103   -1.2536 O   0  0  0  0  0  0  0  0  0  0  0  0
   -4.2280   -0.4437   -0.1260 C   0  0  0  0  0  0  0  0  0  0  0  0
   -5.0476    0.1918   -0.4712 H   0  0  0  0  0  0  0  0  0  0  0  0
   -4.6414   -1.2614    0.4694 H   0  0  0  0  0  0  0  0  0  0  0  0
   -3.5623    0.1553    0.5006 H   0  0  0  0  0  0  0  0  0  0  0  0
   -3.2574   -0.2197   -2.4355 N   0  0  0  0  0  0  0  0  0  0  0  0
   -2.4263   -0.6218   -3.5853 C   0  0  2  0  0  0  0  0  0  0  0  0
   -0.9584   -0.1557   -3.4487 C   0  0  0  0  0  0  0  0  0  0  0  0
   -0.2284    0.0199   -4.4209 O   0  0  0  0  0  0  0  0  0  0  0  0
   -3.0919   -0.0493   -4.8410 C   0  0  0  0  0  0  0  0  0  0  0  0
   -3.4579    0.7841   -2.3191 H   0  0  0  0  0  0  0  0  0  0  0  0
   -2.4118   -1.7124   -3.6742 H   0  0  0  0  0  0  0  0  0  0  0  0
   -3.0869    1.0453   -4.8092 H   0  0  0  0  0  0  0  0  0  0  0  0
   -2.5566   -0.3725   -5.7388 H   0  0  0  0  0  0  0  0  0  0  0  0
   -4.1280   -0.3925   -4.9131 H   0  0  0  0  0  0  0  0  0  0  0  0
   -0.3989    0.0327   -2.2019 N   0  0  0  0  0  0  0  0  0  0  0  0
    0.2331    1.3263   -1.9132 C   0  0  2  0  0  0  0  0  0  0  0  0
    1.5921    1.1034   -1.2218 C   0  0  0  0  0  0  0  0  0  0  0  0
    1.7309    1.0733   -0.0016 O   0  0  0  0  0  0  0  0  0  0  0  0
   -0.7449    2.1033   -1.0002 C   0  0  0  0  0  0  0  0  0  0  0  0
   -2.0250    2.5408   -1.7047 C   0  0  0  0  0  0  0  0  0  0  0  0
   -1.9864    2.7687   -2.9342 O   0  5  0  0  0  0  0  0  0  0  0  0
   -3.0901    2.3860   -1.0605 O   0  0  0  0  0  0  0  0  0  0  0  0
   -1.0174   -0.2956   -1.4641 H   0  0  0  0  0  0  0  0  0  0  0  0
    0.4101    1.9054   -2.8274 H   0  0  0  0  0  0  0  0  0  0  0  0
   -0.2483    3.0073   -0.6382 H   0  0  0  0  0  0  0  0  0  0  0  0
   -1.0012    1.4944   -0.1279 H   0  0  0  0  0  0  0  0  0  0  0  0
    2.7169    0.9821   -2.0158 N   0  0  0  0  0  0  0  0  0  0  0  0
    4.0565    0.6333   -1.5175 C   0  0  2  0  0  0  0  0  0  0  0  0
    4.8118    1.8373   -0.8972 C   0  0  0  0  0  0  0  0  0  0  0  0
    5.9678    2.1079   -1.2091 O   0  0  0  0  0  0  0  0  0  0  0  0
    4.8155   -0.0044   -2.6879 C   0  0  0  0  0  0  0  0  0  0  0  0
    2.5404    0.9231   -3.0170 H   0  0  0  0  0  0  0  0  0  0  0  0
    3.9592   -0.1216   -0.7302 H   0  0  0  0  0  0  0  0  0  0  0  0
    4.9606    0.7230   -3.4931 H   0  0  0  0  0  0  0  0  0  0  0  0
    5.7975   -0.3570   -2.3573 H   0  0  0  0  0  0  0  0  0  0  0  0
    4.2582   -0.8590   -3.0837 H   0  0  0  0  0  0  0  0  0  0  0  0
    4.1846    2.6053    0.0639 N   0  0  0  0  0  0  0  0  0  0  0  0
    4.7893    3.7472    0.7319 C   0  0  0  0  0  0  0  0  0  0  0  0
    3.2369    2.3127    0.3205 H   0  0  0  0  0  0  0  0  0  0  0  0
    5.6628    3.4325    1.3115 H   0  0  0  0  0  0  0  0  0  0  0  0
    5.1010    4.4983   -0.0011 H   0  0  0  0  0  0  0  0  0  0  0  0
    4.0676    4.2076    1.4132 H   0  0  0  0  0  0  0  0  0  0  0  0
  1  2  2  0  0  0  0
  1  3  1  0  0  0  0
  1  7  1  0  0  0  0
  3  4  1  0  0  0  0
  3  5  1  0  0  0  0
  3  6  1  0  0  0  0
  7  8  1  0  0  0  0
  7 12  1  0  0  0  0
  8  9  1  0  0  0  0
  8 11  1  0  0  0  0
  8 13  1  0  0  0  0
  9 10  2  0  0  0  0
  9 17  1  0  0  0  0
 11 14  1  0  0  0  0
 11 15  1  0  0  0  0
 11 16  1  0  0  0  0
 17 18  1  0  0  0  0
 17 25  1  0  0  0  0
 18 19  1  0  0  0  0
 18 21  1  0  0  0  0
 18 26  1  0  0  0  0
 19 20  2  0  0  0  0
 19 29  1  0  0  0  0
 21 22  1  0  0  0  0
 21 27  1  0  0  0  0
 21 28  1  0  0  0  0
 22 23  1  0  0  0  0
 22 24  2  0  0  0  0
 29 30  1  0  0  0  0
 29 34  1  0  0  0  0
 30 31  1  0  0  0  0
 30 33  1  0  0  0  0
 30 35  1  0  0  0  0
 31 32  2  0  0  0  0
 31 39  1  0  0  0  0
 33 36  1  0  0  0  0
 33 37  1  0  0  0  0
 33 38  1  0  0  0  0
 39 40  1  0  0  0  0
 39 41  1  0  0  0  0
 40 42  1  0  0  0  0
 40 43  1  0  0  0  0
 40 44  1  0  0  0  0
M  CHG  1  23  -1
M  END
$$$$

  -OEChem-05262215553D

 44 43  0     1  0  0  0  0  0999 V2000
   -3.3761   -0.9539   -1.2020 C   0  0  0  0  0  0  0  0  0  0  0  0
   -2.8886   -2.0718   -1.1117 O   0  0  0  0  0  0  0  0  0  0  0  0
   -4.1317   -0.3654   -0.0257 C   0  0  0  0  0  0  0  0  0  0  0  0
   -3.4579    0.2508    0.5752 H   0  0  0  0  0  0  0  0  0  0  0  0
   -4.9527    0.2615   -0.3833 H   0  0  0  0  0  0  0  0  0  0  0  0
   -4.5416   -1.1624    0.5997 H   0  0  0  0  0  0  0  0  0  0  0  0
   -3.1746   -0.2160   -2.3479 N   0  0  0  0  0  0  0  0  0  0  0  0
   -2.3380   -0.6534   -3.4813 C   0  0  2  0  0  0  0  0  0  0  0  0
   -0.8660   -0.2004   -3.3411 C   0  0  0  0  0  0  0  0  0  0  0  0
   -0.1329   -0.0324   -4.3124 O   0  0  0  0  0  0  0  0  0  0  0  0
   -2.9864   -0.1017   -4.7550 C   0  0  0  0  0  0  0  0  0  0  0  0
   -3.3665    0.7920   -2.2586 H   0  0  0  0  0  0  0  0  0  0  0  0
   -2.3346   -1.7457   -3.5462 H   0  0  0  0  0  0  0  0  0  0  0  0
   -2.9691    0.9933   -4.7474 H   0  0  0  0  0  0  0  0  0  0  0  0
   -2.4476   -0.4509   -5.6410 H   0  0  0  0  0  0  0  0  0  0  0  0
   -4.0257   -0.4348   -4.8282 H   0  0  0  0  0  0  0  0  0  0  0  0
   -0.3231    0.0098   -2.0903 N   0  0  0  0  0  0  0  0  0  0  0  0
    0.3229    1.2987   -1.8147 C   0  0  2  0  0  0  0  0  0  0  0  0
    1.6677    1.0867   -1.0941 C   0  0  0  0  0  0  0  0  0  0  0  0
    1.7422    0.8121    0.1009 O   0  0  0  0  0  0  0  0  0  0  0  0
   -0.6541    2.1063   -0.9295 C   0  0  0  0  0  0  0  0  0  0  0  0
   -1.9172    2.5499   -1.6616 C   0  0  0  0  0  0  0  0  0  0  0  0
   -1.8562    2.7541   -2.8943 O   0  5  0  0  0  0  0  0  0  0  0  0
   -2.9941    2.4288   -1.0301 O   0  0  0  0  0  0  0  0  0  0  0  0
   -0.9453   -0.3079   -1.3511 H   0  0  0  0  0  0  0  0  0  0  0  0
    0.5164    1.8569   -2.7383 H   0  0  0  0  0  0  0  0  0  0  0  0
   -0.1481    3.0084   -0.5764 H   0  0  0  0  0  0  0  0  0  0  0  0
   -0.9318    1.5168   -0.0504 H   0  0  0  0  0  0  0  0  0  0  0  0
    2.8404    1.2518   -1.8073 N   0  0  0  0  0  0  0  0  0  0  0  0
    4.1782    0.9146   -1.2968 C   0  0  2  0  0  0  0  0  0  0  0  0
    4.7760    2.0046   -0.3700 C   0  0  0  0  0  0  0  0  0  0  0  0
    5.9153    2.4340   -0.5258 O   0  0  0  0  0  0  0  0  0  0  0  0
    5.0567    0.6280   -2.5209 C   0  0  0  0  0  0  0  0  0  0  0  0
    2.7281    1.3917   -2.8087 H   0  0  0  0  0  0  0  0  0  0  0  0
    4.1142   -0.0055   -0.7062 H   0  0  0  0  0  0  0  0  0  0  0  0
    5.1682    1.5292   -3.1325 H   0  0  0  0  0  0  0  0  0  0  0  0
    6.0512    0.2960   -2.2067 H   0  0  0  0  0  0  0  0  0  0  0  0
    4.6089   -0.1597   -3.1350 H   0  0  0  0  0  0  0  0  0  0  0  0
    4.0252    2.4755    0.6889 N   0  0  0  0  0  0  0  0  0  0  0  0
    4.4806    3.4712    1.6463 C   0  0  0  0  0  0  0  0  0  0  0  0
    3.0959    2.0577    0.7980 H   0  0  0  0  0  0  0  0  0  0  0  0
    5.3500    3.1012    2.1989 H   0  0  0  0  0  0  0  0  0  0  0  0
    4.7541    4.3987    1.1332 H   0  0  0  0  0  0  0  0  0  0  0  0
    3.6837    3.6944    2.3620 H   0  0  0  0  0  0  0  0  0  0  0  0
  1  2  2  0  0  0  0
  1  3  1  0  0  0  0
  1  7  1  0  0  0  0
  3  4  1  0  0  0  0
  3  5  1  0  0  0  0
  3  6  1  0  0  0  0
  7  8  1  0  0  0  0
  7 12  1  0  0  0  0
  8  9  1  0  0  0  0
  8 11  1  0  0  0  0
  8 13  1  0  0  0  0
  9 10  2  0  0  0  0
  9 17  1  0  0  0  0
 11 14  1  0  0  0  0
 11 15  1  0  0  0  0
 11 16  1  0  0  0  0
 17 18  1  0  0  0  0
 17 25  1  0  0  0  0
 18 19  1  0  0  0  0
 18 21  1  0  0  0  0
 18 26  1  0  0  0  0
 19 20  2  0  0  0  0
 19 29  1  0  0  0  0
 21 22  1  0  0  0  0
 21 27  1  0  0  0  0
 21 28  1  0  0  0  0
 22 23  1  0  0  0  0
 22 24  2  0  0  0  0
 29 30  1  0  0  0  0
 29 34  1  0  0  0  0
 30 31  1  0  0  0  0
 30 33  1  0  0  0  0
 30 35  1  0  0  0  0
 31 32  2  0  0  0  0
 31 39  1  0  0  0  0
 33 36  1  0  0  0  0
 33 37  1  0  0  0  0
 33 38  1  0  0  0  0
 39 40  1  0  0  0  0
 39 41  1  0  0  0  0
 40 42  1  0  0  0  0
 40 43  1  0  0  0  0
 40 44  1  0  0  0  0
M  CHG  1  23  -1
M  END
$$$$

  -OEChem-05262215553D

 44 43  0     1  0  0  0  0  0999 V2000
   -3.3812   -0.8998   -1.1997 C   0  0  0  0  0  0  0  0  0  0  0  0
   -2.9980   -2.0591   -1.1308 O   0  0  0  0  0  0  0  0  0  0  0  0
   -4.1121   -0.2779   -0.0247 C   0  0  0  0  0  0  0  0  0  0  0  0
   -4.8890    0.4018   -0.3844 H   0  0  0  0  0  0  0  0  0  0  0  0
   -4.5767   -1.0539    0.5885 H   0  0  0  0  0  0  0  0  0  0  0  0
   -3.4087    0.2900    0.5897 H   0  0  0  0  0  0  0  0  0  0  0  0
   -3.0852   -0.1492   -2.3165 N   0  0  0  0  0  0  0  0  0  0  0  0
   -2.2545   -0.6180   -3.4421 C   0  0  2  0  0  0  0  0  0  0  0  0
   -0.7650   -0.2339   -3.2772 C   0  0  0  0  0  0  0  0  0  0  0  0
   -0.0174   -0.0710   -4.2380 O   0  0  0  0  0  0  0  0  0  0  0  0
   -2.8602   -0.0255   -4.7189 C   0  0  0  0  0  0  0  0  0  0  0  0
   -3.2133    0.8671   -2.2090 H   0  0  0  0  0  0  0  0  0  0  0  0
   -2.3003   -1.7088   -3.5162 H   0  0  0  0  0  0  0  0  0  0  0  0
   -2.7960    1.0676   -4.6987 H   0  0  0  0  0  0  0  0  0  0  0  0
   -2.3239   -0.3880   -5.6011 H   0  0  0  0  0  0  0  0  0  0  0  0
   -3.9117   -0.3129   -4.8103 H   0  0  0  0  0  0  0  0  0  0  0  0
   -0.2390   -0.0579   -2.0138 N   0  0  0  0  0  0  0  0  0  0  0  0
    0.4633    1.1936   -1.7051 C   0  0  2  0  0  0  0  0  0  0  0  0
    1.7813    0.9261   -0.9543 C   0  0  0  0  0  0  0  0  0  0  0  0
    1.8015    0.3974    0.1544 O   0  0  0  0  0  0  0  0  0  0  0  0
   -0.4863    2.0334   -0.8225 C   0  0  0  0  0  0  0  0  0  0  0  0
   -1.7132    2.5499   -1.5672 C   0  0  0  0  0  0  0  0  0  0  0  0
   -1.6228    2.7706   -2.7952 O   0  5  0  0  0  0  0  0  0  0  0  0
   -2.8040    2.4717   -0.9537 O   0  0  0  0  0  0  0  0  0  0  0  0
   -0.8806   -0.3636   -1.2869 H   0  0  0  0  0  0  0  0  0  0  0  0
    0.6989    1.7514   -2.6192 H   0  0  0  0  0  0  0  0  0  0  0  0
    0.0566    2.9043   -0.4469 H   0  0  0  0  0  0  0  0  0  0  0  0
   -0.8060    1.4440    0.0423 H   0  0  0  0  0  0  0  0  0  0  0  0
    2.9792    1.3391   -1.5081 N   0  0  0  0  0  0  0  0  0  0  0  0
    4.3048    1.0535   -0.9371 C   0  0  2  0  0  0  0  0  0  0  0  0
    4.6776    1.9858    0.2450 C   0  0  0  0  0  0  0  0  0  0  0  0
    5.7433    2.5938    0.2796 O   0  0  0  0  0  0  0  0  0  0  0  0
    5.3103    1.1266   -2.0924 C   0  0  0  0  0  0  0  0  0  0  0  0
    2.9278    1.7333   -2.4438 H   0  0  0  0  0  0  0  0  0  0  0  0
    4.3138    0.0293   -0.5495 H   0  0  0  0  0  0  0  0  0  0  0  0
    5.3517    2.1411   -2.5016 H   0  0  0  0  0  0  0  0  0  0  0  0
    6.3104    0.8513   -1.7437 H   0  0  0  0  0  0  0  0  0  0  0  0
    5.0225    0.4371   -2.8919 H   0  0  0  0  0  0  0  0  0  0  0  0
    3.8048    2.1112    1.3076 N   0  0  0  0  0  0  0  0  0  0  0  0
    4.0287    2.9628    2.4652 C   0  0  0  0  0  0  0  0  0  0  0  0
    2.9358    1.5726    1.2375 H   0  0  0  0  0  0  0  0  0  0  0  0
    4.9300    2.6503    3.0018 H   0  0  0  0  0  0  0  0  0  0  0  0
    4.1432    4.0064    2.1552 H   0  0  0  0  0  0  0  0  0  0  0  0
    3.1772    2.8960    3.1488 H   0  0  0  0  0  0  0  0  0  0  0  0
  1  2  2  0  0  0  0
  1  3  1  0  0  0  0
  1  7  1  0  0  0  0
  3  4  1  0  0  0  0
  3  5  1  0  0  0  0
  3  6  1  0  0  0  0
  7  8  1  0  0  0  0
  7 12  1  0  0  0  0
  8  9  1  0  0  0  0
  8 11  1  0  0  0  0
  8 13  1  0  0  0  0
  9 10  2  0  0  0  0
  9 17  1  0  0  0  0
 11 14  1  0  0  0  0
 11 15  1  0  0  0  0
 11 16  1  0  0  0  0
 17 18  1  0  0  0  0
 17 25  1  0  0  0  0
 18 19  1  0  0  0  0
 18 21  1  0  0  0  0
 18 26  1  0  0  0  0
 19 20  2  0  0  0  0
 19 29  1  0  0  0  0
 21 22  1  0  0  0  0
 21 27  1  0  0  0  0
 21 28  1  0  0  0  0
 22 23  1  0  0  0  0
 22 24  2  0  0  0  0
 29 30  1  0  0  0  0
 29 34  1  0  0  0  0
 30 31  1  0  0  0  0
 30 33  1  0  0  0  0
 30 35  1  0  0  0  0
 31 32  2  0  0  0  0
 31 39  1  0  0  0  0
 33 36  1  0  0  0  0
 33 37  1  0  0  0  0
 33 38  1  0  0  0  0
 39 40  1  0  0  0  0
 39 41  1  0  0  0  0
 40 42  1  0  0  0  0
 40 43  1  0  0  0  0
 40 44  1  0  0  0  0
M  CHG  1  23  -1
M  END
$$$$

  -OEChem-05262215553D

 44 43  0     1  0  0  0  0  0999 V2000
   -4.2721   -0.6896   -2.2929 C   0  0  0  0  0  0  0  0  0  0  0  0
   -4.4579   -1.7969   -2.7835 O   0  0  0  0  0  0  0  0  0  0  0  0
   -5.2749   -0.1304   -1.3015 C   0  0  0  0  0  0  0  0  0  0  0  0
   -5.2343    0.9623   -1.3009 H   0  0  0  0  0  0  0  0  0  0  0  0
   -6.2863   -0.4466   -1.5665 H   0  0  0  0  0  0  0  0  0  0  0  0
   -5.0374   -0.4870   -0.2962 H   0  0  0  0  0  0  0  0  0  0  0  0
   -3.1797    0.0570   -2.6790 N   0  0  0  0  0  0  0  0  0  0  0  0
   -2.1428   -0.3890   -3.6187 C   0  0  2  0  0  0  0  0  0  0  0  0
   -0.7632    0.1748   -3.2137 C   0  0  0  0  0  0  0  0  0  0  0  0
   -0.1252    0.9225   -3.9494 O   0  0  0  0  0  0  0  0  0  0  0  0
   -2.5714    0.0281   -5.0318 C   0  0  0  0  0  0  0  0  0  0  0  0
   -3.0434    0.9576   -2.1953 H   0  0  0  0  0  0  0  0  0  0  0  0
   -2.0591   -1.4797   -3.5908 H   0  0  0  0  0  0  0  0  0  0  0  0
   -2.6579    1.1174   -5.0991 H   0  0  0  0  0  0  0  0  0  0  0  0
   -1.8362   -0.3099   -5.7682 H   0  0  0  0  0  0  0  0  0  0  0  0
   -3.5404   -0.4150   -5.2810 H   0  0  0  0  0  0  0  0  0  0  0  0
   -0.1864   -0.1870   -2.0106 N   0  0  0  0  0  0  0  0  0  0  0  0
    0.3555    0.8735   -1.1497 C   0  0  2  0  0  0  0  0  0  0  0  0
    1.7490    0.4903   -0.6068 C   0  0  0  0  0  0  0  0  0  0  0  0
    1.9755   -0.6278   -0.1499 O   0  0  0  0  0  0  0  0  0  0  0  0
   -0.5782    1.0105    0.0741 C   0  0  0  0  0  0  0  0  0  0  0  0
   -1.9547    1.5760   -0.2444 C   0  0  0  0  0  0  0  0  0  0  0  0
   -2.0881    2.3621   -1.2114 O   0  5  0  0  0  0  0  0  0  0  0  0
   -2.9118    1.1083    0.4120 O   0  0  0  0  0  0  0  0  0  0  0  0
   -0.7263   -0.8828   -1.5046 H   0  0  0  0  0  0  0  0  0  0  0  0
    0.4270    1.8311   -1.6783 H   0  0  0  0  0  0  0  0  0  0  0  0
   -0.1146    1.6845    0.7994 H   0  0  0  0  0  0  0  0  0  0  0  0
   -0.6963    0.0351    0.5563 H   0  0  0  0  0  0  0  0  0  0  0  0
    2.7731    1.4203   -0.6219 N   0  0  0  0  0  0  0  0  0  0  0  0
    4.1082    1.2057   -0.0497 C   0  0  2  0  0  0  0  0  0  0  0  0
    4.5807    2.3993    0.8044 C   0  0  0  0  0  0  0  0  0  0  0  0
    4.2849    3.5479    0.4943 O   0  0  0  0  0  0  0  0  0  0  0  0
    5.0800    0.9569   -1.2046 C   0  0  0  0  0  0  0  0  0  0  0  0
    2.5356    2.3632   -0.9265 H   0  0  0  0  0  0  0  0  0  0  0  0
    4.1016    0.3263    0.6016 H   0  0  0  0  0  0  0  0  0  0  0  0
    5.1129    1.8252   -1.8707 H   0  0  0  0  0  0  0  0  0  0  0  0
    6.0881    0.7704   -0.8226 H   0  0  0  0  0  0  0  0  0  0  0  0
    4.7609    0.0847   -1.7840 H   0  0  0  0  0  0  0  0  0  0  0  0
    5.3802    2.1817    1.9123 N   0  0  0  0  0  0  0  0  0  0  0  0
    5.8192    3.2481    2.8021 C   0  0  0  0  0  0  0  0  0  0  0  0
    5.5375    1.2166    2.1870 H   0  0  0  0  0  0  0  0  0  0  0  0
    6.3681    4.0125    2.2424 H   0  0  0  0  0  0  0  0  0  0  0  0
    4.9584    3.7169    3.2901 H   0  0  0  0  0  0  0  0  0  0  0  0
    6.4810    2.8458    3.5750 H   0  0  0  0  0  0  0  0  0  0  0  0
  1  2  2  0  0  0  0
  1  3  1  0  0  0  0
  1  7  1  0  0  0  0
  3  4  1  0  0  0  0
  3  5  1  0  0  0  0
  3  6  1  0  0  0  0
  7  8  1  0  0  0  0
  7 12  1  0  0  0  0
  8  9  1  0  0  0  0
  8 11  1  0  0  0  0
  8 13  1  0  0  0  0
  9 10  2  0  0  0  0
  9 17  1  0  0  0  0
 11 14  1  0  0  0  0
 11 15  1  0  0  0  0
 11 16  1  0  0  0  0
 17 18  1  0  0  0  0
 17 25  1  0  0  0  0
 18 19  1  0  0  0  0
 18 21  1  0  0  0  0
 18 26  1  0  0  0  0
 19 20  2  0  0  0  0
 19 29  1  0  0  0  0
 21 22  1  0  0  0  0
 21 27  1  0  0  0  0
 21 28  1  0  0  0  0
 22 23  1  0  0  0  0
 22 24  2  0  0  0  0
 29 30  1  0  0  0  0
 29 34  1  0  0  0  0
 30 31  1  0  0  0  0
 30 33  1  0  0  0  0
 30 35  1  0  0  0  0
 31 32  2  0  0  0  0
 31 39  1  0  0  0  0
 33 36  1  0  0  0  0
 33 37  1  0  0  0  0
 33 38  1  0  0  0  0
 39 40  1  0  0  0  0
 39 41  1  0  0  0  0
 40 42  1  0  0  0  0
 40 43  1  0  0  0  0
 40 44  1  0  0  0  0
M  CHG  1  23  -1
M  END
$$$$

  -OEChem-05262215553D

 44 43  0     1  0  0  0  0  0999 V2000
   -4.8487    0.1159   -3.4388 C   0  0  0  0  0  0  0  0  0  0  0  0
   -5.0614   -1.0661   -3.6678 O   0  0  0  0  0  0  0  0  0  0  0  0
   -6.0053    1.0975   -3.3948 C   0  0  0  0  0  0  0  0  0  0  0  0
   -5.8804    1.8551   -4.1722 H   0  0  0  0  0  0  0  0  0  0  0  0
   -6.9522    0.5751   -3.5565 H   0  0  0  0  0  0  0  0  0  0  0  0
   -6.0364    1.5894   -2.4190 H   0  0  0  0  0  0  0  0  0  0  0  0
   -3.5661    0.5808   -3.2503 N   0  0  0  0  0  0  0  0  0  0  0  0
   -2.3988   -0.2697   -2.9942 C   0  0  2  0  0  0  0  0  0  0  0  0
   -1.2926    0.5457   -2.2931 C   0  0  0  0  0  0  0  0  0  0  0  0
   -1.2454    1.7651   -2.4416 O   0  0  0  0  0  0  0  0  0  0  0  0
   -1.8730   -0.8476   -4.3130 C   0  0  0  0  0  0  0  0  0  0  0  0
   -3.4689    1.5512   -2.9495 H   0  0  0  0  0  0  0  0  0  0  0  0
   -2.6875   -1.0862   -2.3233 H   0  0  0  0  0  0  0  0  0  0  0  0
   -1.5869   -0.0411   -4.9955 H   0  0  0  0  0  0  0  0  0  0  0  0
   -0.9976   -1.4780   -4.1299 H   0  0  0  0  0  0  0  0  0  0  0  0
   -2.6410   -1.4582   -4.7970 H   0  0  0  0  0  0  0  0  0  0  0  0
   -0.2929   -0.0909   -1.5845 N   0  0  0  0  0  0  0  0  0  0  0  0
    0.3239    0.5324   -0.4059 C   0  0  2  0  0  0  0  0  0  0  0  0
    1.8611    0.4048   -0.4310 C   0  0  0  0  0  0  0  0  0  0  0  0
    2.4180   -0.5544   -0.9614 O   0  0  0  0  0  0  0  0  0  0  0  0
   -0.1944   -0.2223    0.8353 C   0  0  0  0  0  0  0  0  0  0  0  0
   -1.6741   -0.0033    1.1323 C   0  0  0  0  0  0  0  0  0  0  0  0
   -2.2098    1.0788    0.7955 O   0  5  0  0  0  0  0  0  0  0  0  0
   -2.2806   -0.9650    1.6601 O   0  0  0  0  0  0  0  0  0  0  0  0
   -0.3734   -1.1011   -1.5418 H   0  0  0  0  0  0  0  0  0  0  0  0
    0.0649    1.5950   -0.3330 H   0  0  0  0  0  0  0  0  0  0  0  0
    0.3613    0.1156    1.7137 H   0  0  0  0  0  0  0  0  0  0  0  0
   -0.0084   -1.2940    0.7164 H   0  0  0  0  0  0  0  0  0  0  0  0
    2.6448    1.3755    0.1659 N   0  0  0  0  0  0  0  0  0  0  0  0
    4.1102    1.3375    0.2352 C   0  0  2  0  0  0  0  0  0  0  0  0
    4.6665    2.0631    1.4776 C   0  0  0  0  0  0  0  0  0  0  0  0
    4.0068    2.9193    2.0558 O   0  0  0  0  0  0  0  0  0  0  0  0
    4.6665    1.9720   -1.0431 C   0  0  0  0  0  0  0  0  0  0  0  0
    2.1644    2.1198    0.6708 H   0  0  0  0  0  0  0  0  0  0  0  0
    4.4430    0.2963    0.2944 H   0  0  0  0  0  0  0  0  0  0  0  0
    4.3491    3.0169   -1.1204 H   0  0  0  0  0  0  0  0  0  0  0  0
    5.7599    1.9370   -1.0451 H   0  0  0  0  0  0  0  0  0  0  0  0
    4.3028    1.4323   -1.9233 H   0  0  0  0  0  0  0  0  0  0  0  0
    5.9345    1.7599    1.9411 N   0  0  0  0  0  0  0  0  0  0  0  0
    6.5194    2.3657    3.1296 C   0  0  0  0  0  0  0  0  0  0  0  0
    6.4365    1.0137    1.4696 H   0  0  0  0  0  0  0  0  0  0  0  0
    6.5529    3.4555    3.0279 H   0  0  0  0  0  0  0  0  0  0  0  0
    5.9310    2.1110    4.0172 H   0  0  0  0  0  0  0  0  0  0  0  0
    7.5410    2.0016    3.2738 H   0  0  0  0  0  0  0  0  0  0  0  0
  1  2  2  0  0  0  0
  1  3  1  0  0  0  0
  1  7  1  0  0  0  0
  3  4  1  0  0  0  0
  3  5  1  0  0  0  0
  3  6  1  0  0  0  0
  7  8  1  0  0  0  0
  7 12  1  0  0  0  0
  8  9  1  0  0  0  0
  8 11  1  0  0  0  0
  8 13  1  0  0  0  0
  9 10  2  0  0  0  0
  9 17  1  0  0  0  0
 11 14  1  0  0  0  0
 11 15  1  0  0  0  0
 11 16  1  0  0  0  0
 17 18  1  0  0  0  0
 17 25  1  0  0  0  0
 18 19  1  0  0  0  0
 18 21  1  0  0  0  0
 18 26  1  0  0  0  0
 19 20  2  0  0  0  0
 19 29  1  0  0  0  0
 21 22  1  0  0  0  0
 21 27  1  0  0  0  0
 21 28  1  0  0  0  0
 22 23  1  0  0  0  0
 22 24  2  0  0  0  0
 29 30  1  0  0  0  0
 29 34  1  0  0  0  0
 30 31  1  0  0  0  0
 30 33  1  0  0  0  0
 30 35  1  0  0  0  0
 31 32  2  0  0  0  0
 31 39  1  0  0  0  0
 33 36  1  0  0  0  0
 33 37  1  0  0  0  0
 33 38  1  0  0  0  0
 39 40  1  0  0  0  0
 39 41  1  0  0  0  0
 40 42  1  0  0  0  0
 40 43  1  0  0  0  0
 40 44  1  0  0  0  0
M  CHG  1  23  -1
M  END
$$$$

  -OEChem-05262215553D

 44 43  0     1  0  0  0  0  0999 V2000
   -4.8395    0.1118   -3.4772 C   0  0  0  0  0  0  0  0  0  0  0  0
   -5.0219   -1.0690   -3.7365 O   0  0  0  0  0  0  0  0  0  0  0  0
   -6.0166    1.0690   -3.4431 C   0  0  0  0  0  0  0  0  0  0  0  0
   -5.8873    1.8442   -4.2021 H   0  0  0  0  0  0  0  0  0  0  0  0
   -6.9484    0.5318   -3.6395 H   0  0  0  0  0  0  0  0  0  0  0  0
   -6.0819    1.5397   -2.4587 H   0  0  0  0  0  0  0  0  0  0  0  0
   -3.5722    0.5982   -3.2436 N   0  0  0  0  0  0  0  0  0  0  0  0
   -2.3913   -0.2331   -2.9848 C   0  0  2  0  0  0  0  0  0  0  0  0
   -1.3177    0.5845   -2.2355 C   0  0  0  0  0  0  0  0  0  0  0  0
   -1.3173    1.8109   -2.3196 O   0  0  0  0  0  0  0  0  0  0  0  0
   -1.8254   -0.7585   -4.3094 C   0  0  0  0  0  0  0  0  0  0  0  0
   -3.5016    1.5639   -2.9206 H   0  0  0  0  0  0  0  0  0  0  0  0
   -2.6760   -1.0752   -2.3446 H   0  0  0  0  0  0  0  0  0  0  0  0
   -1.5473    0.0752   -4.9617 H   0  0  0  0  0  0  0  0  0  0  0  0
   -0.9373   -1.3717   -4.1289 H   0  0  0  0  0  0  0  0  0  0  0  0
   -2.5673   -1.3737   -4.8273 H   0  0  0  0  0  0  0  0  0  0  0  0
   -0.2964   -0.0538   -1.5590 N   0  0  0  0  0  0  0  0  0  0  0  0
    0.3351    0.5399   -0.3716 C   0  0  2  0  0  0  0  0  0  0  0  0
    1.8759    0.4378   -0.4190 C   0  0  0  0  0  0  0  0  0  0  0  0
    2.4486   -0.3463   -1.1730 O   0  0  0  0  0  0  0  0  0  0  0  0
   -0.1522   -0.2765    0.8441 C   0  0  0  0  0  0  0  0  0  0  0  0
   -1.6298   -0.0987    1.1747 C   0  0  0  0  0  0  0  0  0  0  0  0
   -2.1917    0.9860    0.8950 O   0  5  0  0  0  0  0  0  0  0  0  0
   -2.2080   -1.0960    1.6669 O   0  0  0  0  0  0  0  0  0  0  0  0
   -0.3440   -1.0669   -1.5633 H   0  0  0  0  0  0  0  0  0  0  0  0
    0.0600    1.5945   -0.2550 H   0  0  0  0  0  0  0  0  0  0  0  0
    0.4088    0.0324    1.7298 H   0  0  0  0  0  0  0  0  0  0  0  0
    0.0509   -1.3383    0.6762 H   0  0  0  0  0  0  0  0  0  0  0  0
    2.6480    1.2018    0.4381 N   0  0  0  0  0  0  0  0  0  0  0  0
    4.1108    1.1225    0.5369 C   0  0  2  0  0  0  0  0  0  0  0  0
    4.6310    1.4664    1.9480 C   0  0  0  0  0  0  0  0  0  0  0  0
    3.9728    2.1691    2.7066 O   0  0  0  0  0  0  0  0  0  0  0  0
    4.7150    2.0786   -0.4957 C   0  0  0  0  0  0  0  0  0  0  0  0
    2.1563    1.7696    1.1280 H   0  0  0  0  0  0  0  0  0  0  0  0
    4.4349    0.1006    0.3145 H   0  0  0  0  0  0  0  0  0  0  0  0
    4.4074    3.1083   -0.2878 H   0  0  0  0  0  0  0  0  0  0  0  0
    5.8075    2.0284   -0.4723 H   0  0  0  0  0  0  0  0  0  0  0  0
    4.3784    1.8115   -1.5023 H   0  0  0  0  0  0  0  0  0  0  0  0
    5.8659    0.9987    2.3623 N   0  0  0  0  0  0  0  0  0  0  0  0
    6.4146    1.2511    3.6883 C   0  0  0  0  0  0  0  0  0  0  0  0
    6.3672    0.3820    1.7301 H   0  0  0  0  0  0  0  0  0  0  0  0
    6.5223    2.3272    3.8601 H   0  0  0  0  0  0  0  0  0  0  0  0
    5.7586    0.8339    4.4596 H   0  0  0  0  0  0  0  0  0  0  0  0
    7.4004    0.7859    3.7832 H   0  0  0  0  0  0  0  0  0  0  0  0
  1  2  2  0  0  0  0
  1  3  1  0  0  0  0
  1  7  1  0  0  0  0
  3  4  1  0  0  0  0
  3  5  1  0  0  0  0
  3  6  1  0  0  0  0
  7  8  1  0  0  0  0
  7 12  1  0  0  0  0
  8  9  1  0  0  0  0
  8 11  1  0  0  0  0
  8 13  1  0  0  0  0
  9 10  2  0  0  0  0
  9 17  1  0  0  0  0
 11 14  1  0  0  0  0
 11 15  1  0  0  0  0
 11 16  1  0  0  0  0
 17 18  1  0  0  0  0
 17 25  1  0  0  0  0
 18 19  1  0  0  0  0
 18 21  1  0  0  0  0
 18 26  1  0  0  0  0
 19 20  2  0  0  0  0
 19 29  1  0  0  0  0
 21 22  1  0  0  0  0
 21 27  1  0  0  0  0
 21 28  1  0  0  0  0
 22 23  1  0  0  0  0
 22 24  2  0  0  0  0
 29 30  1  0  0  0  0
 29 34  1  0  0  0  0
 30 31  1  0  0  0  0
 30 33  1  0  0  0  0
 30 35  1  0  0  0  0
 31 32  2  0  0  0  0
 31 39  1  0  0  0  0
 33 36  1  0  0  0  0
 33 37  1  0  0  0  0
 33 38  1  0  0  0  0
 39 40  1  0  0  0  0
 39 41  1  0  0  0  0
 40 42  1  0  0  0  0
 40 43  1  0  0  0  0
 40 44  1  0  0  0  0
M  CHG  1  23  -1
M  END
$$$$

  -OEChem-05262215553D

 44 43  0     1  0  0  0  0  0999 V2000
   -4.8108    0.0208   -3.6393 C   0  0  0  0  0  0  0  0  0  0  0  0
   -4.9219   -1.1650   -3.9132 O   0  0  0  0  0  0  0  0  0  0  0  0
   -6.0224    0.9313   -3.7162 C   0  0  0  0  0  0  0  0  0  0  0  0
   -5.8383    1.7372   -4.4304 H   0  0  0  0  0  0  0  0  0  0  0  0
   -6.9009    0.3664   -4.0391 H   0  0  0  0  0  0  0  0  0  0  0  0
   -6.2224    1.3645   -2.7329 H   0  0  0  0  0  0  0  0  0  0  0  0
   -3.5920    0.5513   -3.2781 N   0  0  0  0  0  0  0  0  0  0  0  0
   -2.4018   -0.2355   -2.9336 C   0  0  2  0  0  0  0  0  0  0  0  0
   -1.4415    0.5933   -2.0526 C   0  0  0  0  0  0  0  0  0  0  0  0
   -1.5628    1.8163   -2.0103 O   0  0  0  0  0  0  0  0  0  0  0  0
   -1.6915   -0.6767   -4.2188 C   0  0  0  0  0  0  0  0  0  0  0  0
   -3.5833    1.5185   -2.9532 H   0  0  0  0  0  0  0  0  0  0  0  0
   -2.7036   -1.1170   -2.3574 H   0  0  0  0  0  0  0  0  0  0  0  0
   -1.3833    0.1968   -4.8019 H   0  0  0  0  0  0  0  0  0  0  0  0
   -0.8027   -1.2685   -3.9806 H   0  0  0  0  0  0  0  0  0  0  0  0
   -2.3570   -1.2899   -4.8337 H   0  0  0  0  0  0  0  0  0  0  0  0
   -0.3963   -0.0245   -1.3938 N   0  0  0  0  0  0  0  0  0  0  0  0
    0.2773    0.5773   -0.2341 C   0  0  2  0  0  0  0  0  0  0  0  0
    1.7865    0.8139   -0.4811 C   0  0  0  0  0  0  0  0  0  0  0  0
    2.3403    0.4537   -1.5176 O   0  0  0  0  0  0  0  0  0  0  0  0
    0.1197   -0.4356    0.9205 C   0  0  0  0  0  0  0  0  0  0  0  0
   -1.3101   -0.5781    1.4304 C   0  0  0  0  0  0  0  0  0  0  0  0
   -2.0881    0.4012    1.3464 O   0  5  0  0  0  0  0  0  0  0  0  0
   -1.6305   -1.7107    1.8618 O   0  0  0  0  0  0  0  0  0  0  0  0
   -0.3813   -1.0368   -1.4459 H   0  0  0  0  0  0  0  0  0  0  0  0
   -0.1783    1.5351    0.0434 H   0  0  0  0  0  0  0  0  0  0  0  0
    0.7232   -0.1130    1.7725 H   0  0  0  0  0  0  0  0  0  0  0  0
    0.4901   -1.4152    0.6043 H   0  0  0  0  0  0  0  0  0  0  0  0
    2.5729    1.3763    0.5095 N   0  0  0  0  0  0  0  0  0  0  0  0
    4.0309    1.5287    0.4321 C   0  0  2  0  0  0  0  0  0  0  0  0
    4.7116    1.4129    1.8112 C   0  0  0  0  0  0  0  0  0  0  0  0
    4.1054    1.6984    2.8377 O   0  0  0  0  0  0  0  0  0  0  0  0
    4.3392    2.8880   -0.2008 C   0  0  0  0  0  0  0  0  0  0  0  0
    2.1235    1.5712    1.4038 H   0  0  0  0  0  0  0  0  0  0  0  0
    4.4475    0.7369   -0.1990 H   0  0  0  0  0  0  0  0  0  0  0  0
    3.9397    3.6967    0.4194 H   0  0  0  0  0  0  0  0  0  0  0  0
    5.4193    3.0270   -0.3040 H   0  0  0  0  0  0  0  0  0  0  0  0
    3.8853    2.9536   -1.1948 H   0  0  0  0  0  0  0  0  0  0  0  0
    6.0280    0.9955    1.8959 N   0  0  0  0  0  0  0  0  0  0  0  0
    6.7268    0.8008    3.1592 C   0  0  0  0  0  0  0  0  0  0  0  0
    6.4810    0.7096    1.0331 H   0  0  0  0  0  0  0  0  0  0  0  0
    6.7689    1.7384    3.7231 H   0  0  0  0  0  0  0  0  0  0  0  0
    6.2166    0.0456    3.7661 H   0  0  0  0  0  0  0  0  0  0  0  0
    7.7509    0.4631    2.9743 H   0  0  0  0  0  0  0  0  0  0  0  0
  1  2  2  0  0  0  0
  1  3  1  0  0  0  0
  1  7  1  0  0  0  0
  3  4  1  0  0  0  0
  3  5  1  0  0  0  0
  3  6  1  0  0  0  0
  7  8  1  0  0  0  0
  7 12  1  0  0  0  0
  8  9  1  0  0  0  0
  8 11  1  0  0  0  0
  8 13  1  0  0  0  0
  9 10  2  0  0  0  0
  9 17  1  0  0  0  0
 11 14  1  0  0  0  0
 11 15  1  0  0  0  0
 11 16  1  0  0  0  0
 17 18  1  0  0  0  0
 17 25  1  0  0  0  0
 18 19  1  0  0  0  0
 18 21  1  0  0  0  0
 18 26  1  0  0  0  0
 19 20  2  0  0  0  0
 19 29  1  0  0  0  0
 21 22  1  0  0  0  0
 21 27  1  0  0  0  0
 21 28  1  0  0  0  0
 22 23  1  0  0  0  0
 22 24  2  0  0  0  0
 29 30  1  0  0  0  0
 29 34  1  0  0  0  0
 30 31  1  0  0  0  0
 30 33  1  0  0  0  0
 30 35  1  0  0  0  0
 31 32  2  0  0  0  0
 31 39  1  0  0  0  0
 33 36  1  0  0  0  0
 33 37  1  0  0  0  0
 33 38  1  0  0  0  0
 39 40  1  0  0  0  0
 39 41  1  0  0  0  0
 40 42  1  0  0  0  0
 40 43  1  0  0  0  0
 40 44  1  0  0  0  0
M  CHG  1  23  -1
M  END
$$$$

  -OEChem-05262215553D

 44 43  0     1  0  0  0  0  0999 V2000
   -4.7809    0.0128   -3.6706 C   0  0  0  0  0  0  0  0  0  0  0  0
   -4.8592   -1.1674   -3.9783 O   0  0  0  0  0  0  0  0  0  0  0  0
   -6.0107    0.8978   -3.7648 C   0  0  0  0  0  0  0  0  0  0  0  0
   -5.7960    1.7713   -4.3852 H   0  0  0  0  0  0  0  0  0  0  0  0
   -6.8419    0.3444   -4.2104 H   0  0  0  0  0  0  0  0  0  0  0  0
   -6.3040    1.2320   -2.7664 H   0  0  0  0  0  0  0  0  0  0  0  0
   -3.5833    0.5573   -3.2603 N   0  0  0  0  0  0  0  0  0  0  0  0
   -2.3812   -0.2135   -2.9194 C   0  0  2  0  0  0  0  0  0  0  0  0
   -1.4414    0.6131   -2.0143 C   0  0  0  0  0  0  0  0  0  0  0  0
   -1.5802    1.8332   -1.9527 O   0  0  0  0  0  0  0  0  0  0  0  0
   -1.6499   -0.6170   -4.2059 C   0  0  0  0  0  0  0  0  0  0  0  0
   -3.5991    1.5172   -2.9143 H   0  0  0  0  0  0  0  0  0  0  0  0
   -2.6731   -1.1109   -2.3630 H   0  0  0  0  0  0  0  0  0  0  0  0
   -1.3579    0.2734   -4.7716 H   0  0  0  0  0  0  0  0  0  0  0  0
   -0.7484   -1.1910   -3.9701 H   0  0  0  0  0  0  0  0  0  0  0  0
   -2.2953   -1.2354   -4.8374 H   0  0  0  0  0  0  0  0  0  0  0  0
   -0.3997   -0.0072   -1.3513 N   0  0  0  0  0  0  0  0  0  0  0  0
    0.2574    0.5856   -0.1773 C   0  0  2  0  0  0  0  0  0  0  0  0
    1.7705    0.8313   -0.4121 C   0  0  0  0  0  0  0  0  0  0  0  0
    2.2795    0.7217   -1.5252 O   0  0  0  0  0  0  0  0  0  0  0  0
    0.0718   -0.4500    0.9565 C   0  0  0  0  0  0  0  0  0  0  0  0
   -1.3688   -0.5966    1.4345 C   0  0  0  0  0  0  0  0  0  0  0  0
   -2.1420    0.3862    1.3541 O   0  5  0  0  0  0  0  0  0  0  0  0
   -1.7024   -1.7379    1.8313 O   0  0  0  0  0  0  0  0  0  0  0  0
   -0.3864   -1.0189   -1.4111 H   0  0  0  0  0  0  0  0  0  0  0  0
   -0.2023    1.5387    0.1090 H   0  0  0  0  0  0  0  0  0  0  0  0
    0.6520   -0.1473    1.8309 H   0  0  0  0  0  0  0  0  0  0  0  0
    0.4471   -1.4247    0.6306 H   0  0  0  0  0  0  0  0  0  0  0  0
    2.6180    1.0904    0.6521 N   0  0  0  0  0  0  0  0  0  0  0  0
    4.0809    1.1765    0.5576 C   0  0  2  0  0  0  0  0  0  0  0  0
    4.7803    0.6540    1.8291 C   0  0  0  0  0  0  0  0  0  0  0  0
    4.2193    0.7041    2.9177 O   0  0  0  0  0  0  0  0  0  0  0  0
    4.4636    2.6363    0.2982 C   0  0  0  0  0  0  0  0  0  0  0  0
    2.2079    1.0646    1.5853 H   0  0  0  0  0  0  0  0  0  0  0  0
    4.4312    0.5622   -0.2779 H   0  0  0  0  0  0  0  0  0  0  0  0
    4.1300    3.2716    1.1251 H   0  0  0  0  0  0  0  0  0  0  0  0
    5.5483    2.7362    0.1961 H   0  0  0  0  0  0  0  0  0  0  0  0
    3.9951    2.9913   -0.6255 H   0  0  0  0  0  0  0  0  0  0  0  0
    6.0579    0.1284    1.7506 N   0  0  0  0  0  0  0  0  0  0  0  0
    6.7519   -0.4558    2.8909 C   0  0  0  0  0  0  0  0  0  0  0  0
    6.4675    0.0382    0.8256 H   0  0  0  0  0  0  0  0  0  0  0  0
    6.8668    0.2833    3.6905 H   0  0  0  0  0  0  0  0  0  0  0  0
    6.1928   -1.3133    3.2799 H   0  0  0  0  0  0  0  0  0  0  0  0
    7.7476   -0.7972    2.5924 H   0  0  0  0  0  0  0  0  0  0  0  0
  1  2  2  0  0  0  0
  1  3  1  0  0  0  0
  1  7  1  0  0  0  0
  3  4  1  0  0  0  0
  3  5  1  0  0  0  0
  3  6  1  0  0  0  0
  7  8  1  0  0  0  0
  7 12  1  0  0  0  0
  8  9  1  0  0  0  0
  8 11  1  0  0  0  0
  8 13  1  0  0  0  0
  9 10  2  0  0  0  0
  9 17  1  0  0  0  0
 11 14  1  0  0  0  0
 11 15  1  0  0  0  0
 11 16  1  0  0  0  0
 17 18  1  0  0  0  0
 17 25  1  0  0  0  0
 18 19  1  0  0  0  0
 18 21  1  0  0  0  0
 18 26  1  0  0  0  0
 19 20  2  0  0  0  0
 19 29  1  0  0  0  0
 21 22  1  0  0  0  0
 21 27  1  0  0  0  0
 21 28  1  0  0  0  0
 22 23  1  0  0  0  0
 22 24  2  0  0  0  0
 29 30  1  0  0  0  0
 29 34  1  0  0  0  0
 30 31  1  0  0  0  0
 30 33  1  0  0  0  0
 30 35  1  0  0  0  0
 31 32  2  0  0  0  0
 31 39  1  0  0  0  0
 33 36  1  0  0  0  0
 33 37  1  0  0  0  0
 33 38  1  0  0  0  0
 39 40  1  0  0  0  0
 39 41  1  0  0  0  0
 40 42  1  0  0  0  0
 40 43  1  0  0  0  0
 40 44  1  0  0  0  0
M  CHG  1  23  -1
M  END
$$$$

  -OEChem-05262215553D

 44 43  0     1  0  0  0  0  0999 V2000
   -4.7522    0.0518   -3.6674 C   0  0  0  0  0  0  0  0  0  0  0  0
   -4.8574   -1.1250   -3.9806 O   0  0  0  0  0  0  0  0  0  0  0  0
   -5.9689    0.9579   -3.7123 C   0  0  0  0  0  0  0  0  0  0  0  0
   -5.7971    1.7786   -4.4128 H   0  0  0  0  0  0  0  0  0  0  0  0
   -6.8486    0.3947   -4.0352 H   0  0  0  0  0  0  0  0  0  0  0  0
   -6.1594    1.3709   -2.7184 H   0  0  0  0  0  0  0  0  0  0  0  0
   -3.5359    0.5755   -3.2888 N   0  0  0  0  0  0  0  0  0  0  0  0
   -2.3485   -0.2180   -2.9523 C   0  0  2  0  0  0  0  0  0  0  0  0
   -1.3980    0.5954   -2.0472 C   0  0  0  0  0  0  0  0  0  0  0  0
   -1.5081    1.8192   -2.0030 O   0  0  0  0  0  0  0  0  0  0  0  0
   -1.6265   -0.6296   -4.2404 C   0  0  0  0  0  0  0  0  0  0  0  0
   -3.5304    1.5341   -2.9386 H   0  0  0  0  0  0  0  0  0  0  0  0
   -2.6541   -1.1121   -2.3977 H   0  0  0  0  0  0  0  0  0  0  0  0
   -1.3166    0.2578   -4.8012 H   0  0  0  0  0  0  0  0  0  0  0  0
   -0.7374   -1.2231   -4.0081 H   0  0  0  0  0  0  0  0  0  0  0  0
   -2.2849   -1.2312   -4.8741 H   0  0  0  0  0  0  0  0  0  0  0  0
   -0.3909   -0.0450   -1.3505 N   0  0  0  0  0  0  0  0  0  0  0  0
    0.2284    0.5445   -0.1542 C   0  0  2  0  0  0  0  0  0  0  0  0
    1.7526    0.7642   -0.3472 C   0  0  0  0  0  0  0  0  0  0  0  0
    2.2416    0.9240   -1.4622 O   0  0  0  0  0  0  0  0  0  0  0  0
   -0.0328   -0.4761    0.9793 C   0  0  0  0  0  0  0  0  0  0  0  0
   -1.4968   -0.5835    1.3924 C   0  0  0  0  0  0  0  0  0  0  0  0
   -2.2434    0.4151    1.2692 O   0  5  0  0  0  0  0  0  0  0  0  0
   -1.8746   -1.7153    1.7760 O   0  0  0  0  0  0  0  0  0  0  0  0
   -0.4257   -1.0574   -1.3824 H   0  0  0  0  0  0  0  0  0  0  0  0
   -0.2199    1.5106    0.1061 H   0  0  0  0  0  0  0  0  0  0  0  0
    0.5067   -0.1738    1.8793 H   0  0  0  0  0  0  0  0  0  0  0  0
    0.3359   -1.4626    0.6832 H   0  0  0  0  0  0  0  0  0  0  0  0
    2.6301    0.7108    0.7230 N   0  0  0  0  0  0  0  0  0  0  0  0
    4.0934    0.7643    0.6126 C   0  0  2  0  0  0  0  0  0  0  0  0
    4.7935   -0.1167    1.6667 C   0  0  0  0  0  0  0  0  0  0  0  0
    4.2576   -0.3499    2.7441 O   0  0  0  0  0  0  0  0  0  0  0  0
    4.5316    2.2232    0.7618 C   0  0  0  0  0  0  0  0  0  0  0  0
    2.2364    0.4563    1.6281 H   0  0  0  0  0  0  0  0  0  0  0  0
    4.4035    0.3962   -0.3709 H   0  0  0  0  0  0  0  0  0  0  0  0
    4.2320    2.6137    1.7394 H   0  0  0  0  0  0  0  0  0  0  0  0
    5.6183    2.3079    0.6688 H   0  0  0  0  0  0  0  0  0  0  0  0
    4.0684    2.8380   -0.0164 H   0  0  0  0  0  0  0  0  0  0  0  0
    6.0480   -0.6398    1.4088 N   0  0  0  0  0  0  0  0  0  0  0  0
    6.7514   -1.5188    2.3331 C   0  0  0  0  0  0  0  0  0  0  0  0
    6.4423   -0.4740    0.4879 H   0  0  0  0  0  0  0  0  0  0  0  0
    6.9496   -1.0010    3.2773 H   0  0  0  0  0  0  0  0  0  0  0  0
    6.1546   -2.4136    2.5394 H   0  0  0  0  0  0  0  0  0  0  0  0
    7.7074   -1.8320    1.9028 H   0  0  0  0  0  0  0  0  0  0  0  0
  1  2  2  0  0  0  0
  1  3  1  0  0  0  0
  1  7  1  0  0  0  0
  3  4  1  0  0  0  0
  3  5  1  0  0  0  0
  3  6  1  0  0  0  0
  7  8  1  0  0  0  0
  7 12  1  0  0  0  0
  8  9  1  0  0  0  0
  8 11  1  0  0  0  0
  8 13  1  0  0  0  0
  9 10  2  0  0  0  0
  9 17  1  0  0  0  0
 11 14  1  0  0  0  0
 11 15  1  0  0  0  0
 11 16  1  0  0  0  0
 17 18  1  0  0  0  0
 17 25  1  0  0  0  0
 18 19  1  0  0  0  0
 18 21  1  0  0  0  0
 18 26  1  0  0  0  0
 19 20  2  0  0  0  0
 19 29  1  0  0  0  0
 21 22  1  0  0  0  0
 21 27  1  0  0  0  0
 21 28  1  0  0  0  0
 22 23  1  0  0  0  0
 22 24  2  0  0  0  0
 29 30  1  0  0  0  0
 29 34  1  0  0  0  0
 30 31  1  0  0  0  0
 30 33  1  0  0  0  0
 30 35  1  0  0  0  0
 31 32  2  0  0  0  0
 31 39  1  0  0  0  0
 33 36  1  0  0  0  0
 33 37  1  0  0  0  0
 33 38  1  0  0  0  0
 39 40  1  0  0  0  0
 39 41  1  0  0  0  0
 40 42  1  0  0  0  0
 40 43  1  0  0  0  0
 40 44  1  0  0  0  0
M  CHG  1  23  -1
M  END
$$$$

  -OEChem-05262215553D

 44 43  0     1  0  0  0  0  0999 V2000
   -4.7369    0.0613   -3.6622 C   0  0  0  0  0  0  0  0  0  0  0  0
   -4.8522   -1.1189   -3.9595 O   0  0  0  0  0  0  0  0  0  0  0  0
   -5.9465    0.9763   -3.7140 C   0  0  0  0  0  0  0  0  0  0  0  0
   -5.7605    1.8016   -4.4055 H   0  0  0  0  0  0  0  0  0  0  0  0
   -6.8260    0.4221   -4.0523 H   0  0  0  0  0  0  0  0  0  0  0  0
   -6.1466    1.3820   -2.7190 H   0  0  0  0  0  0  0  0  0  0  0  0
   -3.5148    0.5810   -3.2974 N   0  0  0  0  0  0  0  0  0  0  0  0
   -2.3334   -0.2188   -2.9561 C   0  0  2  0  0  0  0  0  0  0  0  0
   -1.3743    0.5912   -2.0579 C   0  0  0  0  0  0  0  0  0  0  0  0
   -1.4610    1.8171   -2.0371 O   0  0  0  0  0  0  0  0  0  0  0  0
   -1.6149   -0.6452   -4.2411 C   0  0  0  0  0  0  0  0  0  0  0  0
   -3.5026    1.5415   -2.9527 H   0  0  0  0  0  0  0  0  0  0  0  0
   -2.6462   -1.1059   -2.3945 H   0  0  0  0  0  0  0  0  0  0  0  0
   -1.3031    0.2356   -4.8115 H   0  0  0  0  0  0  0  0  0  0  0  0
   -0.7270   -1.2393   -4.0042 H   0  0  0  0  0  0  0  0  0  0  0  0
   -2.2768   -1.2510   -4.8671 H   0  0  0  0  0  0  0  0  0  0  0  0
   -0.3944   -0.0620   -1.3334 N   0  0  0  0  0  0  0  0  0  0  0  0
    0.2051    0.5319   -0.1297 C   0  0  2  0  0  0  0  0  0  0  0  0
    1.7368    0.7205   -0.2982 C   0  0  0  0  0  0  0  0  0  0  0  0
    2.2159    1.1242   -1.3535 O   0  0  0  0  0  0  0  0  0  0  0  0
   -0.1114   -0.4606    1.0142 C   0  0  0  0  0  0  0  0  0  0  0  0
   -1.5886   -0.5252    1.3877 C   0  0  0  0  0  0  0  0  0  0  0  0
   -2.3086    0.4872    1.2262 O   0  5  0  0  0  0  0  0  0  0  0  0
   -2.0031   -1.6420    1.7770 O   0  0  0  0  0  0  0  0  0  0  0  0
   -0.4685   -1.0730   -1.3406 H   0  0  0  0  0  0  0  0  0  0  0  0
   -0.2275    1.5117    0.1042 H   0  0  0  0  0  0  0  0  0  0  0  0
    0.4085   -0.1465    1.9219 H   0  0  0  0  0  0  0  0  0  0  0  0
    0.2435   -1.4612    0.7499 H   0  0  0  0  0  0  0  0  0  0  0  0
    2.6278    0.3698    0.7030 N   0  0  0  0  0  0  0  0  0  0  0  0
    4.0899    0.3667    0.5644 C   0  0  2  0  0  0  0  0  0  0  0  0
    4.7459   -0.8141    1.3089 C   0  0  0  0  0  0  0  0  0  0  0  0
    4.2118   -1.3064    2.2961 O   0  0  0  0  0  0  0  0  0  0  0  0
    4.6233    1.6982    1.0984 C   0  0  0  0  0  0  0  0  0  0  0  0
    2.2343   -0.0876    1.5247 H   0  0  0  0  0  0  0  0  0  0  0  0
    4.3629    0.2714   -0.4914 H   0  0  0  0  0  0  0  0  0  0  0  0
    4.3588    1.8204    2.1535 H   0  0  0  0  0  0  0  0  0  0  0  0
    5.7123    1.7403    1.0034 H   0  0  0  0  0  0  0  0  0  0  0  0
    4.1935    2.5308    0.5326 H   0  0  0  0  0  0  0  0  0  0  0  0
    5.9597   -1.3182    0.8759 N   0  0  0  0  0  0  0  0  0  0  0  0
    6.6260   -2.4512    1.5050 C   0  0  0  0  0  0  0  0  0  0  0  0
    6.3486   -0.9288    0.0224 H   0  0  0  0  0  0  0  0  0  0  0  0
    6.8650   -2.2235    2.5490 H   0  0  0  0  0  0  0  0  0  0  0  0
    5.9843   -3.3380    1.4749 H   0  0  0  0  0  0  0  0  0  0  0  0
    7.5579   -2.6799    0.9793 H   0  0  0  0  0  0  0  0  0  0  0  0
  1  2  2  0  0  0  0
  1  3  1  0  0  0  0
  1  7  1  0  0  0  0
  3  4  1  0  0  0  0
  3  5  1  0  0  0  0
  3  6  1  0  0  0  0
  7  8  1  0  0  0  0
  7 12  1  0  0  0  0
  8  9  1  0  0  0  0
  8 11  1  0  0  0  0
  8 13  1  0  0  0  0
  9 10  2  0  0  0  0
  9 17  1  0  0  0  0
 11 14  1  0  0  0  0
 11 15  1  0  0  0  0
 11 16  1  0  0  0  0
 17 18  1  0  0  0  0
 17 25  1  0  0  0  0
 18 19  1  0  0  0  0
 18 21  1  0  0  0  0
 18 26  1  0  0  0  0
 19 20  2  0  0  0  0
 19 29  1  0  0  0  0
 21 22  1  0  0  0  0
 21 27  1  0  0  0  0
 21 28  1  0  0  0  0
 22 23  1  0  0  0  0
 22 24  2  0  0  0  0
 29 30  1  0  0  0  0
 29 34  1  0  0  0  0
 30 31  1  0  0  0  0
 30 33  1  0  0  0  0
 30 35  1  0  0  0  0
 31 32  2  0  0  0  0
 31 39  1  0  0  0  0
 33 36  1  0  0  0  0
 33 37  1  0  0  0  0
 33 38  1  0  0  0  0
 39 40  1  0  0  0  0
 39 41  1  0  0  0  0
 40 42  1  0  0  0  0
 40 43  1  0  0  0  0
 40 44  1  0  0  0  0
M  CHG  1  23  -1
M  END
$$$$

  -OEChem-05262215553D

 44 43  0     1  0  0  0  0  0999 V2000
   -4.7415    0.0801   -3.6528 C   0  0  0  0  0  0  0  0  0  0  0  0
   -4.8785   -1.1004   -3.9397 O   0  0  0  0  0  0  0  0  0  0  0  0
   -5.9368    1.0141   -3.7032 C   0  0  0  0  0  0  0  0  0  0  0  0
   -5.7505    1.8189   -4.4182 H   0  0  0  0  0  0  0  0  0  0  0  0
   -6.8322    0.4671   -4.0107 H   0  0  0  0  0  0  0  0  0  0  0  0
   -6.1102    1.4473   -2.7147 H   0  0  0  0  0  0  0  0  0  0  0  0
   -3.5080    0.5826   -3.3017 N   0  0  0  0  0  0  0  0  0  0  0  0
   -2.3375   -0.2335   -2.9604 C   0  0  2  0  0  0  0  0  0  0  0  0
   -1.3542    0.5722   -2.0846 C   0  0  0  0  0  0  0  0  0  0  0  0
   -1.3963    1.7999   -2.1073 O   0  0  0  0  0  0  0  0  0  0  0  0
   -1.6399   -0.6948   -4.2450 C   0  0  0  0  0  0  0  0  0  0  0  0
   -3.4756    1.5485   -2.9734 H   0  0  0  0  0  0  0  0  0  0  0  0
   -2.6613   -1.1056   -2.3820 H   0  0  0  0  0  0  0  0  0  0  0  0
   -1.3205    0.1699   -4.8351 H   0  0  0  0  0  0  0  0  0  0  0  0
   -0.7591   -1.2984   -4.0065 H   0  0  0  0  0  0  0  0  0  0  0  0
   -2.3178   -1.3013   -4.8529 H   0  0  0  0  0  0  0  0  0  0  0  0
   -0.4039   -0.0918   -1.3306 N   0  0  0  0  0  0  0  0  0  0  0  0
    0.1943    0.5159   -0.1333 C   0  0  2  0  0  0  0  0  0  0  0  0
    1.7314    0.6559   -0.2855 C   0  0  0  0  0  0  0  0  0  0  0  0
    2.2210    1.2723   -1.2260 O   0  0  0  0  0  0  0  0  0  0  0  0
   -0.1670   -0.4299    1.0364 C   0  0  0  0  0  0  0  0  0  0  0  0
   -1.6499   -0.4398    1.3924 C   0  0  0  0  0  0  0  0  0  0  0  0
   -2.3376    0.5875    1.1901 O   0  5  0  0  0  0  0  0  0  0  0  0
   -2.1024   -1.5321    1.8078 O   0  0  0  0  0  0  0  0  0  0  0  0
   -0.5271   -1.0978   -1.2985 H   0  0  0  0  0  0  0  0  0  0  0  0
   -0.2117    1.5151    0.0654 H   0  0  0  0  0  0  0  0  0  0  0  0
    0.3572   -0.1029    1.9377 H   0  0  0  0  0  0  0  0  0  0  0  0
    0.1567   -1.4496    0.8062 H   0  0  0  0  0  0  0  0  0  0  0  0
    2.6078    0.0348    0.5898 N   0  0  0  0  0  0  0  0  0  0  0  0
    4.0667   -0.0131    0.4283 C   0  0  2  0  0  0  0  0  0  0  0  0
    4.6514   -1.3917    0.7962 C   0  0  0  0  0  0  0  0  0  0  0  0
    4.0901   -2.1129    1.6130 O   0  0  0  0  0  0  0  0  0  0  0  0
    4.6771    1.0789    1.3093 C   0  0  0  0  0  0  0  0  0  0  0  0
    2.1928   -0.5778    1.2915 H   0  0  0  0  0  0  0  0  0  0  0  0
    4.3343    0.1806   -0.6154 H   0  0  0  0  0  0  0  0  0  0  0  0
    4.4269    0.9058    2.3608 H   0  0  0  0  0  0  0  0  0  0  0  0
    5.7662    1.0898    1.2062 H   0  0  0  0  0  0  0  0  0  0  0  0
    4.2902    2.0597    1.0150 H   0  0  0  0  0  0  0  0  0  0  0  0
    5.8331   -1.8193    0.2177 N   0  0  0  0  0  0  0  0  0  0  0  0
    6.4304   -3.1203    0.4880 C   0  0  0  0  0  0  0  0  0  0  0  0
    6.2492   -1.2210   -0.4896 H   0  0  0  0  0  0  0  0  0  0  0  0
    6.6953   -3.2065    1.5470 H   0  0  0  0  0  0  0  0  0  0  0  0
    5.7315   -3.9238    0.2328 H   0  0  0  0  0  0  0  0  0  0  0  0
    7.3387   -3.2499   -0.1081 H   0  0  0  0  0  0  0  0  0  0  0  0
  1  2  2  0  0  0  0
  1  3  1  0  0  0  0
  1  7  1  0  0  0  0
  3  4  1  0  0  0  0
  3  5  1  0  0  0  0
  3  6  1  0  0  0  0
  7  8  1  0  0  0  0
  7 12  1  0  0  0  0
  8  9  1  0  0  0  0
  8 11  1  0  0  0  0
  8 13  1  0  0  0  0
  9 10  2  0  0  0  0
  9 17  1  0  0  0  0
 11 14  1  0  0  0  0
 11 15  1  0  0  0  0
 11 16  1  0  0  0  0
 17 18  1  0  0  0  0
 17 25  1  0  0  0  0
 18 19  1  0  0  0  0
 18 21  1  0  0  0  0
 18 26  1  0  0  0  0
 19 20  2  0  0  0  0
 19 29  1  0  0  0  0
 21 22  1  0  0  0  0
 21 27  1  0  0  0  0
 21 28  1  0  0  0  0
 22 23  1  0  0  0  0
 22 24  2  0  0  0  0
 29 30  1  0  0  0  0
 29 34  1  0  0  0  0
 30 31  1  0  0  0  0
 30 33  1  0  0  0  0
 30 35  1  0  0  0  0
 31 32  2  0  0  0  0
 31 39  1  0  0  0  0
 33 36  1  0  0  0  0
 33 37  1  0  0  0  0
 33 38  1  0  0  0  0
 39 40  1  0  0  0  0
 39 41  1  0  0  0  0
 40 42  1  0  0  0  0
 40 43  1  0  0  0  0
 40 44  1  0  0  0  0
M  CHG  1  23  -1
M  END
$$$$

  -OEChem-05262215553D

 44 43  0     1  0  0  0  0  0999 V2000
   -4.7625    0.1004   -3.6291 C   0  0  0  0  0  0  0  0  0  0  0  0
   -4.9393   -1.0855   -3.8679 O   0  0  0  0  0  0  0  0  0  0  0  0
   -5.9302    1.0677   -3.6918 C   0  0  0  0  0  0  0  0  0  0  0  0
   -5.7364    1.8394   -4.4407 H   0  0  0  0  0  0  0  0  0  0  0  0
   -6.8482    0.5370   -3.9587 H   0  0  0  0  0  0  0  0  0  0  0  0
   -6.0677    1.5427   -2.7170 H   0  0  0  0  0  0  0  0  0  0  0  0
   -3.5084    0.5775   -3.3182 N   0  0  0  0  0  0  0  0  0  0  0  0
   -2.3607   -0.2625   -2.9586 C   0  0  2  0  0  0  0  0  0  0  0  0
   -1.3499    0.5403   -2.1124 C   0  0  0  0  0  0  0  0  0  0  0  0
   -1.3471    1.7662   -2.1857 O   0  0  0  0  0  0  0  0  0  0  0  0
   -1.6859   -0.7799   -4.2335 C   0  0  0  0  0  0  0  0  0  0  0  0
   -3.4427    1.5525   -3.0238 H   0  0  0  0  0  0  0  0  0  0  0  0
   -2.7061   -1.1079   -2.3535 H   0  0  0  0  0  0  0  0  0  0  0  0
   -1.3416    0.0583   -4.8478 H   0  0  0  0  0  0  0  0  0  0  0  0
   -0.8246   -1.4063   -3.9828 H   0  0  0  0  0  0  0  0  0  0  0  0
   -2.3876   -1.3790   -4.8215 H   0  0  0  0  0  0  0  0  0  0  0  0
   -0.4223   -0.1255   -1.3323 N   0  0  0  0  0  0  0  0  0  0  0  0
    0.1856    0.5053   -0.1515 C   0  0  2  0  0  0  0  0  0  0  0  0
    1.7251    0.5995   -0.2969 C   0  0  0  0  0  0  0  0  0  0  0  0
    2.2404    1.3949   -1.0744 O   0  0  0  0  0  0  0  0  0  0  0  0
   -0.2020   -0.3878    1.0498 C   0  0  0  0  0  0  0  0  0  0  0  0
   -1.6854   -0.3476    1.4020 C   0  0  0  0  0  0  0  0  0  0  0  0
   -2.3480    0.6879    1.1615 O   0  5  0  0  0  0  0  0  0  0  0  0
   -2.1646   -1.4128    1.8561 O   0  0  0  0  0  0  0  0  0  0  0  0
   -0.5875   -1.1236   -1.2584 H   0  0  0  0  0  0  0  0  0  0  0  0
   -0.1951    1.5211    0.0112 H   0  0  0  0  0  0  0  0  0  0  0  0
    0.3380   -0.0454    1.9364 H   0  0  0  0  0  0  0  0  0  0  0  0
    0.0888   -1.4244    0.8555 H   0  0  0  0  0  0  0  0  0  0  0  0
    2.5678   -0.2494    0.4026 N   0  0  0  0  0  0  0  0  0  0  0  0
    4.0211   -0.3430    0.2115 C   0  0  2  0  0  0  0  0  0  0  0  0
    4.5119   -1.8042    0.1541 C   0  0  0  0  0  0  0  0  0  0  0  0
    3.8976   -2.6953    0.7298 O   0  0  0  0  0  0  0  0  0  0  0  0
    4.6971    0.4042    1.3632 C   0  0  0  0  0  0  0  0  0  0  0  0
    2.1185   -0.9816    0.9511 H   0  0  0  0  0  0  0  0  0  0  0  0
    4.3082    0.1287   -0.7337 H   0  0  0  0  0  0  0  0  0  0  0  0
    4.4314   -0.0518    2.3223 H   0  0  0  0  0  0  0  0  0  0  0  0
    5.7852    0.3758    1.2520 H   0  0  0  0  0  0  0  0  0  0  0  0
    4.3763    1.4509    1.3729 H   0  0  0  0  0  0  0  0  0  0  0  0
    5.6709   -2.1181   -0.5334 N   0  0  0  0  0  0  0  0  0  0  0  0
    6.1830   -3.4760   -0.6608 C   0  0  0  0  0  0  0  0  0  0  0  0
    6.1272   -1.3684   -1.0444 H   0  0  0  0  0  0  0  0  0  0  0  0
    6.4151   -3.8919    0.3253 H   0  0  0  0  0  0  0  0  0  0  0  0
    5.4448   -4.1193   -1.1514 H   0  0  0  0  0  0  0  0  0  0  0  0
    7.0978   -3.4789   -1.2610 H   0  0  0  0  0  0  0  0  0  0  0  0
  1  2  2  0  0  0  0
  1  3  1  0  0  0  0
  1  7  1  0  0  0  0
  3  4  1  0  0  0  0
  3  5  1  0  0  0  0
  3  6  1  0  0  0  0
  7  8  1  0  0  0  0
  7 12  1  0  0  0  0
  8  9  1  0  0  0  0
  8 11  1  0  0  0  0
  8 13  1  0  0  0  0
  9 10  2  0  0  0  0
  9 17  1  0  0  0  0
 11 14  1  0  0  0  0
 11 15  1  0  0  0  0
 11 16  1  0  0  0  0
 17 18  1  0  0  0  0
 17 25  1  0  0  0  0
 18 19  1  0  0  0  0
 18 21  1  0  0  0  0
 18 26  1  0  0  0  0
 19 20  2  0  0  0  0
 19 29  1  0  0  0  0
 21 22  1  0  0  0  0
 21 27  1  0  0  0  0
 21 28  1  0  0  0  0
 22 23  1  0  0  0  0
 22 24  2  0  0  0  0
 29 30  1  0  0  0  0
 29 34  1  0  0  0  0
 30 31  1  0  0  0  0
 30 33  1  0  0  0  0
 30 35  1  0  0  0  0
 31 32  2  0  0  0  0
 31 39  1  0  0  0  0
 33 36  1  0  0  0  0
 33 37  1  0  0  0  0
 33 38  1  0  0  0  0
 39 40  1  0  0  0  0
 39 41  1  0  0  0  0
 40 42  1  0  0  0  0
 40 43  1  0  0  0  0
 40 44  1  0  0  0  0
M  CHG  1  23  -1
M  END
$$$$

  -OEChem-05262215553D

 44 43  0     1  0  0  0  0  0999 V2000
   -4.7816    0.1048   -3.6159 C   0  0  0  0  0  0  0  0  0  0  0  0
   -4.9806   -1.0824   -3.8287 O   0  0  0  0  0  0  0  0  0  0  0  0
   -5.9277    1.0943   -3.7161 C   0  0  0  0  0  0  0  0  0  0  0  0
   -5.7156    1.8325   -4.4931 H   0  0  0  0  0  0  0  0  0  0  0  0
   -6.8563    0.5742   -3.9661 H   0  0  0  0  0  0  0  0  0  0  0  0
   -6.0576    1.6087   -2.7602 H   0  0  0  0  0  0  0  0  0  0  0  0
   -3.5203    0.5643   -3.3076 N   0  0  0  0  0  0  0  0  0  0  0  0
   -2.3868   -0.2889   -2.9341 C   0  0  2  0  0  0  0  0  0  0  0  0
   -1.3557    0.5162   -2.1149 C   0  0  0  0  0  0  0  0  0  0  0  0
   -1.3175    1.7379   -2.2322 O   0  0  0  0  0  0  0  0  0  0  0  0
   -1.7277   -0.8491   -4.1995 C   0  0  0  0  0  0  0  0  0  0  0  0
   -3.4352    1.5454   -3.0394 H   0  0  0  0  0  0  0  0  0  0  0  0
   -2.7447   -1.1132   -2.3072 H   0  0  0  0  0  0  0  0  0  0  0  0
   -1.3787   -0.0319   -4.8386 H   0  0  0  0  0  0  0  0  0  0  0  0
   -0.8715   -1.4783   -3.9383 H   0  0  0  0  0  0  0  0  0  0  0  0
   -2.4402   -1.4551   -4.7671 H   0  0  0  0  0  0  0  0  0  0  0  0
   -0.4412   -0.1456   -1.3167 N   0  0  0  0  0  0  0  0  0  0  0  0
    0.1766    0.5069   -0.1533 C   0  0  2  0  0  0  0  0  0  0  0  0
    1.7155    0.5684   -0.3009 C   0  0  0  0  0  0  0  0  0  0  0  0
    2.2632    1.5050   -0.8710 O   0  0  0  0  0  0  0  0  0  0  0  0
   -0.2132   -0.3478    1.0732 C   0  0  0  0  0  0  0  0  0  0  0  0
   -1.6941   -0.2825    1.4316 C   0  0  0  0  0  0  0  0  0  0  0  0
   -2.3480    0.7523    1.1658 O   0  5  0  0  0  0  0  0  0  0  0  0
   -2.1820   -1.3313    1.9141 O   0  0  0  0  0  0  0  0  0  0  0  0
   -0.6330   -1.1362   -1.2108 H   0  0  0  0  0  0  0  0  0  0  0  0
   -0.1888    1.5323   -0.0171 H   0  0  0  0  0  0  0  0  0  0  0  0
    0.3423    0.0110    1.9440 H   0  0  0  0  0  0  0  0  0  0  0  0
    0.0606   -1.3936    0.9045 H   0  0  0  0  0  0  0  0  0  0  0  0
    2.5154   -0.4589    0.1726 N   0  0  0  0  0  0  0  0  0  0  0  0
    3.9532   -0.5967   -0.0920 C   0  0  2  0  0  0  0  0  0  0  0  0
    4.3251   -2.0168   -0.5664 C   0  0  0  0  0  0  0  0  0  0  0  0
    3.6381   -2.9827   -0.2521 O   0  0  0  0  0  0  0  0  0  0  0  0
    4.7021   -0.2481    1.1956 C   0  0  0  0  0  0  0  0  0  0  0  0
    2.0282   -1.2757    0.5377 H   0  0  0  0  0  0  0  0  0  0  0  0
    4.2614    0.0975   -0.8803 H   0  0  0  0  0  0  0  0  0  0  0  0
    4.4196   -0.9343    2.0004 H   0  0  0  0  0  0  0  0  0  0  0  0
    5.7827   -0.3174    1.0404 H   0  0  0  0  0  0  0  0  0  0  0  0
    4.4611    0.7733    1.5073 H   0  0  0  0  0  0  0  0  0  0  0  0
    5.4579   -2.2167   -1.3351 N   0  0  0  0  0  0  0  0  0  0  0  0
    5.8588   -3.5208   -1.8464 C   0  0  0  0  0  0  0  0  0  0  0  0
    5.9738   -1.3923   -1.6277 H   0  0  0  0  0  0  0  0  0  0  0  0
    6.0524   -4.2133   -1.0204 H   0  0  0  0  0  0  0  0  0  0  0  0
    5.0732   -3.9413   -2.4827 H   0  0  0  0  0  0  0  0  0  0  0  0
    6.7725   -3.4279   -2.4412 H   0  0  0  0  0  0  0  0  0  0  0  0
  1  2  2  0  0  0  0
  1  3  1  0  0  0  0
  1  7  1  0  0  0  0
  3  4  1  0  0  0  0
  3  5  1  0  0  0  0
  3  6  1  0  0  0  0
  7  8  1  0  0  0  0
  7 12  1  0  0  0  0
  8  9  1  0  0  0  0
  8 11  1  0  0  0  0
  8 13  1  0  0  0  0
  9 10  2  0  0  0  0
  9 17  1  0  0  0  0
 11 14  1  0  0  0  0
 11 15  1  0  0  0  0
 11 16  1  0  0  0  0
 17 18  1  0  0  0  0
 17 25  1  0  0  0  0
 18 19  1  0  0  0  0
 18 21  1  0  0  0  0
 18 26  1  0  0  0  0
 19 20  2  0  0  0  0
 19 29  1  0  0  0  0
 21 22  1  0  0  0  0
 21 27  1  0  0  0  0
 21 28  1  0  0  0  0
 22 23  1  0  0  0  0
 22 24  2  0  0  0  0
 29 30  1  0  0  0  0
 29 34  1  0  0  0  0
 30 31  1  0  0  0  0
 30 33  1  0  0  0  0
 30 35  1  0  0  0  0
 31 32  2  0  0  0  0
 31 39  1  0  0  0  0
 33 36  1  0  0  0  0
 33 37  1  0  0  0  0
 33 38  1  0  0  0  0
 39 40  1  0  0  0  0
 39 41  1  0  0  0  0
 40 42  1  0  0  0  0
 40 43  1  0  0  0  0
 40 44  1  0  0  0  0
M  CHG  1  23  -1
M  END
$$$$

  -OEChem-05262215553D

 44 43  0     1  0  0  0  0  0999 V2000
   -4.8254    0.1613   -3.5313 C   0  0  0  0  0  0  0  0  0  0  0  0
   -5.1195   -1.0189   -3.6540 O   0  0  0  0  0  0  0  0  0  0  0  0
   -5.9054    1.2241   -3.6180 C   0  0  0  0  0  0  0  0  0  0  0  0
   -5.7138    1.8840   -4.4677 H   0  0  0  0  0  0  0  0  0  0  0  0
   -6.8860    0.7574   -3.7440 H   0  0  0  0  0  0  0  0  0  0  0  0
   -5.9140    1.8173   -2.6998 H   0  0  0  0  0  0  0  0  0  0  0  0
   -3.5179    0.5454   -3.3310 N   0  0  0  0  0  0  0  0  0  0  0  0
   -2.4372   -0.3607   -2.9273 C   0  0  2  0  0  0  0  0  0  0  0  0
   -1.3167    0.4297   -2.2190 C   0  0  0  0  0  0  0  0  0  0  0  0
   -1.1908    1.6307   -2.4430 O   0  0  0  0  0  0  0  0  0  0  0  0
   -1.8783   -1.0797   -4.1599 C   0  0  0  0  0  0  0  0  0  0  0  0
   -3.3534    1.5322   -3.1294 H   0  0  0  0  0  0  0  0  0  0  0  0
   -2.8292   -1.0965   -2.2161 H   0  0  0  0  0  0  0  0  0  0  0  0
   -1.4939   -0.3525   -4.8821 H   0  0  0  0  0  0  0  0  0  0  0  0
   -1.0638   -1.7519   -3.8736 H   0  0  0  0  0  0  0  0  0  0  0  0
   -2.6595   -1.6731   -4.6445 H   0  0  0  0  0  0  0  0  0  0  0  0
   -0.4287   -0.2212   -1.3831 N   0  0  0  0  0  0  0  0  0  0  0  0
    0.1744    0.4822   -0.2410 C   0  0  2  0  0  0  0  0  0  0  0  0
    1.7145    0.5199   -0.3583 C   0  0  0  0  0  0  0  0  0  0  0  0
    2.3069    1.5436   -0.6798 O   0  0  0  0  0  0  0  0  0  0  0  0
   -0.2381   -0.3170    1.0131 C   0  0  0  0  0  0  0  0  0  0  0  0
   -1.7257   -0.2276    1.3364 C   0  0  0  0  0  0  0  0  0  0  0  0
   -2.3667    0.7986    1.0108 O   0  5  0  0  0  0  0  0  0  0  0  0
   -2.2346   -1.2599    1.8325 O   0  0  0  0  0  0  0  0  0  0  0  0
   -0.6834   -1.1876   -1.2052 H   0  0  0  0  0  0  0  0  0  0  0  0
   -0.1849    1.5156   -0.1559 H   0  0  0  0  0  0  0  0  0  0  0  0
    0.3033    0.0783    1.8765 H   0  0  0  0  0  0  0  0  0  0  0  0
    0.0352   -1.3700    0.8978 H   0  0  0  0  0  0  0  0  0  0  0  0
    2.4620   -0.6172   -0.1012 N   0  0  0  0  0  0  0  0  0  0  0  0
    3.8933   -0.7625   -0.3945 C   0  0  2  0  0  0  0  0  0  0  0  0
    4.1825   -2.0084   -1.2570 C   0  0  0  0  0  0  0  0  0  0  0  0
    3.4524   -2.9923   -1.1991 O   0  0  0  0  0  0  0  0  0  0  0  0
    4.6395   -0.8458    0.9384 C   0  0  0  0  0  0  0  0  0  0  0  0
    1.9310   -1.4726    0.0483 H   0  0  0  0  0  0  0  0  0  0  0  0
    4.2594    0.1075   -0.9489 H   0  0  0  0  0  0  0  0  0  0  0  0
    4.3027   -1.7153    1.5120 H   0  0  0  0  0  0  0  0  0  0  0  0
    5.7167   -0.9341    0.7691 H   0  0  0  0  0  0  0  0  0  0  0  0
    4.4544    0.0562    1.5305 H   0  0  0  0  0  0  0  0  0  0  0  0
    5.2857   -2.0336   -2.0916 N   0  0  0  0  0  0  0  0  0  0  0  0
    5.5857   -3.1445   -2.9852 C   0  0  0  0  0  0  0  0  0  0  0  0
    5.8195   -1.1741   -2.1801 H   0  0  0  0  0  0  0  0  0  0  0  0
    5.6915   -4.0750   -2.4179 H   0  0  0  0  0  0  0  0  0  0  0  0
    4.7861   -3.2689   -3.7229 H   0  0  0  0  0  0  0  0  0  0  0  0
    6.5233   -2.9582   -3.5174 H   0  0  0  0  0  0  0  0  0  0  0  0
  1  2  2  0  0  0  0
  1  3  1  0  0  0  0
  1  7  1  0  0  0  0
  3  4  1  0  0  0  0
  3  5  1  0  0  0  0
  3  6  1  0  0  0  0
  7  8  1  0  0  0  0
  7 12  1  0  0  0  0
  8  9  1  0  0  0  0
  8 11  1  0  0  0  0
  8 13  1  0  0  0  0
  9 10  2  0  0  0  0
  9 17  1  0  0  0  0
 11 14  1  0  0  0  0
 11 15  1  0  0  0  0
 11 16  1  0  0  0  0
 17 18  1  0  0  0  0
 17 25  1  0  0  0  0
 18 19  1  0  0  0  0
 18 21  1  0  0  0  0
 18 26  1  0  0  0  0
 19 20  2  0  0  0  0
 19 29  1  0  0  0  0
 21 22  1  0  0  0  0
 21 27  1  0  0  0  0
 21 28  1  0  0  0  0
 22 23  1  0  0  0  0
 22 24  2  0  0  0  0
 29 30  1  0  0  0  0
 29 34  1  0  0  0  0
 30 31  1  0  0  0  0
 30 33  1  0  0  0  0
 30 35  1  0  0  0  0
 31 32  2  0  0  0  0
 31 39  1  0  0  0  0
 33 36  1  0  0  0  0
 33 37  1  0  0  0  0
 33 38  1  0  0  0  0
 39 40  1  0  0  0  0
 39 41  1  0  0  0  0
 40 42  1  0  0  0  0
 40 43  1  0  0  0  0
 40 44  1  0  0  0  0
M  CHG  1  23  -1
M  END
$$$$

  -OEChem-05262215553D

 44 43  0     1  0  0  0  0  0999 V2000
   -4.8490    0.1650   -3.5628 C   0  0  0  0  0  0  0  0  0  0  0  0
   -5.1420   -1.0162   -3.6763 O   0  0  0  0  0  0  0  0  0  0  0  0
   -5.9203    1.2287   -3.7222 C   0  0  0  0  0  0  0  0  0  0  0  0
   -5.6676    1.8917   -4.5531 H   0  0  0  0  0  0  0  0  0  0  0  0
   -6.8893    0.7635   -3.9225 H   0  0  0  0  0  0  0  0  0  0  0  0
   -5.9953    1.8185   -2.8049 H   0  0  0  0  0  0  0  0  0  0  0  0
   -3.5499    0.5491   -3.3124 N   0  0  0  0  0  0  0  0  0  0  0  0
   -2.4784   -0.3553   -2.8802 C   0  0  2  0  0  0  0  0  0  0  0  0
   -1.3685    0.4345   -2.1553 C   0  0  0  0  0  0  0  0  0  0  0  0
   -1.2373    1.6355   -2.3764 O   0  0  0  0  0  0  0  0  0  0  0  0
   -1.8955   -1.0823   -4.0976 C   0  0  0  0  0  0  0  0  0  0  0  0
   -3.3860    1.5394   -3.1291 H   0  0  0  0  0  0  0  0  0  0  0  0
   -2.8849   -1.0866   -2.1728 H   0  0  0  0  0  0  0  0  0  0  0  0
   -1.4869   -0.3611   -4.8124 H   0  0  0  0  0  0  0  0  0  0  0  0
   -1.0944   -1.7610   -3.7897 H   0  0  0  0  0  0  0  0  0  0  0  0
   -2.6695   -1.6701   -4.5998 H   0  0  0  0  0  0  0  0  0  0  0  0
   -0.4702   -0.2237   -1.3366 N   0  0  0  0  0  0  0  0  0  0  0  0
    0.1552    0.4724   -0.2017 C   0  0  2  0  0  0  0  0  0  0  0  0
    1.6901    0.4976   -0.3559 C   0  0  0  0  0  0  0  0  0  0  0  0
    2.3148    1.5510   -0.4093 O   0  0  0  0  0  0  0  0  0  0  0  0
   -0.2161   -0.3388    1.0554 C   0  0  0  0  0  0  0  0  0  0  0  0
   -1.6960   -0.2626    1.4150 C   0  0  0  0  0  0  0  0  0  0  0  0
   -2.3514    0.7614    1.1117 O   0  5  0  0  0  0  0  0  0  0  0  0
   -2.1885   -1.3060    1.9046 O   0  0  0  0  0  0  0  0  0  0  0  0
   -0.7365   -1.1861   -1.1521 H   0  0  0  0  0  0  0  0  0  0  0  0
   -0.2007    1.5052   -0.0997 H   0  0  0  0  0  0  0  0  0  0  0  0
    0.3441    0.0569    1.9066 H   0  0  0  0  0  0  0  0  0  0  0  0
    0.0675   -1.3874    0.9266 H   0  0  0  0  0  0  0  0  0  0  0  0
    2.3927   -0.6927   -0.4286 N   0  0  0  0  0  0  0  0  0  0  0  0
    3.7945   -0.8039   -0.8460 C   0  0  2  0  0  0  0  0  0  0  0  0
    3.9766   -1.8629   -1.9530 C   0  0  0  0  0  0  0  0  0  0  0  0
    3.1956   -2.8039   -2.0525 O   0  0  0  0  0  0  0  0  0  0  0  0
    4.6250   -1.1603    0.3879 C   0  0  0  0  0  0  0  0  0  0  0  0
    1.8256   -1.5347   -0.5017 H   0  0  0  0  0  0  0  0  0  0  0  0
    4.1480    0.1508   -1.2488 H   0  0  0  0  0  0  0  0  0  0  0  0
    4.2987   -2.1183    0.8056 H   0  0  0  0  0  0  0  0  0  0  0  0
    5.6852   -1.2343    0.1285 H   0  0  0  0  0  0  0  0  0  0  0  0
    4.5082   -0.3876    1.1543 H   0  0  0  0  0  0  0  0  0  0  0  0
    5.0330   -1.7642   -2.8408 N   0  0  0  0  0  0  0  0  0  0  0  0
    5.2250   -2.6801   -3.9575 C   0  0  0  0  0  0  0  0  0  0  0  0
    5.6120   -0.9319   -2.7817 H   0  0  0  0  0  0  0  0  0  0  0  0
    5.3187   -3.7100   -3.5976 H   0  0  0  0  0  0  0  0  0  0  0  0
    4.3777   -2.6232   -4.6488 H   0  0  0  0  0  0  0  0  0  0  0  0
    6.1368   -2.4219   -4.5043 H   0  0  0  0  0  0  0  0  0  0  0  0
  1  2  2  0  0  0  0
  1  3  1  0  0  0  0
  1  7  1  0  0  0  0
  3  4  1  0  0  0  0
  3  5  1  0  0  0  0
  3  6  1  0  0  0  0
  7  8  1  0  0  0  0
  7 12  1  0  0  0  0
  8  9  1  0  0  0  0
  8 11  1  0  0  0  0
  8 13  1  0  0  0  0
  9 10  2  0  0  0  0
  9 17  1  0  0  0  0
 11 14  1  0  0  0  0
 11 15  1  0  0  0  0
 11 16  1  0  0  0  0
 17 18  1  0  0  0  0
 17 25  1  0  0  0  0
 18 19  1  0  0  0  0
 18 21  1  0  0  0  0
 18 26  1  0  0  0  0
 19 20  2  0  0  0  0
 19 29  1  0  0  0  0
 21 22  1  0  0  0  0
 21 27  1  0  0  0  0
 21 28  1  0  0  0  0
 22 23  1  0  0  0  0
 22 24  2  0  0  0  0
 29 30  1  0  0  0  0
 29 34  1  0  0  0  0
 30 31  1  0  0  0  0
 30 33  1  0  0  0  0
 30 35  1  0  0  0  0
 31 32  2  0  0  0  0
 31 39  1  0  0  0  0
 33 36  1  0  0  0  0
 33 37  1  0  0  0  0
 33 38  1  0  0  0  0
 39 40  1  0  0  0  0
 39 41  1  0  0  0  0
 40 42  1  0  0  0  0
 40 43  1  0  0  0  0
 40 44  1  0  0  0  0
M  CHG  1  23  -1
M  END
$$$$

  -OEChem-05262215553D

 44 43  0     1  0  0  0  0  0999 V2000
   -4.9590    0.2309   -3.5187 C   0  0  0  0  0  0  0  0  0  0  0  0
   -5.3276   -0.9340   -3.5400 O   0  0  0  0  0  0  0  0  0  0  0  0
   -5.9644    1.3457   -3.7432 C   0  0  0  0  0  0  0  0  0  0  0  0
   -5.6768    1.9384   -4.6147 H   0  0  0  0  0  0  0  0  0  0  0  0
   -6.9605    0.9279   -3.9120 H   0  0  0  0  0  0  0  0  0  0  0  0
   -5.9994    1.9960   -2.8653 H   0  0  0  0  0  0  0  0  0  0  0  0
   -3.6345    0.5486   -3.3125 N   0  0  0  0  0  0  0  0  0  0  0  0
   -2.6166   -0.3857   -2.8171 C   0  0  2  0  0  0  0  0  0  0  0  0
   -1.4471    0.3887   -2.1712 C   0  0  0  0  0  0  0  0  0  0  0  0
   -1.2812    1.5754   -2.4428 O   0  0  0  0  0  0  0  0  0  0  0  0
   -2.1015   -1.2469   -3.9765 C   0  0  0  0  0  0  0  0  0  0  0  0
   -3.4074    1.5373   -3.2038 H   0  0  0  0  0  0  0  0  0  0  0  0
   -3.0581   -1.0275   -2.0463 H   0  0  0  0  0  0  0  0  0  0  0  0
   -1.6606   -0.6147   -4.7536 H   0  0  0  0  0  0  0  0  0  0  0  0
   -1.3395   -1.9481   -3.6237 H   0  0  0  0  0  0  0  0  0  0  0  0
   -2.9191   -1.8236   -4.4192 H   0  0  0  0  0  0  0  0  0  0  0  0
   -0.5278   -0.2686   -1.3752 N   0  0  0  0  0  0  0  0  0  0  0  0
    0.1413    0.4469   -0.2761 C   0  0  2  0  0  0  0  0  0  0  0  0
    1.6714    0.4652   -0.4696 C   0  0  0  0  0  0  0  0  0  0  0  0
    2.3344    1.4729   -0.2502 O   0  0  0  0  0  0  0  0  0  0  0  0
   -0.1820   -0.3489    1.0020 C   0  0  0  0  0  0  0  0  0  0  0  0
   -1.6479   -0.2683    1.4124 C   0  0  0  0  0  0  0  0  0  0  0  0
   -2.3136    0.7523    1.1197 O   0  5  0  0  0  0  0  0  0  0  0  0
   -2.1259   -1.3105    1.9181 O   0  0  0  0  0  0  0  0  0  0  0  0
   -0.8227   -1.2125   -1.1426 H   0  0  0  0  0  0  0  0  0  0  0  0
   -0.2105    1.4815   -0.1771 H   0  0  0  0  0  0  0  0  0  0  0  0
    0.4087    0.0558    1.8284 H   0  0  0  0  0  0  0  0  0  0  0  0
    0.1012   -1.3977    0.8735 H   0  0  0  0  0  0  0  0  0  0  0  0
    2.3296   -0.6928   -0.8451 N   0  0  0  0  0  0  0  0  0  0  0  0
    3.7314   -0.7470   -1.2734 C   0  0  2  0  0  0  0  0  0  0  0  0
    3.8928   -1.5283   -2.5934 C   0  0  0  0  0  0  0  0  0  0  0  0
    3.0957   -2.4093   -2.9001 O   0  0  0  0  0  0  0  0  0  0  0  0
    4.5450   -1.4011   -0.1552 C   0  0  0  0  0  0  0  0  0  0  0  0
    1.7307   -1.4597   -1.1428 H   0  0  0  0  0  0  0  0  0  0  0  0
    4.1133    0.2642   -1.4464 H   0  0  0  0  0  0  0  0  0  0  0  0
    4.1853   -2.4172    0.0363 H   0  0  0  0  0  0  0  0  0  0  0  0
    5.6027   -1.4501   -0.4304 H   0  0  0  0  0  0  0  0  0  0  0  0
    4.4528   -0.8185    0.7670 H   0  0  0  0  0  0  0  0  0  0  0  0
    4.9484   -1.2442   -3.4410 N   0  0  0  0  0  0  0  0  0  0  0  0
    5.1169   -1.8726   -4.7442 C   0  0  0  0  0  0  0  0  0  0  0  0
    5.5383   -0.4544   -3.1963 H   0  0  0  0  0  0  0  0  0  0  0  0
    5.2200   -2.9573   -4.6364 H   0  0  0  0  0  0  0  0  0  0  0  0
    4.2547   -1.6612   -5.3853 H   0  0  0  0  0  0  0  0  0  0  0  0
    6.0158   -1.4868   -5.2342 H   0  0  0  0  0  0  0  0  0  0  0  0
  1  2  2  0  0  0  0
  1  3  1  0  0  0  0
  1  7  1  0  0  0  0
  3  4  1  0  0  0  0
  3  5  1  0  0  0  0
  3  6  1  0  0  0  0
  7  8  1  0  0  0  0
  7 12  1  0  0  0  0
  8  9  1  0  0  0  0
  8 11  1  0  0  0  0
  8 13  1  0  0  0  0
  9 10  2  0  0  0  0
  9 17  1  0  0  0  0
 11 14  1  0  0  0  0
 11 15  1  0  0  0  0
 11 16  1  0  0  0  0
 17 18  1  0  0  0  0
 17 25  1  0  0  0  0
 18 19  1  0  0  0  0
 18 21  1  0  0  0  0
 18 26  1  0  0  0  0
 19 20  2  0  0  0  0
 19 29  1  0  0  0  0
 21 22  1  0  0  0  0
 21 27  1  0  0  0  0
 21 28  1  0  0  0  0
 22 23  1  0  0  0  0
 22 24  2  0  0  0  0
 29 30  1  0  0  0  0
 29 34  1  0  0  0  0
 30 31  1  0  0  0  0
 30 33  1  0  0  0  0
 30 35  1  0  0  0  0
 31 32  2  0  0  0  0
 31 39  1  0  0  0  0
 33 36  1  0  0  0  0
 33 37  1  0  0  0  0
 33 38  1  0  0  0  0
 39 40  1  0  0  0  0
 39 41  1  0  0  0  0
 40 42  1  0  0  0  0
 40 43  1  0  0  0  0
 40 44  1  0  0  0  0
M  CHG  1  23  -1
M  END
$$$$

  -OEChem-05262215553D

 44 43  0     1  0  0  0  0  0999 V2000
   -5.0779    0.2513   -3.4526 C   0  0  0  0  0  0  0  0  0  0  0  0
   -5.4638   -0.9080   -3.4444 O   0  0  0  0  0  0  0  0  0  0  0  0
   -6.0693    1.3741   -3.6987 C   0  0  0  0  0  0  0  0  0  0  0  0
   -5.7700    1.9502   -4.5775 H   0  0  0  0  0  0  0  0  0  0  0  0
   -7.0695    0.9658   -3.8668 H   0  0  0  0  0  0  0  0  0  0  0  0
   -6.1008    2.0370   -2.8304 H   0  0  0  0  0  0  0  0  0  0  0  0
   -3.7480    0.5564   -3.2613 N   0  0  0  0  0  0  0  0  0  0  0  0
   -2.7338   -0.3812   -2.7635 C   0  0  2  0  0  0  0  0  0  0  0  0
   -1.5353    0.3873   -2.1656 C   0  0  0  0  0  0  0  0  0  0  0  0
   -1.3736    1.5741   -2.4402 O   0  0  0  0  0  0  0  0  0  0  0  0
   -2.2614   -1.2842   -3.9100 C   0  0  0  0  0  0  0  0  0  0  0  0
   -3.5065    1.5442   -3.1789 H   0  0  0  0  0  0  0  0  0  0  0  0
   -3.1676   -0.9933   -1.9643 H   0  0  0  0  0  0  0  0  0  0  0  0
   -1.8278   -0.6826   -4.7150 H   0  0  0  0  0  0  0  0  0  0  0  0
   -1.5046   -1.9904   -3.5557 H   0  0  0  0  0  0  0  0  0  0  0  0
   -3.0998   -1.8574   -4.3162 H   0  0  0  0  0  0  0  0  0  0  0  0
   -0.5798   -0.2745   -1.4173 N   0  0  0  0  0  0  0  0  0  0  0  0
    0.1167    0.4341   -0.3303 C   0  0  2  0  0  0  0  0  0  0  0  0
    1.6398    0.4826   -0.5732 C   0  0  0  0  0  0  0  0  0  0  0  0
    2.3370    1.3713   -0.0959 O   0  0  0  0  0  0  0  0  0  0  0  0
   -0.1499   -0.3928    0.9407 C   0  0  0  0  0  0  0  0  0  0  0  0
   -1.6033   -0.3442    1.3996 C   0  0  0  0  0  0  0  0  0  0  0  0
   -2.2934    0.6718    1.1488 O   0  5  0  0  0  0  0  0  0  0  0  0
   -2.0528   -1.4080    1.8868 O   0  0  0  0  0  0  0  0  0  0  0  0
   -0.8674   -1.2191   -1.1760 H   0  0  0  0  0  0  0  0  0  0  0  0
   -0.2478    1.4603   -0.1988 H   0  0  0  0  0  0  0  0  0  0  0  0
    0.4594    0.0073    1.7555 H   0  0  0  0  0  0  0  0  0  0  0  0
    0.1487   -1.4333    0.7821 H   0  0  0  0  0  0  0  0  0  0  0  0
    2.2571   -0.5376   -1.2752 N   0  0  0  0  0  0  0  0  0  0  0  0
    3.6576   -0.5166   -1.7107 C   0  0  2  0  0  0  0  0  0  0  0  0
    3.8164   -1.0232   -3.1591 C   0  0  0  0  0  0  0  0  0  0  0  0
    2.9880   -1.7826   -3.6515 O   0  0  0  0  0  0  0  0  0  0  0  0
    4.4689   -1.3845   -0.7466 C   0  0  0  0  0  0  0  0  0  0  0  0
    1.6295   -1.1644   -1.7749 H   0  0  0  0  0  0  0  0  0  0  0  0
    4.0431    0.5078   -1.6810 H   0  0  0  0  0  0  0  0  0  0  0  0
    4.1072   -2.4175   -0.7649 H   0  0  0  0  0  0  0  0  0  0  0  0
    5.5271   -1.3791   -1.0238 H   0  0  0  0  0  0  0  0  0  0  0  0
    4.3758   -1.0003    0.2739 H   0  0  0  0  0  0  0  0  0  0  0  0
    4.9090   -0.6333   -3.9127 N   0  0  0  0  0  0  0  0  0  0  0  0
    5.0952   -1.0134   -5.3067 C   0  0  0  0  0  0  0  0  0  0  0  0
    5.5401    0.0460   -3.4983 H   0  0  0  0  0  0  0  0  0  0  0  0
    5.1316   -2.1032   -5.4059 H   0  0  0  0  0  0  0  0  0  0  0  0
    4.2738   -0.6297   -5.9208 H   0  0  0  0  0  0  0  0  0  0  0  0
    6.0346   -0.6016   -5.6869 H   0  0  0  0  0  0  0  0  0  0  0  0
  1  2  2  0  0  0  0
  1  3  1  0  0  0  0
  1  7  1  0  0  0  0
  3  4  1  0  0  0  0
  3  5  1  0  0  0  0
  3  6  1  0  0  0  0
  7  8  1  0  0  0  0
  7 12  1  0  0  0  0
  8  9  1  0  0  0  0
  8 11  1  0  0  0  0
  8 13  1  0  0  0  0
  9 10  2  0  0  0  0
  9 17  1  0  0  0  0
 11 14  1  0  0  0  0
 11 15  1  0  0  0  0
 11 16  1  0  0  0  0
 17 18  1  0  0  0  0
 17 25  1  0  0  0  0
 18 19  1  0  0  0  0
 18 21  1  0  0  0  0
 18 26  1  0  0  0  0
 19 20  2  0  0  0  0
 19 29  1  0  0  0  0
 21 22  1  0  0  0  0
 21 27  1  0  0  0  0
 21 28  1  0  0  0  0
 22 23  1  0  0  0  0
 22 24  2  0  0  0  0
 29 30  1  0  0  0  0
 29 34  1  0  0  0  0
 30 31  1  0  0  0  0
 30 33  1  0  0  0  0
 30 35  1  0  0  0  0
 31 32  2  0  0  0  0
 31 39  1  0  0  0  0
 33 36  1  0  0  0  0
 33 37  1  0  0  0  0
 33 38  1  0  0  0  0
 39 40  1  0  0  0  0
 39 41  1  0  0  0  0
 40 42  1  0  0  0  0
 40 43  1  0  0  0  0
 40 44  1  0  0  0  0
M  CHG  1  23  -1
M  END
$$$$

  -OEChem-05262215553D

 44 43  0     1  0  0  0  0  0999 V2000
   -5.1466    0.2422   -3.3930 C   0  0  0  0  0  0  0  0  0  0  0  0
   -5.5239   -0.9198   -3.4018 O   0  0  0  0  0  0  0  0  0  0  0  0
   -6.1485    1.3624   -3.6048 C   0  0  0  0  0  0  0  0  0  0  0  0
   -5.8734    1.9480   -4.4853 H   0  0  0  0  0  0  0  0  0  0  0  0
   -7.1506    0.9505   -3.7522 H   0  0  0  0  0  0  0  0  0  0  0  0
   -6.1613    2.0176   -2.7300 H   0  0  0  0  0  0  0  0  0  0  0  0
   -3.8165    0.5545   -3.2160 N   0  0  0  0  0  0  0  0  0  0  0  0
   -2.7842   -0.3843   -2.7605 C   0  0  2  0  0  0  0  0  0  0  0  0
   -1.5804    0.3866   -2.1768 C   0  0  0  0  0  0  0  0  0  0  0  0
   -1.4335    1.5793   -2.4351 O   0  0  0  0  0  0  0  0  0  0  0  0
   -2.3287   -1.2578   -3.9362 C   0  0  0  0  0  0  0  0  0  0  0  0
   -3.5821    1.5423   -3.1150 H   0  0  0  0  0  0  0  0  0  0  0  0
   -3.1939   -1.0168   -1.9646 H   0  0  0  0  0  0  0  0  0  0  0  0
   -1.9236   -0.6335   -4.7390 H   0  0  0  0  0  0  0  0  0  0  0  0
   -1.5532   -1.9600   -3.6159 H   0  0  0  0  0  0  0  0  0  0  0  0
   -3.1686   -1.8349   -4.3341 H   0  0  0  0  0  0  0  0  0  0  0  0
   -0.5996   -0.2758   -1.4633 N   0  0  0  0  0  0  0  0  0  0  0  0
    0.0993    0.4226   -0.3705 C   0  0  2  0  0  0  0  0  0  0  0  0
    1.6187    0.5146   -0.6291 C   0  0  0  0  0  0  0  0  0  0  0  0
    2.3412    1.2470    0.0388 O   0  0  0  0  0  0  0  0  0  0  0  0
   -0.1418   -0.4470    0.8773 C   0  0  0  0  0  0  0  0  0  0  0  0
   -1.5925   -0.4348    1.3471 C   0  0  0  0  0  0  0  0  0  0  0  0
   -2.2992    0.5780    1.1308 O   0  5  0  0  0  0  0  0  0  0  0  0
   -2.0251   -1.5219    1.7964 O   0  0  0  0  0  0  0  0  0  0  0  0
   -0.8644   -1.2311   -1.2377 H   0  0  0  0  0  0  0  0  0  0  0  0
   -0.2849    1.4373   -0.2077 H   0  0  0  0  0  0  0  0  0  0  0  0
    0.4668   -0.0634    1.7005 H   0  0  0  0  0  0  0  0  0  0  0  0
    0.1729   -1.4768    0.6836 H   0  0  0  0  0  0  0  0  0  0  0  0
    2.2025   -0.2778   -1.6011 N   0  0  0  0  0  0  0  0  0  0  0  0
    3.5980   -0.1710   -2.0380 C   0  0  2  0  0  0  0  0  0  0  0  0
    3.7496   -0.4481   -3.5481 C   0  0  0  0  0  0  0  0  0  0  0  0
    2.9344   -1.1469   -4.1421 O   0  0  0  0  0  0  0  0  0  0  0  0
    4.4355   -1.1620   -1.2255 C   0  0  0  0  0  0  0  0  0  0  0  0
    1.5547   -0.7597   -2.2225 H   0  0  0  0  0  0  0  0  0  0  0  0
    3.9626    0.8448   -1.8539 H   0  0  0  0  0  0  0  0  0  0  0  0
    4.0881   -2.1860   -1.3965 H   0  0  0  0  0  0  0  0  0  0  0  0
    5.4895   -1.0980   -1.5114 H   0  0  0  0  0  0  0  0  0  0  0  0
    4.3521   -0.9402   -0.1568 H   0  0  0  0  0  0  0  0  0  0  0  0
    4.8153    0.0900   -4.2476 N   0  0  0  0  0  0  0  0  0  0  0  0
    4.9742   -0.0473   -5.6892 C   0  0  0  0  0  0  0  0  0  0  0  0
    5.4254    0.7272   -3.7445 H   0  0  0  0  0  0  0  0  0  0  0  0
    4.9970   -1.1044   -5.9743 H   0  0  0  0  0  0  0  0  0  0  0  0
    4.1460    0.4417   -6.2123 H   0  0  0  0  0  0  0  0  0  0  0  0
    5.9109    0.4174   -6.0115 H   0  0  0  0  0  0  0  0  0  0  0  0
  1  2  2  0  0  0  0
  1  3  1  0  0  0  0
  1  7  1  0  0  0  0
  3  4  1  0  0  0  0
  3  5  1  0  0  0  0
  3  6  1  0  0  0  0
  7  8  1  0  0  0  0
  7 12  1  0  0  0  0
  8  9  1  0  0  0  0
  8 11  1  0  0  0  0
  8 13  1  0  0  0  0
  9 10  2  0  0  0  0
  9 17  1  0  0  0  0
 11 14  1  0  0  0  0
 11 15  1  0  0  0  0
 11 16  1  0  0  0  0
 17 18  1  0  0  0  0
 17 25  1  0  0  0  0
 18 19  1  0  0  0  0
 18 21  1  0  0  0  0
 18 26  1  0  0  0  0
 19 20  2  0  0  0  0
 19 29  1  0  0  0  0
 21 22  1  0  0  0  0
 21 27  1  0  0  0  0
 21 28  1  0  0  0  0
 22 23  1  0  0  0  0
 22 24  2  0  0  0  0
 29 30  1  0  0  0  0
 29 34  1  0  0  0  0
 30 31  1  0  0  0  0
 30 33  1  0  0  0  0
 30 35  1  0  0  0  0
 31 32  2  0  0  0  0
 31 39  1  0  0  0  0
 33 36  1  0  0  0  0
 33 37  1  0  0  0  0
 33 38  1  0  0  0  0
 39 40  1  0  0  0  0
 39 41  1  0  0  0  0
 40 42  1  0  0  0  0
 40 43  1  0  0  0  0
 40 44  1  0  0  0  0
M  CHG  1  23  -1
M  END
$$$$

  -OEChem-05262215553D

 44 43  0     1  0  0  0  0  0999 V2000
   -5.1603    0.1811   -3.3945 C   0  0  0  0  0  0  0  0  0  0  0  0
   -5.5063   -0.9902   -3.4284 O   0  0  0  0  0  0  0  0  0  0  0  0
   -6.1887    1.2776   -3.6018 C   0  0  0  0  0  0  0  0  0  0  0  0
   -5.9141    1.8883   -4.4652 H   0  0  0  0  0  0  0  0  0  0  0  0
   -7.1766    0.8423   -3.7761 H   0  0  0  0  0  0  0  0  0  0  0  0
   -6.2347    1.9139   -2.7144 H   0  0  0  0  0  0  0  0  0  0  0  0
   -3.8419    0.5260   -3.1937 N   0  0  0  0  0  0  0  0  0  0  0  0
   -2.7872   -0.3939   -2.7515 C   0  0  2  0  0  0  0  0  0  0  0  0
   -1.6040    0.3967   -2.1522 C   0  0  0  0  0  0  0  0  0  0  0  0
   -1.4874    1.5978   -2.3857 O   0  0  0  0  0  0  0  0  0  0  0  0
   -2.3067   -1.2369   -3.9398 C   0  0  0  0  0  0  0  0  0  0  0  0
   -3.6340    1.5177   -3.0761 H   0  0  0  0  0  0  0  0  0  0  0  0
   -3.1819   -1.0500   -1.9669 H   0  0  0  0  0  0  0  0  0  0  0  0
   -1.9133   -0.5905   -4.7306 H   0  0  0  0  0  0  0  0  0  0  0  0
   -1.5166   -1.9260   -3.6270 H   0  0  0  0  0  0  0  0  0  0  0  0
   -3.1312   -1.8269   -4.3506 H   0  0  0  0  0  0  0  0  0  0  0  0
   -0.5979   -0.2534   -1.4630 N   0  0  0  0  0  0  0  0  0  0  0  0
    0.0964    0.4392   -0.3631 C   0  0  2  0  0  0  0  0  0  0  0  0
    1.6108    0.5736   -0.6410 C   0  0  0  0  0  0  0  0  0  0  0  0
    2.3707    1.1151    0.1555 O   0  0  0  0  0  0  0  0  0  0  0  0
   -0.1212   -0.4609    0.8683 C   0  0  0  0  0  0  0  0  0  0  0  0
   -1.5690   -0.4853    1.3468 C   0  0  0  0  0  0  0  0  0  0  0  0
   -2.2946    0.5193    1.1553 O   0  5  0  0  0  0  0  0  0  0  0  0
   -1.9800   -1.5886    1.7770 O   0  0  0  0  0  0  0  0  0  0  0  0
   -0.8259   -1.2233   -1.2611 H   0  0  0  0  0  0  0  0  0  0  0  0
   -0.3087    1.4412   -0.1765 H   0  0  0  0  0  0  0  0  0  0  0  0
    0.4836   -0.0831    1.6968 H   0  0  0  0  0  0  0  0  0  0  0  0
    0.2126   -1.4800    0.6519 H   0  0  0  0  0  0  0  0  0  0  0  0
    2.1426    0.0681   -1.8133 N   0  0  0  0  0  0  0  0  0  0  0  0
    3.5269    0.2544   -2.2584 C   0  0  2  0  0  0  0  0  0  0  0  0
    3.6384    0.2651   -3.7971 C   0  0  0  0  0  0  0  0  0  0  0  0
    2.8181   -0.3292   -4.4893 O   0  0  0  0  0  0  0  0  0  0  0  0
    4.3828   -0.8715   -1.6713 C   0  0  0  0  0  0  0  0  0  0  0  0
    1.4648   -0.2550   -2.5029 H   0  0  0  0  0  0  0  0  0  0  0  0
    3.8985    1.2179   -1.8944 H   0  0  0  0  0  0  0  0  0  0  0  0
    4.0228   -1.8451   -2.0188 H   0  0  0  0  0  0  0  0  0  0  0  0
    5.4276   -0.7566   -1.9739 H   0  0  0  0  0  0  0  0  0  0  0  0
    4.3356   -0.8523   -0.5778 H   0  0  0  0  0  0  0  0  0  0  0  0
    4.6790    0.9380   -4.4125 N   0  0  0  0  0  0  0  0  0  0  0  0
    4.8175    1.0417   -5.8591 C   0  0  0  0  0  0  0  0  0  0  0  0
    5.3064    1.4704   -3.8172 H   0  0  0  0  0  0  0  0  0  0  0  0
    4.9452    0.0491   -6.3033 H   0  0  0  0  0  0  0  0  0  0  0  0
    3.9306    1.5127   -6.2960 H   0  0  0  0  0  0  0  0  0  0  0  0
    5.6918    1.6488   -6.1118 H   0  0  0  0  0  0  0  0  0  0  0  0
  1  2  2  0  0  0  0
  1  3  1  0  0  0  0
  1  7  1  0  0  0  0
  3  4  1  0  0  0  0
  3  5  1  0  0  0  0
  3  6  1  0  0  0  0
  7  8  1  0  0  0  0
  7 12  1  0  0  0  0
  8  9  1  0  0  0  0
  8 11  1  0  0  0  0
  8 13  1  0  0  0  0
  9 10  2  0  0  0  0
  9 17  1  0  0  0  0
 11 14  1  0  0  0  0
 11 15  1  0  0  0  0
 11 16  1  0  0  0  0
 17 18  1  0  0  0  0
 17 25  1  0  0  0  0
 18 19  1  0  0  0  0
 18 21  1  0  0  0  0
 18 26  1  0  0  0  0
 19 20  2  0  0  0  0
 19 29  1  0  0  0  0
 21 22  1  0  0  0  0
 21 27  1  0  0  0  0
 21 28  1  0  0  0  0
 22 23  1  0  0  0  0
 22 24  2  0  0  0  0
 29 30  1  0  0  0  0
 29 34  1  0  0  0  0
 30 31  1  0  0  0  0
 30 33  1  0  0  0  0
 30 35  1  0  0  0  0
 31 32  2  0  0  0  0
 31 39  1  0  0  0  0
 33 36  1  0  0  0  0
 33 37  1  0  0  0  0
 33 38  1  0  0  0  0
 39 40  1  0  0  0  0
 39 41  1  0  0  0  0
 40 42  1  0  0  0  0
 40 43  1  0  0  0  0
 40 44  1  0  0  0  0
M  CHG  1  23  -1
M  END
$$$$

  -OEChem-05262215553D

 44 43  0     1  0  0  0  0  0999 V2000
   -5.1626    0.1124   -3.3873 C   0  0  0  0  0  0  0  0  0  0  0  0
   -5.4928   -1.0637   -3.4114 O   0  0  0  0  0  0  0  0  0  0  0  0
   -6.2074    1.1948   -3.5897 C   0  0  0  0  0  0  0  0  0  0  0  0
   -5.9738    1.7756   -4.4853 H   0  0  0  0  0  0  0  0  0  0  0  0
   -7.1984    0.7476   -3.7053 H   0  0  0  0  0  0  0  0  0  0  0  0
   -6.2211    1.8626   -2.7245 H   0  0  0  0  0  0  0  0  0  0  0  0
   -3.8471    0.4766   -3.2026 N   0  0  0  0  0  0  0  0  0  0  0  0
   -2.7790   -0.4226   -2.7493 C   0  0  2  0  0  0  0  0  0  0  0  0
   -1.6121    0.3939   -2.1525 C   0  0  0  0  0  0  0  0  0  0  0  0
   -1.5259    1.5990   -2.3797 O   0  0  0  0  0  0  0  0  0  0  0  0
   -2.2816   -1.2663   -3.9300 C   0  0  0  0  0  0  0  0  0  0  0  0
   -3.6544    1.4722   -3.0921 H   0  0  0  0  0  0  0  0  0  0  0  0
   -3.1654   -1.0785   -1.9603 H   0  0  0  0  0  0  0  0  0  0  0  0
   -1.8904   -0.6191   -4.7213 H   0  0  0  0  0  0  0  0  0  0  0  0
   -1.4860   -1.9451   -3.6087 H   0  0  0  0  0  0  0  0  0  0  0  0
   -3.0969   -1.8675   -4.3432 H   0  0  0  0  0  0  0  0  0  0  0  0
   -0.5780   -0.2304   -1.4817 N   0  0  0  0  0  0  0  0  0  0  0  0
    0.0895    0.4695   -0.3705 C   0  0  2  0  0  0  0  0  0  0  0  0
    1.5956    0.6691   -0.6583 C   0  0  0  0  0  0  0  0  0  0  0  0
    2.3944    0.9861    0.2177 O   0  0  0  0  0  0  0  0  0  0  0  0
   -0.1038   -0.4579    0.8465 C   0  0  0  0  0  0  0  0  0  0  0  0
   -1.5526   -0.5360    1.3160 C   0  0  0  0  0  0  0  0  0  0  0  0
   -2.3079    0.4489    1.1356 O   0  5  0  0  0  0  0  0  0  0  0  0
   -1.9333   -1.6600    1.7197 O   0  0  0  0  0  0  0  0  0  0  0  0
   -0.7665   -1.2119   -1.2958 H   0  0  0  0  0  0  0  0  0  0  0  0
   -0.3520    1.4531   -0.1693 H   0  0  0  0  0  0  0  0  0  0  0  0
    0.4819   -0.0746    1.6861 H   0  0  0  0  0  0  0  0  0  0  0  0
    0.2652   -1.4618    0.6167 H   0  0  0  0  0  0  0  0  0  0  0  0
    2.0753    0.4970   -1.9440 N   0  0  0  0  0  0  0  0  0  0  0  0
    3.4620    0.7208   -2.3644 C   0  0  2  0  0  0  0  0  0  0  0  0
    3.5713    1.0625   -3.8646 C   0  0  0  0  0  0  0  0  0  0  0  0
    2.7473    0.6382   -4.6676 O   0  0  0  0  0  0  0  0  0  0  0  0
    4.2760   -0.5396   -2.0549 C   0  0  0  0  0  0  0  0  0  0  0  0
    1.3729    0.3451   -2.6679 H   0  0  0  0  0  0  0  0  0  0  0  0
    3.8753    1.5650   -1.8029 H   0  0  0  0  0  0  0  0  0  0  0  0
    3.8727   -1.3977   -2.6019 H   0  0  0  0  0  0  0  0  0  0  0  0
    5.3218   -0.4002   -2.3438 H   0  0  0  0  0  0  0  0  0  0  0  0
    4.2405   -0.7622   -0.9838 H   0  0  0  0  0  0  0  0  0  0  0  0
    4.6285    1.8282   -4.3231 N   0  0  0  0  0  0  0  0  0  0  0  0
    4.7921    2.2121   -5.7186 C   0  0  0  0  0  0  0  0  0  0  0  0
    5.2658    2.2063   -3.6287 H   0  0  0  0  0  0  0  0  0  0  0  0
    4.8788    1.3233   -6.3524 H   0  0  0  0  0  0  0  0  0  0  0  0
    3.9350    2.8045   -6.0558 H   0  0  0  0  0  0  0  0  0  0  0  0
    5.6983    2.8128   -5.8408 H   0  0  0  0  0  0  0  0  0  0  0  0
  1  2  2  0  0  0  0
  1  3  1  0  0  0  0
  1  7  1  0  0  0  0
  3  4  1  0  0  0  0
  3  5  1  0  0  0  0
  3  6  1  0  0  0  0
  7  8  1  0  0  0  0
  7 12  1  0  0  0  0
  8  9  1  0  0  0  0
  8 11  1  0  0  0  0
  8 13  1  0  0  0  0
  9 10  2  0  0  0  0
  9 17  1  0  0  0  0
 11 14  1  0  0  0  0
 11 15  1  0  0  0  0
 11 16  1  0  0  0  0
 17 18  1  0  0  0  0
 17 25  1  0  0  0  0
 18 19  1  0  0  0  0
 18 21  1  0  0  0  0
 18 26  1  0  0  0  0
 19 20  2  0  0  0  0
 19 29  1  0  0  0  0
 21 22  1  0  0  0  0
 21 27  1  0  0  0  0
 21 28  1  0  0  0  0
 22 23  1  0  0  0  0
 22 24  2  0  0  0  0
 29 30  1  0  0  0  0
 29 34  1  0  0  0  0
 30 31  1  0  0  0  0
 30 33  1  0  0  0  0
 30 35  1  0  0  0  0
 31 32  2  0  0  0  0
 31 39  1  0  0  0  0
 33 36  1  0  0  0  0
 33 37  1  0  0  0  0
 33 38  1  0  0  0  0
 39 40  1  0  0  0  0
 39 41  1  0  0  0  0
 40 42  1  0  0  0  0
 40 43  1  0  0  0  0
 40 44  1  0  0  0  0
M  CHG  1  23  -1
M  END
$$$$

  -OEChem-05262215553D

 44 43  0     1  0  0  0  0  0999 V2000
   -5.1157    0.0383   -3.3994 C   0  0  0  0  0  0  0  0  0  0  0  0
   -5.4137   -1.1462   -3.4328 O   0  0  0  0  0  0  0  0  0  0  0  0
   -6.1921    1.0928   -3.5815 C   0  0  0  0  0  0  0  0  0  0  0  0
   -5.9768    1.6952   -4.4669 H   0  0  0  0  0  0  0  0  0  0  0  0
   -7.1699    0.6191   -3.7041 H   0  0  0  0  0  0  0  0  0  0  0  0
   -6.2242    1.7447   -2.7049 H   0  0  0  0  0  0  0  0  0  0  0  0
   -3.8084    0.4359   -3.2233 N   0  0  0  0  0  0  0  0  0  0  0  0
   -2.7160   -0.4392   -2.7806 C   0  0  2  0  0  0  0  0  0  0  0  0
   -1.5678    0.3986   -2.1777 C   0  0  0  0  0  0  0  0  0  0  0  0
   -1.4932    1.6034   -2.4103 O   0  0  0  0  0  0  0  0  0  0  0  0
   -2.1994   -1.2602   -3.9688 C   0  0  0  0  0  0  0  0  0  0  0  0
   -3.6415    1.4351   -3.1044 H   0  0  0  0  0  0  0  0  0  0  0  0
   -3.0838   -1.1117   -1.9969 H   0  0  0  0  0  0  0  0  0  0  0  0
   -1.8351   -0.5975   -4.7605 H   0  0  0  0  0  0  0  0  0  0  0  0
   -1.3797   -1.9140   -3.6562 H   0  0  0  0  0  0  0  0  0  0  0  0
   -2.9978   -1.8860   -4.3781 H   0  0  0  0  0  0  0  0  0  0  0  0
   -0.5315   -0.2053   -1.4930 N   0  0  0  0  0  0  0  0  0  0  0  0
    0.0968    0.5007   -0.3646 C   0  0  2  0  0  0  0  0  0  0  0  0
    1.6015    0.7326   -0.6378 C   0  0  0  0  0  0  0  0  0  0  0  0
    2.4383    0.7973    0.2578 O   0  0  0  0  0  0  0  0  0  0  0  0
   -0.1191   -0.4286    0.8482 C   0  0  0  0  0  0  0  0  0  0  0  0
   -1.5793   -0.5223    1.2782 C   0  0  0  0  0  0  0  0  0  0  0  0
   -2.3391    0.4553    1.0758 O   0  5  0  0  0  0  0  0  0  0  0  0
   -1.9598   -1.6485    1.6760 O   0  0  0  0  0  0  0  0  0  0  0  0
   -0.6974   -1.1929   -1.3187 H   0  0  0  0  0  0  0  0  0  0  0  0
   -0.3650    1.4767   -0.1732 H   0  0  0  0  0  0  0  0  0  0  0  0
    0.4381   -0.0385    1.7037 H   0  0  0  0  0  0  0  0  0  0  0  0
    0.2670   -1.4284    0.6289 H   0  0  0  0  0  0  0  0  0  0  0  0
    2.0355    0.8862   -1.9421 N   0  0  0  0  0  0  0  0  0  0  0  0
    3.4226    1.1450   -2.3446 C   0  0  2  0  0  0  0  0  0  0  0  0
    3.5232    1.8379   -3.7193 C   0  0  0  0  0  0  0  0  0  0  0  0
    2.6765    1.6475   -4.5851 O   0  0  0  0  0  0  0  0  0  0  0  0
    4.1815   -0.1856   -2.3763 C   0  0  0  0  0  0  0  0  0  0  0  0
    1.3081    0.9229   -2.6578 H   0  0  0  0  0  0  0  0  0  0  0  0
    3.8890    1.8076   -1.6086 H   0  0  0  0  0  0  0  0  0  0  0  0
    3.7242   -0.8683   -3.0996 H   0  0  0  0  0  0  0  0  0  0  0  0
    5.2256   -0.0237   -2.6599 H   0  0  0  0  0  0  0  0  0  0  0  0
    4.1617   -0.6592   -1.3897 H   0  0  0  0  0  0  0  0  0  0  0  0
    4.6030    2.6562   -4.0020 N   0  0  0  0  0  0  0  0  0  0  0  0
    4.7577    3.3694   -5.2629 C   0  0  0  0  0  0  0  0  0  0  0  0
    5.2637    2.8318   -3.2509 H   0  0  0  0  0  0  0  0  0  0  0  0
    4.7909    2.6644   -6.1001 H   0  0  0  0  0  0  0  0  0  0  0  0
    3.9225    4.0608   -5.4161 H   0  0  0  0  0  0  0  0  0  0  0  0
    5.6881    3.9448   -5.2595 H   0  0  0  0  0  0  0  0  0  0  0  0
  1  2  2  0  0  0  0
  1  3  1  0  0  0  0
  1  7  1  0  0  0  0
  3  4  1  0  0  0  0
  3  5  1  0  0  0  0
  3  6  1  0  0  0  0
  7  8  1  0  0  0  0
  7 12  1  0  0  0  0
  8  9  1  0  0  0  0
  8 11  1  0  0  0  0
  8 13  1  0  0  0  0
  9 10  2  0  0  0  0
  9 17  1  0  0  0  0
 11 14  1  0  0  0  0
 11 15  1  0  0  0  0
 11 16  1  0  0  0  0
 17 18  1  0  0  0  0
 17 25  1  0  0  0  0
 18 19  1  0  0  0  0
 18 21  1  0  0  0  0
 18 26  1  0  0  0  0
 19 20  2  0  0  0  0
 19 29  1  0  0  0  0
 21 22  1  0  0  0  0
 21 27  1  0  0  0  0
 21 28  1  0  0  0  0
 22 23  1  0  0  0  0
 22 24  2  0  0  0  0
 29 30  1  0  0  0  0
 29 34  1  0  0  0  0
 30 31  1  0  0  0  0
 30 33  1  0  0  0  0
 30 35  1  0  0  0  0
 31 32  2  0  0  0  0
 31 39  1  0  0  0  0
 33 36  1  0  0  0  0
 33 37  1  0  0  0  0
 33 38  1  0  0  0  0
 39 40  1  0  0  0  0
 39 41  1  0  0  0  0
 40 42  1  0  0  0  0
 40 43  1  0  0  0  0
 40 44  1  0  0  0  0
M  CHG  1  23  -1
M  END
$$$$

  -OEChem-05262215553D

 44 43  0     1  0  0  0  0  0999 V2000
   -5.0411    0.0064   -3.4241 C   0  0  0  0  0  0  0  0  0  0  0  0
   -5.3464   -1.1766   -3.4417 O   0  0  0  0  0  0  0  0  0  0  0  0
   -6.1121    1.0655   -3.6119 C   0  0  0  0  0  0  0  0  0  0  0  0
   -5.9050    1.6487   -4.5123 H   0  0  0  0  0  0  0  0  0  0  0  0
   -7.0949    0.5966   -3.7103 H   0  0  0  0  0  0  0  0  0  0  0  0
   -6.1266    1.7347   -2.7477 H   0  0  0  0  0  0  0  0  0  0  0  0
   -3.7309    0.3988   -3.2576 N   0  0  0  0  0  0  0  0  0  0  0  0
   -2.6469   -0.4728   -2.7885 C   0  0  2  0  0  0  0  0  0  0  0  0
   -1.4933    0.3757   -2.2128 C   0  0  0  0  0  0  0  0  0  0  0  0
   -1.4054    1.5717   -2.4843 O   0  0  0  0  0  0  0  0  0  0  0  0
   -2.1381   -1.3369   -3.9488 C   0  0  0  0  0  0  0  0  0  0  0  0
   -3.5596    1.3991   -3.1553 H   0  0  0  0  0  0  0  0  0  0  0  0
   -3.0204   -1.1156   -1.9826 H   0  0  0  0  0  0  0  0  0  0  0  0
   -1.7653   -0.7038   -4.7602 H   0  0  0  0  0  0  0  0  0  0  0  0
   -1.3268   -1.9896   -3.6132 H   0  0  0  0  0  0  0  0  0  0  0  0
   -2.9427   -1.9666   -4.3399 H   0  0  0  0  0  0  0  0  0  0  0  0
   -0.4635   -0.2047   -1.5004 N   0  0  0  0  0  0  0  0  0  0  0  0
    0.1208    0.5294   -0.3679 C   0  0  2  0  0  0  0  0  0  0  0  0
    1.6241    0.7814   -0.6222 C   0  0  0  0  0  0  0  0  0  0  0  0
    2.4916    0.6008    0.2276 O   0  0  0  0  0  0  0  0  0  0  0  0
   -0.1216   -0.3678    0.8641 C   0  0  0  0  0  0  0  0  0  0  0  0
   -1.5937   -0.4624    1.2518 C   0  0  0  0  0  0  0  0  0  0  0  0
   -2.3533    0.5033    0.9975 O   0  5  0  0  0  0  0  0  0  0  0  0
   -1.9784   -1.5759    1.6791 O   0  0  0  0  0  0  0  0  0  0  0  0
   -0.6214   -1.1905   -1.3107 H   0  0  0  0  0  0  0  0  0  0  0  0
   -0.3576    1.5035   -0.2106 H   0  0  0  0  0  0  0  0  0  0  0  0
    0.4085    0.0508    1.7237 H   0  0  0  0  0  0  0  0  0  0  0  0
    0.2778   -1.3699    0.6826 H   0  0  0  0  0  0  0  0  0  0  0  0
    2.0178    1.2284   -1.8703 N   0  0  0  0  0  0  0  0  0  0  0  0
    3.4035    1.5110   -2.2616 C   0  0  2  0  0  0  0  0  0  0  0  0
    3.5090    2.5521   -3.3949 C   0  0  0  0  0  0  0  0  0  0  0  0
    2.6541    2.6241   -4.2699 O   0  0  0  0  0  0  0  0  0  0  0  0
    4.0634    0.1980   -2.6937 C   0  0  0  0  0  0  0  0  0  0  0  0
    1.2697    1.4284   -2.5380 H   0  0  0  0  0  0  0  0  0  0  0  0
    3.9418    1.9158   -1.3986 H   0  0  0  0  0  0  0  0  0  0  0  0
    3.5379   -0.2275   -3.5546 H   0  0  0  0  0  0  0  0  0  0  0  0
    5.1082    0.3678   -2.9701 H   0  0  0  0  0  0  0  0  0  0  0  0
    4.0366   -0.5282   -1.8753 H   0  0  0  0  0  0  0  0  0  0  0  0
    4.6067    3.3925   -3.4565 N   0  0  0  0  0  0  0  0  0  0  0  0
    4.7665    4.4280   -4.4687 C   0  0  0  0  0  0  0  0  0  0  0  0
    5.2719    3.3442   -2.6907 H   0  0  0  0  0  0  0  0  0  0  0  0
    4.7501    3.9897   -5.4719 H   0  0  0  0  0  0  0  0  0  0  0  0
    3.9603    5.1647   -4.3920 H   0  0  0  0  0  0  0  0  0  0  0  0
    5.7219    4.9432   -4.3327 H   0  0  0  0  0  0  0  0  0  0  0  0
  1  2  2  0  0  0  0
  1  3  1  0  0  0  0
  1  7  1  0  0  0  0
  3  4  1  0  0  0  0
  3  5  1  0  0  0  0
  3  6  1  0  0  0  0
  7  8  1  0  0  0  0
  7 12  1  0  0  0  0
  8  9  1  0  0  0  0
  8 11  1  0  0  0  0
  8 13  1  0  0  0  0
  9 10  2  0  0  0  0
  9 17  1  0  0  0  0
 11 14  1  0  0  0  0
 11 15  1  0  0  0  0
 11 16  1  0  0  0  0
 17 18  1  0  0  0  0
 17 25  1  0  0  0  0
 18 19  1  0  0  0  0
 18 21  1  0  0  0  0
 18 26  1  0  0  0  0
 19 20  2  0  0  0  0
 19 29  1  0  0  0  0
 21 22  1  0  0  0  0
 21 27  1  0  0  0  0
 21 28  1  0  0  0  0
 22 23  1  0  0  0  0
 22 24  2  0  0  0  0
 29 30  1  0  0  0  0
 29 34  1  0  0  0  0
 30 31  1  0  0  0  0
 30 33  1  0  0  0  0
 30 35  1  0  0  0  0
 31 32  2  0  0  0  0
 31 39  1  0  0  0  0
 33 36  1  0  0  0  0
 33 37  1  0  0  0  0
 33 38  1  0  0  0  0
 39 40  1  0  0  0  0
 39 41  1  0  0  0  0
 40 42  1  0  0  0  0
 40 43  1  0  0  0  0
 40 44  1  0  0  0  0
M  CHG  1  23  -1
M  END
$$$$

  -OEChem-05262215553D

 44 43  0     1  0  0  0  0  0999 V2000
   -4.9682   -0.0135   -3.4487 C   0  0  0  0  0  0  0  0  0  0  0  0
   -5.2633   -1.1992   -3.4656 O   0  0  0  0  0  0  0  0  0  0  0  0
   -6.0454    1.0352   -3.6582 C   0  0  0  0  0  0  0  0  0  0  0  0
   -5.8283    1.6170   -4.5574 H   0  0  0  0  0  0  0  0  0  0  0  0
   -7.0224    0.5572   -3.7714 H   0  0  0  0  0  0  0  0  0  0  0  0
   -6.0807    1.7078   -2.7972 H   0  0  0  0  0  0  0  0  0  0  0  0
   -3.6636    0.3910   -3.2690 N   0  0  0  0  0  0  0  0  0  0  0  0
   -2.5743   -0.4725   -2.7973 C   0  0  2  0  0  0  0  0  0  0  0  0
   -1.4297    0.3821   -2.2125 C   0  0  0  0  0  0  0  0  0  0  0  0
   -1.3386    1.5757   -2.4952 O   0  0  0  0  0  0  0  0  0  0  0  0
   -2.0527   -1.3264   -3.9598 C   0  0  0  0  0  0  0  0  0  0  0  0
   -3.5021    1.3928   -3.1658 H   0  0  0  0  0  0  0  0  0  0  0  0
   -2.9468   -1.1218   -1.9962 H   0  0  0  0  0  0  0  0  0  0  0  0
   -1.6919   -0.6858   -4.7706 H   0  0  0  0  0  0  0  0  0  0  0  0
   -1.2295   -1.9657   -3.6270 H   0  0  0  0  0  0  0  0  0  0  0  0
   -2.8475   -1.9685   -4.3507 H   0  0  0  0  0  0  0  0  0  0  0  0
   -0.4102   -0.1891   -1.4783 N   0  0  0  0  0  0  0  0  0  0  0  0
    0.1570    0.5635   -0.3512 C   0  0  2  0  0  0  0  0  0  0  0  0
    1.6613    0.8059   -0.5990 C   0  0  0  0  0  0  0  0  0  0  0  0
    2.5477    0.3927    0.1438 O   0  0  0  0  0  0  0  0  0  0  0  0
   -0.1008   -0.3054    0.8971 C   0  0  0  0  0  0  0  0  0  0  0  0
   -1.5774   -0.3919    1.2695 C   0  0  0  0  0  0  0  0  0  0  0  0
   -2.3333    0.5681    0.9840 O   0  5  0  0  0  0  0  0  0  0  0  0
   -1.9672   -1.4933    1.7228 O   0  0  0  0  0  0  0  0  0  0  0  0
   -0.5675   -1.1725   -1.2769 H   0  0  0  0  0  0  0  0  0  0  0  0
   -0.3209    1.5413   -0.2166 H   0  0  0  0  0  0  0  0  0  0  0  0
    0.4219    0.1333    1.7509 H   0  0  0  0  0  0  0  0  0  0  0  0
    0.2995   -1.3119    0.7433 H   0  0  0  0  0  0  0  0  0  0  0  0
    2.0269    1.5176   -1.7265 N   0  0  0  0  0  0  0  0  0  0  0  0
    3.4097    1.8100   -2.1218 C   0  0  2  0  0  0  0  0  0  0  0  0
    3.5436    3.1313   -2.9060 C   0  0  0  0  0  0  0  0  0  0  0  0
    2.6838    3.4826   -3.7052 O   0  0  0  0  0  0  0  0  0  0  0  0
    3.9288    0.6400   -2.9623 C   0  0  0  0  0  0  0  0  0  0  0  0
    1.2650    1.8468   -2.3246 H   0  0  0  0  0  0  0  0  0  0  0  0
    4.0278    1.9037   -1.2233 H   0  0  0  0  0  0  0  0  0  0  0  0
    3.3226    0.5208   -3.8661 H   0  0  0  0  0  0  0  0  0  0  0  0
    4.9677    0.8135   -3.2581 H   0  0  0  0  0  0  0  0  0  0  0  0
    3.8837   -0.2901   -2.3869 H   0  0  0  0  0  0  0  0  0  0  0  0
    4.6723    3.9157   -2.7451 N   0  0  0  0  0  0  0  0  0  0  0  0
    4.8542    5.1981   -3.4117 C   0  0  0  0  0  0  0  0  0  0  0  0
    5.3380    3.6316   -2.0328 H   0  0  0  0  0  0  0  0  0  0  0  0
    4.8192    5.0727   -4.4990 H   0  0  0  0  0  0  0  0  0  0  0  0
    4.0691    5.8998   -3.1112 H   0  0  0  0  0  0  0  0  0  0  0  0
    5.8244    5.6280   -3.1450 H   0  0  0  0  0  0  0  0  0  0  0  0
  1  2  2  0  0  0  0
  1  3  1  0  0  0  0
  1  7  1  0  0  0  0
  3  4  1  0  0  0  0
  3  5  1  0  0  0  0
  3  6  1  0  0  0  0
  7  8  1  0  0  0  0
  7 12  1  0  0  0  0
  8  9  1  0  0  0  0
  8 11  1  0  0  0  0
  8 13  1  0  0  0  0
  9 10  2  0  0  0  0
  9 17  1  0  0  0  0
 11 14  1  0  0  0  0
 11 15  1  0  0  0  0
 11 16  1  0  0  0  0
 17 18  1  0  0  0  0
 17 25  1  0  0  0  0
 18 19  1  0  0  0  0
 18 21  1  0  0  0  0
 18 26  1  0  0  0  0
 19 20  2  0  0  0  0
 19 29  1  0  0  0  0
 21 22  1  0  0  0  0
 21 27  1  0  0  0  0
 21 28  1  0  0  0  0
 22 23  1  0  0  0  0
 22 24  2  0  0  0  0
 29 30  1  0  0  0  0
 29 34  1  0  0  0  0
 30 31  1  0  0  0  0
 30 33  1  0  0  0  0
 30 35  1  0  0  0  0
 31 32  2  0  0  0  0
 31 39  1  0  0  0  0
 33 36  1  0  0  0  0
 33 37  1  0  0  0  0
 33 38  1  0  0  0  0
 39 40  1  0  0  0  0
 39 41  1  0  0  0  0
 40 42  1  0  0  0  0
 40 43  1  0  0  0  0
 40 44  1  0  0  0  0
M  CHG  1  23  -1
M  END
$$$$

  -OEChem-05262215553D

 44 43  0     1  0  0  0  0  0999 V2000
   -4.9149   -0.0340   -3.4964 C   0  0  0  0  0  0  0  0  0  0  0  0
   -5.1686   -1.2269   -3.5746 O   0  0  0  0  0  0  0  0  0  0  0  0
   -6.0270    0.9862   -3.6579 C   0  0  0  0  0  0  0  0  0  0  0  0
   -5.8344    1.6137   -4.5314 H   0  0  0  0  0  0  0  0  0  0  0  0
   -6.9878    0.4812   -3.7890 H   0  0  0  0  0  0  0  0  0  0  0  0
   -6.0807    1.6187   -2.7679 H   0  0  0  0  0  0  0  0  0  0  0  0
   -3.6256    0.4038   -3.2856 N   0  0  0  0  0  0  0  0  0  0  0  0
   -2.5136   -0.4458   -2.8426 C   0  0  2  0  0  0  0  0  0  0  0  0
   -1.4053    0.4147   -2.1994 C   0  0  0  0  0  0  0  0  0  0  0  0
   -1.3407    1.6196   -2.4388 O   0  0  0  0  0  0  0  0  0  0  0  0
   -1.9480   -1.2208   -4.0387 C   0  0  0  0  0  0  0  0  0  0  0  0
   -3.4975    1.4043   -3.1335 H   0  0  0  0  0  0  0  0  0  0  0  0
   -2.8738   -1.1480   -2.0818 H   0  0  0  0  0  0  0  0  0  0  0  0
   -1.5990   -0.5272   -4.8101 H   0  0  0  0  0  0  0  0  0  0  0  0
   -1.1076   -1.8474   -3.7256 H   0  0  0  0  0  0  0  0  0  0  0  0
   -2.7146   -1.8691   -4.4737 H   0  0  0  0  0  0  0  0  0  0  0  0
   -0.3925   -0.1610   -1.4585 N   0  0  0  0  0  0  0  0  0  0  0  0
    0.1652    0.5743   -0.3166 C   0  0  2  0  0  0  0  0  0  0  0  0
    1.6714    0.8181   -0.5461 C   0  0  0  0  0  0  0  0  0  0  0  0
    2.5530    0.1755    0.0182 O   0  0  0  0  0  0  0  0  0  0  0  0
   -0.0997   -0.3061    0.9225 C   0  0  0  0  0  0  0  0  0  0  0  0
   -1.5779   -0.3971    1.2876 C   0  0  0  0  0  0  0  0  0  0  0  0
   -2.3323    0.5655    1.0072 O   0  5  0  0  0  0  0  0  0  0  0  0
   -1.9683   -1.4968    1.7448 O   0  0  0  0  0  0  0  0  0  0  0  0
   -0.5314   -1.1524   -1.2853 H   0  0  0  0  0  0  0  0  0  0  0  0
   -0.3145    1.5496   -0.1713 H   0  0  0  0  0  0  0  0  0  0  0  0
    0.4215    0.1243    1.7815 H   0  0  0  0  0  0  0  0  0  0  0  0
    0.2998   -1.3117    0.7617 H   0  0  0  0  0  0  0  0  0  0  0  0
    2.0450    1.7894   -1.4561 N   0  0  0  0  0  0  0  0  0  0  0  0
    3.4309    2.1079   -1.8196 C   0  0  2  0  0  0  0  0  0  0  0  0
    3.6234    3.5818   -2.2330 C   0  0  0  0  0  0  0  0  0  0  0  0
    2.7169    4.2164   -2.7595 O   0  0  0  0  0  0  0  0  0  0  0  0
    3.8549    1.1796   -2.9612 C   0  0  0  0  0  0  0  0  0  0  0  0
    1.2893    2.2817   -1.9376 H   0  0  0  0  0  0  0  0  0  0  0  0
    4.0789    1.9290   -0.9555 H   0  0  0  0  0  0  0  0  0  0  0  0
    3.2154    1.3349   -3.8360 H   0  0  0  0  0  0  0  0  0  0  0  0
    4.8927    1.3742   -3.2473 H   0  0  0  0  0  0  0  0  0  0  0  0
    3.7723    0.1334   -2.6499 H   0  0  0  0  0  0  0  0  0  0  0  0
    4.8491    4.1952   -2.0414 N   0  0  0  0  0  0  0  0  0  0  0  0
    5.1010    5.5944   -2.3599 C   0  0  0  0  0  0  0  0  0  0  0  0
    5.5631    3.6645   -1.5518 H   0  0  0  0  0  0  0  0  0  0  0  0
    4.8786    5.7945   -3.4133 H   0  0  0  0  0  0  0  0  0  0  0  0
    4.4784    6.2456   -1.7376 H   0  0  0  0  0  0  0  0  0  0  0  0
    6.1514    5.8395   -2.1776 H   0  0  0  0  0  0  0  0  0  0  0  0
  1  2  2  0  0  0  0
  1  3  1  0  0  0  0
  1  7  1  0  0  0  0
  3  4  1  0  0  0  0
  3  5  1  0  0  0  0
  3  6  1  0  0  0  0
  7  8  1  0  0  0  0
  7 12  1  0  0  0  0
  8  9  1  0  0  0  0
  8 11  1  0  0  0  0
  8 13  1  0  0  0  0
  9 10  2  0  0  0  0
  9 17  1  0  0  0  0
 11 14  1  0  0  0  0
 11 15  1  0  0  0  0
 11 16  1  0  0  0  0
 17 18  1  0  0  0  0
 17 25  1  0  0  0  0
 18 19  1  0  0  0  0
 18 21  1  0  0  0  0
 18 26  1  0  0  0  0
 19 20  2  0  0  0  0
 19 29  1  0  0  0  0
 21 22  1  0  0  0  0
 21 27  1  0  0  0  0
 21 28  1  0  0  0  0
 22 23  1  0  0  0  0
 22 24  2  0  0  0  0
 29 30  1  0  0  0  0
 29 34  1  0  0  0  0
 30 31  1  0  0  0  0
 30 33  1  0  0  0  0
 30 35  1  0  0  0  0
 31 32  2  0  0  0  0
 31 39  1  0  0  0  0
 33 36  1  0  0  0  0
 33 37  1  0  0  0  0
 33 38  1  0  0  0  0
 39 40  1  0  0  0  0
 39 41  1  0  0  0  0
 40 42  1  0  0  0  0
 40 43  1  0  0  0  0
 40 44  1  0  0  0  0
M  CHG  1  23  -1
M  END
$$$$

  -OEChem-05262215553D

 44 43  0     1  0  0  0  0  0999 V2000
   -4.8718   -0.0504   -3.5427 C   0  0  0  0  0  0  0  0  0  0  0  0
   -5.0767   -1.2482   -3.6710 O   0  0  0  0  0  0  0  0  0  0  0  0
   -6.0179    0.9315   -3.7043 C   0  0  0  0  0  0  0  0  0  0  0  0
   -5.8168    1.6046   -4.5412 H   0  0  0  0  0  0  0  0  0  0  0  0
   -6.9509    0.3949   -3.8975 H   0  0  0  0  0  0  0  0  0  0  0  0
   -6.1336    1.5210   -2.7910 H   0  0  0  0  0  0  0  0  0  0  0  0
   -3.6052    0.4270   -3.2849 N   0  0  0  0  0  0  0  0  0  0  0  0
   -2.4656   -0.4006   -2.8712 C   0  0  2  0  0  0  0  0  0  0  0  0
   -1.3971    0.4637   -2.1683 C   0  0  0  0  0  0  0  0  0  0  0  0
   -1.3719    1.6803   -2.3480 O   0  0  0  0  0  0  0  0  0  0  0  0
   -1.8563   -1.0901   -4.0982 C   0  0  0  0  0  0  0  0  0  0  0  0
   -3.5177    1.4236   -3.0862 H   0  0  0  0  0  0  0  0  0  0  0  0
   -2.8077   -1.1550   -2.1534 H   0  0  0  0  0  0  0  0  0  0  0  0
   -1.5135   -0.3440   -4.8219 H   0  0  0  0  0  0  0  0  0  0  0  0
   -1.0036   -1.7102   -3.8053 H   0  0  0  0  0  0  0  0  0  0  0  0
   -2.5955   -1.7333   -4.5847 H   0  0  0  0  0  0  0  0  0  0  0  0
   -0.3873   -0.1218   -1.4307 N   0  0  0  0  0  0  0  0  0  0  0  0
    0.1731    0.5810   -0.2710 C   0  0  2  0  0  0  0  0  0  0  0  0
    1.6815    0.8283   -0.4791 C   0  0  0  0  0  0  0  0  0  0  0  0
    2.5369    0.0049   -0.1638 O   0  0  0  0  0  0  0  0  0  0  0  0
   -0.0921   -0.3272    0.9475 C   0  0  0  0  0  0  0  0  0  0  0  0
   -1.5696   -0.4220    1.3146 C   0  0  0  0  0  0  0  0  0  0  0  0
   -2.3213    0.5496    1.0592 O   0  5  0  0  0  0  0  0  0  0  0  0
   -1.9608   -1.5258    1.7610 O   0  0  0  0  0  0  0  0  0  0  0  0
   -0.4991   -1.1229   -1.3002 H   0  0  0  0  0  0  0  0  0  0  0  0
   -0.3088    1.5515   -0.1030 H   0  0  0  0  0  0  0  0  0  0  0  0
    0.4359    0.0785    1.8142 H   0  0  0  0  0  0  0  0  0  0  0  0
    0.3000   -1.3312    0.7588 H   0  0  0  0  0  0  0  0  0  0  0  0
    2.0900    1.9972   -1.0943 N   0  0  0  0  0  0  0  0  0  0  0  0
    3.4806    2.3145   -1.4420 C   0  0  2  0  0  0  0  0  0  0  0  0
    3.7737    3.8294   -1.4693 C   0  0  0  0  0  0  0  0  0  0  0  0
    2.8828    4.6457   -1.6737 O   0  0  0  0  0  0  0  0  0  0  0  0
    3.7829    1.6964   -2.8105 C   0  0  0  0  0  0  0  0  0  0  0  0
    1.3565    2.6364   -1.4038 H   0  0  0  0  0  0  0  0  0  0  0  0
    4.1469    1.8740   -0.6933 H   0  0  0  0  0  0  0  0  0  0  0  0
    3.1293    2.1279   -3.5754 H   0  0  0  0  0  0  0  0  0  0  0  0
    4.8231    1.8814   -3.0938 H   0  0  0  0  0  0  0  0  0  0  0  0
    3.6198    0.6145   -2.7834 H   0  0  0  0  0  0  0  0  0  0  0  0
    5.0707    4.2798   -1.2932 N   0  0  0  0  0  0  0  0  0  0  0  0
    5.4336    5.6904   -1.2707 C   0  0  0  0  0  0  0  0  0  0  0  0
    5.7785    3.5849   -1.0760 H   0  0  0  0  0  0  0  0  0  0  0  0
    5.0795    6.1926   -2.1771 H   0  0  0  0  0  0  0  0  0  0  0  0
    4.9935    6.1833   -0.3979 H   0  0  0  0  0  0  0  0  0  0  0  0
    6.5211    5.7988   -1.2208 H   0  0  0  0  0  0  0  0  0  0  0  0
  1  2  2  0  0  0  0
  1  3  1  0  0  0  0
  1  7  1  0  0  0  0
  3  4  1  0  0  0  0
  3  5  1  0  0  0  0
  3  6  1  0  0  0  0
  7  8  1  0  0  0  0
  7 12  1  0  0  0  0
  8  9  1  0  0  0  0
  8 11  1  0  0  0  0
  8 13  1  0  0  0  0
  9 10  2  0  0  0  0
  9 17  1  0  0  0  0
 11 14  1  0  0  0  0
 11 15  1  0  0  0  0
 11 16  1  0  0  0  0
 17 18  1  0  0  0  0
 17 25  1  0  0  0  0
 18 19  1  0  0  0  0
 18 21  1  0  0  0  0
 18 26  1  0  0  0  0
 19 20  2  0  0  0  0
 19 29  1  0  0  0  0
 21 22  1  0  0  0  0
 21 27  1  0  0  0  0
 21 28  1  0  0  0  0
 22 23  1  0  0  0  0
 22 24  2  0  0  0  0
 29 30  1  0  0  0  0
 29 34  1  0  0  0  0
 30 31  1  0  0  0  0
 30 33  1  0  0  0  0
 30 35  1  0  0  0  0
 31 32  2  0  0  0  0
 31 39  1  0  0  0  0
 33 36  1  0  0  0  0
 33 37  1  0  0  0  0
 33 38  1  0  0  0  0
 39 40  1  0  0  0  0
 39 41  1  0  0  0  0
 40 42  1  0  0  0  0
 40 43  1  0  0  0  0
 40 44  1  0  0  0  0
M  CHG  1  23  -1
M  END
$$$$

  -OEChem-05262215553D

 44 43  0     1  0  0  0  0  0999 V2000
   -4.8399   -0.0244   -3.5773 C   0  0  0  0  0  0  0  0  0  0  0  0
   -5.0335   -1.2204   -3.7362 O   0  0  0  0  0  0  0  0  0  0  0  0
   -5.9946    0.9516   -3.7074 C   0  0  0  0  0  0  0  0  0  0  0  0
   -5.7945    1.6602   -4.5144 H   0  0  0  0  0  0  0  0  0  0  0  0
   -6.9210    0.4148   -3.9284 H   0  0  0  0  0  0  0  0  0  0  0  0
   -6.1211    1.5027   -2.7722 H   0  0  0  0  0  0  0  0  0  0  0  0
   -3.5789    0.4574   -3.3034 N   0  0  0  0  0  0  0  0  0  0  0  0
   -2.4363   -0.3696   -2.8993 C   0  0  2  0  0  0  0  0  0  0  0  0
   -1.3926    0.4875   -2.1528 C   0  0  0  0  0  0  0  0  0  0  0  0
   -1.3854    1.7090   -2.2977 O   0  0  0  0  0  0  0  0  0  0  0  0
   -1.8009   -1.0109   -4.1387 C   0  0  0  0  0  0  0  0  0  0  0  0
   -3.5015    1.4491   -3.0770 H   0  0  0  0  0  0  0  0  0  0  0  0
   -2.7790   -1.1516   -2.2122 H   0  0  0  0  0  0  0  0  0  0  0  0
   -1.4625   -0.2379   -4.8360 H   0  0  0  0  0  0  0  0  0  0  0  0
   -0.9413   -1.6247   -3.8528 H   0  0  0  0  0  0  0  0  0  0  0  0
   -2.5240   -1.6519   -4.6520 H   0  0  0  0  0  0  0  0  0  0  0  0
   -0.3898   -0.1089   -1.4151 N   0  0  0  0  0  0  0  0  0  0  0  0
    0.1931    0.5774   -0.2573 C   0  0  2  0  0  0  0  0  0  0  0  0
    1.7045    0.7960   -0.4700 C   0  0  0  0  0  0  0  0  0  0  0  0
    2.5104   -0.1304   -0.4233 O   0  0  0  0  0  0  0  0  0  0  0  0
   -0.0605   -0.3282    0.9641 C   0  0  0  0  0  0  0  0  0  0  0  0
   -1.5309   -0.4116    1.3603 C   0  0  0  0  0  0  0  0  0  0  0  0
   -2.2804    0.5656    1.1213 O   0  5  0  0  0  0  0  0  0  0  0  0
   -1.9180   -1.5072    1.8301 O   0  0  0  0  0  0  0  0  0  0  0  0
   -0.4869   -1.1140   -1.3080 H   0  0  0  0  0  0  0  0  0  0  0  0
   -0.2741    1.5531   -0.0805 H   0  0  0  0  0  0  0  0  0  0  0  0
    0.4877    0.0715    1.8210 H   0  0  0  0  0  0  0  0  0  0  0  0
    0.3186   -1.3353    0.7671 H   0  0  0  0  0  0  0  0  0  0  0  0
    2.1704    2.0590   -0.7843 N   0  0  0  0  0  0  0  0  0  0  0  0
    3.5698    2.3833   -1.0838 C   0  0  2  0  0  0  0  0  0  0  0  0
    3.9427    3.8355   -0.7187 C   0  0  0  0  0  0  0  0  0  0  0  0
    3.0879    4.7113   -0.6499 O   0  0  0  0  0  0  0  0  0  0  0  0
    3.8102    2.1348   -2.5761 C   0  0  0  0  0  0  0  0  0  0  0  0
    1.4776    2.8032   -0.8643 H   0  0  0  0  0  0  0  0  0  0  0  0
    4.2236    1.7272   -0.5004 H   0  0  0  0  0  0  0  0  0  0  0  0
    3.1581    2.7751   -3.1790 H   0  0  0  0  0  0  0  0  0  0  0  0
    4.8505    2.3486   -2.8384 H   0  0  0  0  0  0  0  0  0  0  0  0
    3.5992    1.0902   -2.8258 H   0  0  0  0  0  0  0  0  0  0  0  0
    5.2663    4.1679   -0.4881 N   0  0  0  0  0  0  0  0  0  0  0  0
    5.7028    5.5052   -0.1092 C   0  0  0  0  0  0  0  0  0  0  0  0
    5.9464    3.4140   -0.5107 H   0  0  0  0  0  0  0  0  0  0  0  0
    5.3959    6.2371   -0.8636 H   0  0  0  0  0  0  0  0  0  0  0  0
    5.2702    5.7893    0.8557 H   0  0  0  0  0  0  0  0  0  0  0  0
    6.7930    5.5357   -0.0234 H   0  0  0  0  0  0  0  0  0  0  0  0
  1  2  2  0  0  0  0
  1  3  1  0  0  0  0
  1  7  1  0  0  0  0
  3  4  1  0  0  0  0
  3  5  1  0  0  0  0
  3  6  1  0  0  0  0
  7  8  1  0  0  0  0
  7 12  1  0  0  0  0
  8  9  1  0  0  0  0
  8 11  1  0  0  0  0
  8 13  1  0  0  0  0
  9 10  2  0  0  0  0
  9 17  1  0  0  0  0
 11 14  1  0  0  0  0
 11 15  1  0  0  0  0
 11 16  1  0  0  0  0
 17 18  1  0  0  0  0
 17 25  1  0  0  0  0
 18 19  1  0  0  0  0
 18 21  1  0  0  0  0
 18 26  1  0  0  0  0
 19 20  2  0  0  0  0
 19 29  1  0  0  0  0
 21 22  1  0  0  0  0
 21 27  1  0  0  0  0
 21 28  1  0  0  0  0
 22 23  1  0  0  0  0
 22 24  2  0  0  0  0
 29 30  1  0  0  0  0
 29 34  1  0  0  0  0
 30 31  1  0  0  0  0
 30 33  1  0  0  0  0
 30 35  1  0  0  0  0
 31 32  2  0  0  0  0
 31 39  1  0  0  0  0
 33 36  1  0  0  0  0
 33 37  1  0  0  0  0
 33 38  1  0  0  0  0
 39 40  1  0  0  0  0
 39 41  1  0  0  0  0
 40 42  1  0  0  0  0
 40 43  1  0  0  0  0
 40 44  1  0  0  0  0
M  CHG  1  23  -1
M  END
$$$$

  -OEChem-05262215553D

 44 43  0     1  0  0  0  0  0999 V2000
   -4.8346   -0.0274   -3.6252 C   0  0  0  0  0  0  0  0  0  0  0  0
   -4.9877   -1.2232   -3.8258 O   0  0  0  0  0  0  0  0  0  0  0  0
   -6.0151    0.9173   -3.7590 C   0  0  0  0  0  0  0  0  0  0  0  0
   -5.8290    1.6342   -4.5624 H   0  0  0  0  0  0  0  0  0  0  0  0
   -6.9249    0.3557   -3.9882 H   0  0  0  0  0  0  0  0  0  0  0  0
   -6.1636    1.4607   -2.8223 H   0  0  0  0  0  0  0  0  0  0  0  0
   -3.5960    0.4819   -3.3013 N   0  0  0  0  0  0  0  0  0  0  0  0
   -2.4324   -0.3237   -2.9118 C   0  0  2  0  0  0  0  0  0  0  0  0
   -1.4261    0.5300   -2.1105 C   0  0  0  0  0  0  0  0  0  0  0  0
   -1.4623    1.7562   -2.1968 O   0  0  0  0  0  0  0  0  0  0  0  0
   -1.7588   -0.8882   -4.1679 C   0  0  0  0  0  0  0  0  0  0  0  0
   -3.5505    1.4688   -3.0470 H   0  0  0  0  0  0  0  0  0  0  0  0
   -2.7599   -1.1463   -2.2661 H   0  0  0  0  0  0  0  0  0  0  0  0
   -1.4316   -0.0745   -4.8227 H   0  0  0  0  0  0  0  0  0  0  0  0
   -0.8866   -1.4900   -3.8960 H   0  0  0  0  0  0  0  0  0  0  0  0
   -2.4546   -1.5241   -4.7231 H   0  0  0  0  0  0  0  0  0  0  0  0
   -0.4138   -0.0731   -1.3905 N   0  0  0  0  0  0  0  0  0  0  0  0
    0.2077    0.5837   -0.2345 C   0  0  2  0  0  0  0  0  0  0  0  0
    1.7185    0.7870   -0.4685 C   0  0  0  0  0  0  0  0  0  0  0  0
    2.4622   -0.1610   -0.7106 O   0  0  0  0  0  0  0  0  0  0  0  0
   -0.0095   -0.3377    0.9819 C   0  0  0  0  0  0  0  0  0  0  0  0
   -1.4643   -0.4232    1.4309 C   0  0  0  0  0  0  0  0  0  0  0  0
   -2.2196    0.5589    1.2342 O   0  5  0  0  0  0  0  0  0  0  0  0
   -1.8312   -1.5180    1.9190 O   0  0  0  0  0  0  0  0  0  0  0  0
   -0.4672   -1.0854   -1.3357 H   0  0  0  0  0  0  0  0  0  0  0  0
   -0.2477    1.5602   -0.0328 H   0  0  0  0  0  0  0  0  0  0  0  0
    0.5694    0.0467    1.8255 H   0  0  0  0  0  0  0  0  0  0  0  0
    0.3581   -1.3434    0.7566 H   0  0  0  0  0  0  0  0  0  0  0  0
    2.2595    2.0596   -0.4590 N   0  0  0  0  0  0  0  0  0  0  0  0
    3.6724    2.3662   -0.7109 C   0  0  2  0  0  0  0  0  0  0  0  0
    4.1437    3.6491    0.0047 C   0  0  0  0  0  0  0  0  0  0  0  0
    3.3455    4.5182    0.3370 O   0  0  0  0  0  0  0  0  0  0  0  0
    3.8719    2.4988   -2.2240 C   0  0  0  0  0  0  0  0  0  0  0  0
    1.6306    2.8355   -0.2542 H   0  0  0  0  0  0  0  0  0  0  0  0
    4.2915    1.5440   -0.3378 H   0  0  0  0  0  0  0  0  0  0  0  0
    3.2596    3.3159   -2.6192 H   0  0  0  0  0  0  0  0  0  0  0  0
    4.9211    2.7025   -2.4574 H   0  0  0  0  0  0  0  0  0  0  0  0
    3.5809    1.5715   -2.7275 H   0  0  0  0  0  0  0  0  0  0  0  0
    5.4905    3.8375    0.2609 N   0  0  0  0  0  0  0  0  0  0  0  0
    6.0185    5.0013    0.9602 C   0  0  0  0  0  0  0  0  0  0  0  0
    6.1214    3.0803    0.0162 H   0  0  0  0  0  0  0  0  0  0  0  0
    5.7352    5.9220    0.4396 H   0  0  0  0  0  0  0  0  0  0  0  0
    5.6317    5.0403    1.9839 H   0  0  0  0  0  0  0  0  0  0  0  0
    7.1106    4.9519    1.0029 H   0  0  0  0  0  0  0  0  0  0  0  0
  1  2  2  0  0  0  0
  1  3  1  0  0  0  0
  1  7  1  0  0  0  0
  3  4  1  0  0  0  0
  3  5  1  0  0  0  0
  3  6  1  0  0  0  0
  7  8  1  0  0  0  0
  7 12  1  0  0  0  0
  8  9  1  0  0  0  0
  8 11  1  0  0  0  0
  8 13  1  0  0  0  0
  9 10  2  0  0  0  0
  9 17  1  0  0  0  0
 11 14  1  0  0  0  0
 11 15  1  0  0  0  0
 11 16  1  0  0  0  0
 17 18  1  0  0  0  0
 17 25  1  0  0  0  0
 18 19  1  0  0  0  0
 18 21  1  0  0  0  0
 18 26  1  0  0  0  0
 19 20  2  0  0  0  0
 19 29  1  0  0  0  0
 21 22  1  0  0  0  0
 21 27  1  0  0  0  0
 21 28  1  0  0  0  0
 22 23  1  0  0  0  0
 22 24  2  0  0  0  0
 29 30  1  0  0  0  0
 29 34  1  0  0  0  0
 30 31  1  0  0  0  0
 30 33  1  0  0  0  0
 30 35  1  0  0  0  0
 31 32  2  0  0  0  0
 31 39  1  0  0  0  0
 33 36  1  0  0  0  0
 33 37  1  0  0  0  0
 33 38  1  0  0  0  0
 39 40  1  0  0  0  0
 39 41  1  0  0  0  0
 40 42  1  0  0  0  0
 40 43  1  0  0  0  0
 40 44  1  0  0  0  0
M  CHG  1  23  -1
M  END
$$$$

  -OEChem-05262215553D

 44 43  0     1  0  0  0  0  0999 V2000
   -4.8501    0.0135   -3.5855 C   0  0  0  0  0  0  0  0  0  0  0  0
   -5.0277   -1.1815   -3.7692 O   0  0  0  0  0  0  0  0  0  0  0  0
   -6.0196    0.9754   -3.6909 C   0  0  0  0  0  0  0  0  0  0  0  0
   -5.8466    1.6862   -4.5024 H   0  0  0  0  0  0  0  0  0  0  0  0
   -6.9436    0.4267   -3.8919 H   0  0  0  0  0  0  0  0  0  0  0  0
   -6.1339    1.5251   -2.7530 H   0  0  0  0  0  0  0  0  0  0  0  0
   -3.5947    0.5057   -3.3032 N   0  0  0  0  0  0  0  0  0  0  0  0
   -2.4383   -0.3145   -2.9219 C   0  0  2  0  0  0  0  0  0  0  0  0
   -1.4092    0.5337   -2.1436 C   0  0  0  0  0  0  0  0  0  0  0  0
   -1.4469    1.7605   -2.2217 O   0  0  0  0  0  0  0  0  0  0  0  0
   -1.7911   -0.9058   -4.1796 C   0  0  0  0  0  0  0  0  0  0  0  0
   -3.5283    1.4933   -3.0559 H   0  0  0  0  0  0  0  0  0  0  0  0
   -2.7688   -1.1246   -2.2618 H   0  0  0  0  0  0  0  0  0  0  0  0
   -1.4656   -0.1060   -4.8518 H   0  0  0  0  0  0  0  0  0  0  0  0
   -0.9209   -1.5129   -3.9129 H   0  0  0  0  0  0  0  0  0  0  0  0
   -2.5028   -1.5424   -4.7138 H   0  0  0  0  0  0  0  0  0  0  0  0
   -0.3907   -0.0756   -1.4379 N   0  0  0  0  0  0  0  0  0  0  0  0
    0.2518    0.5743   -0.2889 C   0  0  2  0  0  0  0  0  0  0  0  0
    1.7626    0.7767   -0.5251 C   0  0  0  0  0  0  0  0  0  0  0  0
    2.4619   -0.1185   -0.9947 O   0  0  0  0  0  0  0  0  0  0  0  0
    0.0516   -0.3545    0.9231 C   0  0  0  0  0  0  0  0  0  0  0  0
   -1.3967   -0.4391    1.3933 C   0  0  0  0  0  0  0  0  0  0  0  0
   -2.1519    0.5464    1.2149 O   0  5  0  0  0  0  0  0  0  0  0  0
   -1.7583   -1.5357    1.8815 O   0  0  0  0  0  0  0  0  0  0  0  0
   -0.4362   -1.0886   -1.3958 H   0  0  0  0  0  0  0  0  0  0  0  0
   -0.1997    1.5507   -0.0784 H   0  0  0  0  0  0  0  0  0  0  0  0
    0.6426    0.0232    1.7614 H   0  0  0  0  0  0  0  0  0  0  0  0
    0.4153   -1.3584    0.6849 H   0  0  0  0  0  0  0  0  0  0  0  0
    2.3610    1.9834   -0.2105 N   0  0  0  0  0  0  0  0  0  0  0  0
    3.7934    2.2682   -0.3617 C   0  0  2  0  0  0  0  0  0  0  0  0
    4.3129    3.2898    0.6712 C   0  0  0  0  0  0  0  0  0  0  0  0
    3.5478    4.0685    1.2289 O   0  0  0  0  0  0  0  0  0  0  0  0
    4.0321    2.7826   -1.7843 C   0  0  0  0  0  0  0  0  0  0  0  0
    1.7771    2.6953    0.2274 H   0  0  0  0  0  0  0  0  0  0  0  0
    4.3634    1.3452   -0.2139 H   0  0  0  0  0  0  0  0  0  0  0  0
    3.4688    3.7054   -1.9559 H   0  0  0  0  0  0  0  0  0  0  0  0
    5.0946    2.9859   -1.9461 H   0  0  0  0  0  0  0  0  0  0  0  0
    3.7081    2.0355   -2.5159 H   0  0  0  0  0  0  0  0  0  0  0  0
    5.6639    3.3450    0.9655 N   0  0  0  0  0  0  0  0  0  0  0  0
    6.2325    4.2511    1.9544 C   0  0  0  0  0  0  0  0  0  0  0  0
    6.2666    2.6598    0.5200 H   0  0  0  0  0  0  0  0  0  0  0  0
    5.9952    5.2902    1.7035 H   0  0  0  0  0  0  0  0  0  0  0  0
    5.8351    4.0285    2.9501 H   0  0  0  0  0  0  0  0  0  0  0  0
    7.3210    4.1432    1.9836 H   0  0  0  0  0  0  0  0  0  0  0  0
  1  2  2  0  0  0  0
  1  3  1  0  0  0  0
  1  7  1  0  0  0  0
  3  4  1  0  0  0  0
  3  5  1  0  0  0  0
  3  6  1  0  0  0  0
  7  8  1  0  0  0  0
  7 12  1  0  0  0  0
  8  9  1  0  0  0  0
  8 11  1  0  0  0  0
  8 13  1  0  0  0  0
  9 10  2  0  0  0  0
  9 17  1  0  0  0  0
 11 14  1  0  0  0  0
 11 15  1  0  0  0  0
 11 16  1  0  0  0  0
 17 18  1  0  0  0  0
 17 25  1  0  0  0  0
 18 19  1  0  0  0  0
 18 21  1  0  0  0  0
 18 26  1  0  0  0  0
 19 20  2  0  0  0  0
 19 29  1  0  0  0  0
 21 22  1  0  0  0  0
 21 27  1  0  0  0  0
 21 28  1  0  0  0  0
 22 23  1  0  0  0  0
 22 24  2  0  0  0  0
 29 30  1  0  0  0  0
 29 34  1  0  0  0  0
 30 31  1  0  0  0  0
 30 33  1  0  0  0  0
 30 35  1  0  0  0  0
 31 32  2  0  0  0  0
 31 39  1  0  0  0  0
 33 36  1  0  0  0  0
 33 37  1  0  0  0  0
 33 38  1  0  0  0  0
 39 40  1  0  0  0  0
 39 41  1  0  0  0  0
 40 42  1  0  0  0  0
 40 43  1  0  0  0  0
 40 44  1  0  0  0  0
M  CHG  1  23  -1
M  END
$$$$

  -OEChem-05262215553D

 44 43  0     1  0  0  0  0  0999 V2000
   -4.8392    0.0122   -3.6064 C   0  0  0  0  0  0  0  0  0  0  0  0
   -4.9895   -1.1812   -3.8227 O   0  0  0  0  0  0  0  0  0  0  0  0
   -6.0254    0.9537   -3.7071 C   0  0  0  0  0  0  0  0  0  0  0  0
   -5.8347    1.7135   -4.4687 H   0  0  0  0  0  0  0  0  0  0  0  0
   -6.9275    0.3987   -3.9787 H   0  0  0  0  0  0  0  0  0  0  0  0
   -6.1903    1.4459   -2.7452 H   0  0  0  0  0  0  0  0  0  0  0  0
   -3.5993    0.5221   -3.2896 N   0  0  0  0  0  0  0  0  0  0  0  0
   -2.4281   -0.2831   -2.9247 C   0  0  2  0  0  0  0  0  0  0  0  0
   -1.4268    0.5617   -2.1083 C   0  0  0  0  0  0  0  0  0  0  0  0
   -1.4990    1.7890   -2.1390 O   0  0  0  0  0  0  0  0  0  0  0  0
   -1.7576   -0.8149   -4.1966 C   0  0  0  0  0  0  0  0  0  0  0  0
   -3.5559    1.5036   -3.0141 H   0  0  0  0  0  0  0  0  0  0  0  0
   -2.7448   -1.1223   -2.2956 H   0  0  0  0  0  0  0  0  0  0  0  0
   -1.4407    0.0159   -4.8349 H   0  0  0  0  0  0  0  0  0  0  0  0
   -0.8790   -1.4160   -3.9438 H   0  0  0  0  0  0  0  0  0  0  0  0
   -2.4521   -1.4440   -4.7615 H   0  0  0  0  0  0  0  0  0  0  0  0
   -0.3976   -0.0515   -1.4223 N   0  0  0  0  0  0  0  0  0  0  0  0
    0.2681    0.5784   -0.2749 C   0  0  2  0  0  0  0  0  0  0  0  0
    1.7770    0.7835   -0.5242 C   0  0  0  0  0  0  0  0  0  0  0  0
    2.4221    0.0131   -1.2325 O   0  0  0  0  0  0  0  0  0  0  0  0
    0.0946   -0.3734    0.9238 C   0  0  0  0  0  0  0  0  0  0  0  0
   -1.3418   -0.4719    1.4257 C   0  0  0  0  0  0  0  0  0  0  0  0
   -2.1044    0.5135    1.2843 O   0  5  0  0  0  0  0  0  0  0  0  0
   -1.6846   -1.5765    1.9094 O   0  0  0  0  0  0  0  0  0  0  0  0
   -0.4140   -1.0659   -1.4211 H   0  0  0  0  0  0  0  0  0  0  0  0
   -0.1790    1.5516   -0.0412 H   0  0  0  0  0  0  0  0  0  0  0  0
    0.7027   -0.0108    1.7571 H   0  0  0  0  0  0  0  0  0  0  0  0
    0.4545   -1.3719    0.6582 H   0  0  0  0  0  0  0  0  0  0  0  0
    2.4419    1.8392    0.0728 N   0  0  0  0  0  0  0  0  0  0  0  0
    3.8838    2.0863   -0.0463 C   0  0  2  0  0  0  0  0  0  0  0  0
    4.4783    2.7632    1.2057 C   0  0  0  0  0  0  0  0  0  0  0  0
    3.7718    3.4184    1.9636 O   0  0  0  0  0  0  0  0  0  0  0  0
    4.1200    2.9582   -1.2827 C   0  0  0  0  0  0  0  0  0  0  0  0
    1.9128    2.4170    0.7253 H   0  0  0  0  0  0  0  0  0  0  0  0
    4.4062    1.1326   -0.1743 H   0  0  0  0  0  0  0  0  0  0  0  0
    3.6055    3.9186   -1.1759 H   0  0  0  0  0  0  0  0  0  0  0  0
    5.1888    3.1471   -1.4207 H   0  0  0  0  0  0  0  0  0  0  0  0
    3.7390    2.4567   -2.1781 H   0  0  0  0  0  0  0  0  0  0  0  0
    5.8313    2.6505    1.4726 N   0  0  0  0  0  0  0  0  0  0  0  0
    6.4649    3.2276    2.6503 C   0  0  0  0  0  0  0  0  0  0  0  0
    6.3817    2.0640    0.8525 H   0  0  0  0  0  0  0  0  0  0  0  0
    6.3219    4.3131    2.6686 H   0  0  0  0  0  0  0  0  0  0  0  0
    6.0374    2.7987    3.5626 H   0  0  0  0  0  0  0  0  0  0  0  0
    7.5393    3.0214    2.6398 H   0  0  0  0  0  0  0  0  0  0  0  0
  1  2  2  0  0  0  0
  1  3  1  0  0  0  0
  1  7  1  0  0  0  0
  3  4  1  0  0  0  0
  3  5  1  0  0  0  0
  3  6  1  0  0  0  0
  7  8  1  0  0  0  0
  7 12  1  0  0  0  0
  8  9  1  0  0  0  0
  8 11  1  0  0  0  0
  8 13  1  0  0  0  0
  9 10  2  0  0  0  0
  9 17  1  0  0  0  0
 11 14  1  0  0  0  0
 11 15  1  0  0  0  0
 11 16  1  0  0  0  0
 17 18  1  0  0  0  0
 17 25  1  0  0  0  0
 18 19  1  0  0  0  0
 18 21  1  0  0  0  0
 18 26  1  0  0  0  0
 19 20  2  0  0  0  0
 19 29  1  0  0  0  0
 21 22  1  0  0  0  0
 21 27  1  0  0  0  0
 21 28  1  0  0  0  0
 22 23  1  0  0  0  0
 22 24  2  0  0  0  0
 29 30  1  0  0  0  0
 29 34  1  0  0  0  0
 30 31  1  0  0  0  0
 30 33  1  0  0  0  0
 30 35  1  0  0  0  0
 31 32  2  0  0  0  0
 31 39  1  0  0  0  0
 33 36  1  0  0  0  0
 33 37  1  0  0  0  0
 33 38  1  0  0  0  0
 39 40  1  0  0  0  0
 39 41  1  0  0  0  0
 40 42  1  0  0  0  0
 40 43  1  0  0  0  0
 40 44  1  0  0  0  0
M  CHG  1  23  -1
M  END
$$$$

  -OEChem-05262215553D

 44 43  0     1  0  0  0  0  0999 V2000
   -4.8307    0.0219   -3.6092 C   0  0  0  0  0  0  0  0  0  0  0  0
   -4.9730   -1.1684   -3.8469 O   0  0  0  0  0  0  0  0  0  0  0  0
   -6.0254    0.9551   -3.6866 C   0  0  0  0  0  0  0  0  0  0  0  0
   -5.8145    1.7758   -4.3765 H   0  0  0  0  0  0  0  0  0  0  0  0
   -6.9067    0.4132   -4.0402 H   0  0  0  0  0  0  0  0  0  0  0  0
   -6.2377    1.3660   -2.6963 H   0  0  0  0  0  0  0  0  0  0  0  0
   -3.5948    0.5349   -3.2818 N   0  0  0  0  0  0  0  0  0  0  0  0
   -2.4175   -0.2676   -2.9290 C   0  0  2  0  0  0  0  0  0  0  0  0
   -1.4209    0.5726   -2.1011 C   0  0  0  0  0  0  0  0  0  0  0  0
   -1.5066    1.7994   -2.1098 O   0  0  0  0  0  0  0  0  0  0  0  0
   -1.7446   -0.7782   -4.2089 C   0  0  0  0  0  0  0  0  0  0  0  0
   -3.5598    1.5113   -2.9876 H   0  0  0  0  0  0  0  0  0  0  0  0
   -2.7286   -1.1170   -2.3108 H   0  0  0  0  0  0  0  0  0  0  0  0
   -1.4396    0.0631   -4.8393 H   0  0  0  0  0  0  0  0  0  0  0  0
   -0.8580   -1.3720   -3.9660 H   0  0  0  0  0  0  0  0  0  0  0  0
   -2.4333   -1.4090   -4.7789 H   0  0  0  0  0  0  0  0  0  0  0  0
   -0.3849   -0.0423   -1.4267 N   0  0  0  0  0  0  0  0  0  0  0  0
    0.2878    0.5800   -0.2784 C   0  0  2  0  0  0  0  0  0  0  0  0
    1.7969    0.7972   -0.5246 C   0  0  0  0  0  0  0  0  0  0  0  0
    2.4006    0.2038   -1.4161 O   0  0  0  0  0  0  0  0  0  0  0  0
    0.1214   -0.3950    0.9042 C   0  0  0  0  0  0  0  0  0  0  0  0
   -1.3121   -0.5073    1.4110 C   0  0  0  0  0  0  0  0  0  0  0  0
   -2.0790    0.4775    1.2922 O   0  5  0  0  0  0  0  0  0  0  0  0
   -1.6490   -1.6236    1.8712 O   0  0  0  0  0  0  0  0  0  0  0  0
   -0.3913   -1.0562   -1.4424 H   0  0  0  0  0  0  0  0  0  0  0  0
   -0.1616    1.5483   -0.0295 H   0  0  0  0  0  0  0  0  0  0  0  0
    0.7296   -0.0493    1.7443 H   0  0  0  0  0  0  0  0  0  0  0  0
    0.4829   -1.3874    0.6180 H   0  0  0  0  0  0  0  0  0  0  0  0
    2.5166    1.6394    0.3043 N   0  0  0  0  0  0  0  0  0  0  0  0
    3.9680    1.8439    0.2252 C   0  0  2  0  0  0  0  0  0  0  0  0
    4.6065    2.1220    1.6012 C   0  0  0  0  0  0  0  0  0  0  0  0
    3.9435    2.5876    2.5211 O   0  0  0  0  0  0  0  0  0  0  0  0
    4.2359    3.0102   -0.7298 C   0  0  0  0  0  0  0  0  0  0  0  0
    2.0236    2.0412    1.1014 H   0  0  0  0  0  0  0  0  0  0  0  0
    4.4420    0.9401   -0.1712 H   0  0  0  0  0  0  0  0  0  0  0  0
    3.7723    3.9269   -0.3515 H   0  0  0  0  0  0  0  0  0  0  0  0
    5.3114    3.1801   -0.8362 H   0  0  0  0  0  0  0  0  0  0  0  0
    3.8209    2.7921   -1.7191 H   0  0  0  0  0  0  0  0  0  0  0  0
    5.9505    1.8606    1.7999 N   0  0  0  0  0  0  0  0  0  0  0  0
    6.6229    2.0463    3.0785 C   0  0  0  0  0  0  0  0  0  0  0  0
    6.4577    1.4261    1.0348 H   0  0  0  0  0  0  0  0  0  0  0  0
    6.5217    3.0824    3.4182 H   0  0  0  0  0  0  0  0  0  0  0  0
    6.1949    1.3819    3.8364 H   0  0  0  0  0  0  0  0  0  0  0  0
    7.6884    1.8185    2.9794 H   0  0  0  0  0  0  0  0  0  0  0  0
  1  2  2  0  0  0  0
  1  3  1  0  0  0  0
  1  7  1  0  0  0  0
  3  4  1  0  0  0  0
  3  5  1  0  0  0  0
  3  6  1  0  0  0  0
  7  8  1  0  0  0  0
  7 12  1  0  0  0  0
  8  9  1  0  0  0  0
  8 11  1  0  0  0  0
  8 13  1  0  0  0  0
  9 10  2  0  0  0  0
  9 17  1  0  0  0  0
 11 14  1  0  0  0  0
 11 15  1  0  0  0  0
 11 16  1  0  0  0  0
 17 18  1  0  0  0  0
 17 25  1  0  0  0  0
 18 19  1  0  0  0  0
 18 21  1  0  0  0  0
 18 26  1  0  0  0  0
 19 20  2  0  0  0  0
 19 29  1  0  0  0  0
 21 22  1  0  0  0  0
 21 27  1  0  0  0  0
 21 28  1  0  0  0  0
 22 23  1  0  0  0  0
 22 24  2  0  0  0  0
 29 30  1  0  0  0  0
 29 34  1  0  0  0  0
 30 31  1  0  0  0  0
 30 33  1  0  0  0  0
 30 35  1  0  0  0  0
 31 32  2  0  0  0  0
 31 39  1  0  0  0  0
 33 36  1  0  0  0  0
 33 37  1  0  0  0  0
 33 38  1  0  0  0  0
 39 40  1  0  0  0  0
 39 41  1  0  0  0  0
 40 42  1  0  0  0  0
 40 43  1  0  0  0  0
 40 44  1  0  0  0  0
M  CHG  1  23  -1
M  END
$$$$

  -OEChem-05262215553D

 44 43  0     1  0  0  0  0  0999 V2000
   -4.7873   -0.0492   -3.7052 C   0  0  0  0  0  0  0  0  0  0  0  0
   -4.8672   -1.2379   -3.9763 O   0  0  0  0  0  0  0  0  0  0  0  0
   -6.0094    0.8399   -3.8425 C   0  0  0  0  0  0  0  0  0  0  0  0
   -5.7801    1.6934   -4.4854 H   0  0  0  0  0  0  0  0  0  0  0  0
   -6.8381    0.2782   -4.2824 H   0  0  0  0  0  0  0  0  0  0  0  0
   -6.3132    1.2054   -2.8583 H   0  0  0  0  0  0  0  0  0  0  0  0
   -3.5962    0.5010   -3.2861 N   0  0  0  0  0  0  0  0  0  0  0  0
   -2.4041   -0.2645   -2.9023 C   0  0  2  0  0  0  0  0  0  0  0  0
   -1.4949    0.5725   -1.9768 C   0  0  0  0  0  0  0  0  0  0  0  0
   -1.6858    1.7831   -1.8708 O   0  0  0  0  0  0  0  0  0  0  0  0
   -1.6353   -0.6766   -4.1632 C   0  0  0  0  0  0  0  0  0  0  0  0
   -3.6150    1.4704   -2.9684 H   0  0  0  0  0  0  0  0  0  0  0  0
   -2.7077   -1.1591   -2.3474 H   0  0  0  0  0  0  0  0  0  0  0  0
   -1.3211    0.2094   -4.7240 H   0  0  0  0  0  0  0  0  0  0  0  0
   -0.7448   -1.2542   -3.8973 H   0  0  0  0  0  0  0  0  0  0  0  0
   -2.2640   -1.2951   -4.8106 H   0  0  0  0  0  0  0  0  0  0  0  0
   -0.4412   -0.0283   -1.3181 N   0  0  0  0  0  0  0  0  0  0  0  0
    0.2475    0.6010   -0.1841 C   0  0  2  0  0  0  0  0  0  0  0  0
    1.6363    1.1671   -0.5655 C   0  0  0  0  0  0  0  0  0  0  0  0
    2.1197    1.0130   -1.6851 O   0  0  0  0  0  0  0  0  0  0  0  0
    0.4231   -0.5137    0.8680 C   0  0  0  0  0  0  0  0  0  0  0  0
   -0.8877   -0.9663    1.5021 C   0  0  0  0  0  0  0  0  0  0  0  0
   -1.8322   -0.1472    1.5969 O   0  5  0  0  0  0  0  0  0  0  0  0
   -0.9548   -2.1751    1.8270 O   0  0  0  0  0  0  0  0  0  0  0  0
   -0.4070   -1.0408   -1.3666 H   0  0  0  0  0  0  0  0  0  0  0  0
   -0.3493    1.4183    0.2371 H   0  0  0  0  0  0  0  0  0  0  0  0
    1.0564   -0.1513    1.6812 H   0  0  0  0  0  0  0  0  0  0  0  0
    0.9244   -1.3739    0.4148 H   0  0  0  0  0  0  0  0  0  0  0  0
    2.4130    1.7944    0.3932 N   0  0  0  0  0  0  0  0  0  0  0  0
    3.7989    2.2335    0.1889 C   0  0  2  0  0  0  0  0  0  0  0  0
    4.6572    2.0930    1.4630 C   0  0  0  0  0  0  0  0  0  0  0  0
    4.1430    2.1378    2.5749 O   0  0  0  0  0  0  0  0  0  0  0  0
    3.7768    3.6905   -0.2805 C   0  0  0  0  0  0  0  0  0  0  0  0
    2.0477    1.8114    1.3448 H   0  0  0  0  0  0  0  0  0  0  0  0
    4.2683    1.6162   -0.5838 H   0  0  0  0  0  0  0  0  0  0  0  0
    3.3136    4.3296    0.4779 H   0  0  0  0  0  0  0  0  0  0  0  0
    4.7938    4.0486   -0.4658 H   0  0  0  0  0  0  0  0  0  0  0  0
    3.2034    3.7793   -1.2087 H   0  0  0  0  0  0  0  0  0  0  0  0
    6.0275    1.9308    1.3583 N   0  0  0  0  0  0  0  0  0  0  0  0
    6.8990    1.7312    2.5085 C   0  0  0  0  0  0  0  0  0  0  0  0
    6.4139    1.8319    0.4243 H   0  0  0  0  0  0  0  0  0  0  0  0
    6.8288    2.5819    3.1941 H   0  0  0  0  0  0  0  0  0  0  0  0
    6.6199    0.8191    3.0463 H   0  0  0  0  0  0  0  0  0  0  0  0
    7.9386    1.6365    2.1815 H   0  0  0  0  0  0  0  0  0  0  0  0
  1  2  2  0  0  0  0
  1  3  1  0  0  0  0
  1  7  1  0  0  0  0
  3  4  1  0  0  0  0
  3  5  1  0  0  0  0
  3  6  1  0  0  0  0
  7  8  1  0  0  0  0
  7 12  1  0  0  0  0
  8  9  1  0  0  0  0
  8 11  1  0  0  0  0
  8 13  1  0  0  0  0
  9 10  2  0  0  0  0
  9 17  1  0  0  0  0
 11 14  1  0  0  0  0
 11 15  1  0  0  0  0
 11 16  1  0  0  0  0
 17 18  1  0  0  0  0
 17 25  1  0  0  0  0
 18 19  1  0  0  0  0
 18 21  1  0  0  0  0
 18 26  1  0  0  0  0
 19 20  2  0  0  0  0
 19 29  1  0  0  0  0
 21 22  1  0  0  0  0
 21 27  1  0  0  0  0
 21 28  1  0  0  0  0
 22 23  1  0  0  0  0
 22 24  2  0  0  0  0
 29 30  1  0  0  0  0
 29 34  1  0  0  0  0
 30 31  1  0  0  0  0
 30 33  1  0  0  0  0
 30 35  1  0  0  0  0
 31 32  2  0  0  0  0
 31 39  1  0  0  0  0
 33 36  1  0  0  0  0
 33 37  1  0  0  0  0
 33 38  1  0  0  0  0
 39 40  1  0  0  0  0
 39 41  1  0  0  0  0
 40 42  1  0  0  0  0
 40 43  1  0  0  0  0
 40 44  1  0  0  0  0
M  CHG  1  23  -1
M  END
$$$$

  -OEChem-05262215553D

 44 43  0     1  0  0  0  0  0999 V2000
   -4.7627   -0.0378   -3.7223 C   0  0  0  0  0  0  0  0  0  0  0  0
   -4.8308   -1.2214   -4.0186 O   0  0  0  0  0  0  0  0  0  0  0  0
   -5.9927    0.8428   -3.8519 C   0  0  0  0  0  0  0  0  0  0  0  0
   -5.7597    1.7257   -4.4522 H   0  0  0  0  0  0  0  0  0  0  0  0
   -6.8032    0.2912   -4.3363 H   0  0  0  0  0  0  0  0  0  0  0  0
   -6.3257    1.1626   -2.8612 H   0  0  0  0  0  0  0  0  0  0  0  0
   -3.5790    0.5123   -3.2813 N   0  0  0  0  0  0  0  0  0  0  0  0
   -2.3837   -0.2515   -2.9030 C   0  0  2  0  0  0  0  0  0  0  0  0
   -1.4877    0.5755   -1.9548 C   0  0  0  0  0  0  0  0  0  0  0  0
   -1.6932    1.7814   -1.8270 O   0  0  0  0  0  0  0  0  0  0  0  0
   -1.6022   -0.6336   -4.1654 C   0  0  0  0  0  0  0  0  0  0  0  0
   -3.6055    1.4757   -2.9459 H   0  0  0  0  0  0  0  0  0  0  0  0
   -2.6852   -1.1588   -2.3680 H   0  0  0  0  0  0  0  0  0  0  0  0
   -1.2944    0.2657   -4.7081 H   0  0  0  0  0  0  0  0  0  0  0  0
   -0.7071   -1.2057   -3.9032 H   0  0  0  0  0  0  0  0  0  0  0  0
   -2.2196   -1.2475   -4.8278 H   0  0  0  0  0  0  0  0  0  0  0  0
   -0.4377   -0.0311   -1.2937 N   0  0  0  0  0  0  0  0  0  0  0  0
    0.2367    0.5886   -0.1449 C   0  0  2  0  0  0  0  0  0  0  0  0
    1.6294    1.1649   -0.5098 C   0  0  0  0  0  0  0  0  0  0  0  0
    2.0151    1.2494   -1.6734 O   0  0  0  0  0  0  0  0  0  0  0  0
    0.3863   -0.5481    0.8911 C   0  0  0  0  0  0  0  0  0  0  0  0
   -0.9383   -1.0034    1.4944 C   0  0  0  0  0  0  0  0  0  0  0  0
   -1.8799   -0.1813    1.5891 O   0  5  0  0  0  0  0  0  0  0  0  0
   -1.0176   -2.2183    1.7924 O   0  0  0  0  0  0  0  0  0  0  0  0
   -0.4071   -1.0435   -1.3483 H   0  0  0  0  0  0  0  0  0  0  0  0
   -0.3638    1.4009    0.2815 H   0  0  0  0  0  0  0  0  0  0  0  0
    1.0018   -0.2086    1.7268 H   0  0  0  0  0  0  0  0  0  0  0  0
    0.8920   -1.4029    0.4327 H   0  0  0  0  0  0  0  0  0  0  0  0
    2.5307    1.5050    0.4848 N   0  0  0  0  0  0  0  0  0  0  0  0
    3.9298    1.8878    0.2560 C   0  0  2  0  0  0  0  0  0  0  0  0
    4.8631    1.3779    1.3731 C   0  0  0  0  0  0  0  0  0  0  0  0
    4.4402    1.2024    2.5102 O   0  0  0  0  0  0  0  0  0  0  0  0
    3.9993    3.4137    0.1566 C   0  0  0  0  0  0  0  0  0  0  0  0
    2.2470    1.3166    1.4458 H   0  0  0  0  0  0  0  0  0  0  0  0
    4.2832    1.4516   -0.6840 H   0  0  0  0  0  0  0  0  0  0  0  0
    3.6582    3.8735    1.0897 H   0  0  0  0  0  0  0  0  0  0  0  0
    5.0253    3.7389   -0.0392 H   0  0  0  0  0  0  0  0  0  0  0  0
    3.3622    3.7681   -0.6600 H   0  0  0  0  0  0  0  0  0  0  0  0
    6.1955    1.1222    1.1020 N   0  0  0  0  0  0  0  0  0  0  0  0
    7.1126    0.5552    2.0820 C   0  0  0  0  0  0  0  0  0  0  0  0
    6.4987    1.2102    0.1369 H   0  0  0  0  0  0  0  0  0  0  0  0
    7.1853    1.2052    2.9602 H   0  0  0  0  0  0  0  0  0  0  0  0
    6.7663   -0.4333    2.4017 H   0  0  0  0  0  0  0  0  0  0  0  0
    8.1112    0.4488    1.6478 H   0  0  0  0  0  0  0  0  0  0  0  0
  1  2  2  0  0  0  0
  1  3  1  0  0  0  0
  1  7  1  0  0  0  0
  3  4  1  0  0  0  0
  3  5  1  0  0  0  0
  3  6  1  0  0  0  0
  7  8  1  0  0  0  0
  7 12  1  0  0  0  0
  8  9  1  0  0  0  0
  8 11  1  0  0  0  0
  8 13  1  0  0  0  0
  9 10  2  0  0  0  0
  9 17  1  0  0  0  0
 11 14  1  0  0  0  0
 11 15  1  0  0  0  0
 11 16  1  0  0  0  0
 17 18  1  0  0  0  0
 17 25  1  0  0  0  0
 18 19  1  0  0  0  0
 18 21  1  0  0  0  0
 18 26  1  0  0  0  0
 19 20  2  0  0  0  0
 19 29  1  0  0  0  0
 21 22  1  0  0  0  0
 21 27  1  0  0  0  0
 21 28  1  0  0  0  0
 22 23  1  0  0  0  0
 22 24  2  0  0  0  0
 29 30  1  0  0  0  0
 29 34  1  0  0  0  0
 30 31  1  0  0  0  0
 30 33  1  0  0  0  0
 30 35  1  0  0  0  0
 31 32  2  0  0  0  0
 31 39  1  0  0  0  0
 33 36  1  0  0  0  0
 33 37  1  0  0  0  0
 33 38  1  0  0  0  0
 39 40  1  0  0  0  0
 39 41  1  0  0  0  0
 40 42  1  0  0  0  0
 40 43  1  0  0  0  0
 40 44  1  0  0  0  0
M  CHG  1  23  -1
M  END
$$$$

  -OEChem-05262215553D

 44 43  0     1  0  0  0  0  0999 V2000
   -4.7218   -0.0305   -3.7630 C   0  0  0  0  0  0  0  0  0  0  0  0
   -4.7652   -1.2073   -4.0894 O   0  0  0  0  0  0  0  0  0  0  0  0
   -5.9613    0.8350   -3.8970 C   0  0  0  0  0  0  0  0  0  0  0  0
   -5.7389    1.7142   -4.5065 H   0  0  0  0  0  0  0  0  0  0  0  0
   -6.7675    0.2703   -4.3733 H   0  0  0  0  0  0  0  0  0  0  0  0
   -6.2941    1.1605   -2.9080 H   0  0  0  0  0  0  0  0  0  0  0  0
   -3.5563    0.5259   -3.2840 N   0  0  0  0  0  0  0  0  0  0  0  0
   -2.3562   -0.2297   -2.9048 C   0  0  2  0  0  0  0  0  0  0  0  0
   -1.4872    0.5825   -1.9195 C   0  0  0  0  0  0  0  0  0  0  0  0
   -1.7024    1.7845   -1.7754 O   0  0  0  0  0  0  0  0  0  0  0  0
   -1.5488   -0.5654   -4.1641 C   0  0  0  0  0  0  0  0  0  0  0  0
   -3.6034    1.4801   -2.9255 H   0  0  0  0  0  0  0  0  0  0  0  0
   -2.6532   -1.1554   -2.3996 H   0  0  0  0  0  0  0  0  0  0  0  0
   -1.2504    0.3527   -4.6799 H   0  0  0  0  0  0  0  0  0  0  0  0
   -0.6468   -1.1270   -3.9034 H   0  0  0  0  0  0  0  0  0  0  0  0
   -2.1451   -1.1739   -4.8502 H   0  0  0  0  0  0  0  0  0  0  0  0
   -0.4561   -0.0381   -1.2407 N   0  0  0  0  0  0  0  0  0  0  0  0
    0.2032    0.5660   -0.0748 C   0  0  2  0  0  0  0  0  0  0  0  0
    1.6089    1.1247   -0.4256 C   0  0  0  0  0  0  0  0  0  0  0  0
    1.9030    1.4600   -1.5698 O   0  0  0  0  0  0  0  0  0  0  0  0
    0.3040   -0.5750    0.9637 C   0  0  0  0  0  0  0  0  0  0  0  0
   -1.0437   -1.0039    1.5344 C   0  0  0  0  0  0  0  0  0  0  0  0
   -1.9721   -0.1651    1.6085 O   0  5  0  0  0  0  0  0  0  0  0  0
   -1.1515   -2.2172    1.8293 O   0  0  0  0  0  0  0  0  0  0  0  0
   -0.4346   -1.0501   -1.3049 H   0  0  0  0  0  0  0  0  0  0  0  0
   -0.3904    1.3889    0.3406 H   0  0  0  0  0  0  0  0  0  0  0  0
    0.8988   -0.2466    1.8185 H   0  0  0  0  0  0  0  0  0  0  0  0
    0.8054   -1.4395    0.5187 H   0  0  0  0  0  0  0  0  0  0  0  0
    2.6200    1.1664    0.5204 N   0  0  0  0  0  0  0  0  0  0  0  0
    4.0237    1.4904    0.2349 C   0  0  2  0  0  0  0  0  0  0  0  0
    4.9976    0.6603    1.0955 C   0  0  0  0  0  0  0  0  0  0  0  0
    4.6629    0.2513    2.2016 O   0  0  0  0  0  0  0  0  0  0  0  0
    4.2321    2.9867    0.4811 C   0  0  0  0  0  0  0  0  0  0  0  0
    2.4100    0.7621    1.4323 H   0  0  0  0  0  0  0  0  0  0  0  0
    4.2490    1.2660   -0.8127 H   0  0  0  0  0  0  0  0  0  0  0  0
    4.0212    3.2350    1.5261 H   0  0  0  0  0  0  0  0  0  0  0  0
    5.2637    3.2718    0.2550 H   0  0  0  0  0  0  0  0  0  0  0  0
    3.5630    3.5716   -0.1582 H   0  0  0  0  0  0  0  0  0  0  0  0
    6.2673    0.3742    0.6260 N   0  0  0  0  0  0  0  0  0  0  0  0
    7.2117   -0.4705    1.3455 C   0  0  0  0  0  0  0  0  0  0  0  0
    6.4914    0.6697   -0.3194 H   0  0  0  0  0  0  0  0  0  0  0  0
    7.4503   -0.0337    2.3209 H   0  0  0  0  0  0  0  0  0  0  0  0
    6.7907   -1.4698    1.4991 H   0  0  0  0  0  0  0  0  0  0  0  0
    8.1400   -0.5697    0.7749 H   0  0  0  0  0  0  0  0  0  0  0  0
  1  2  2  0  0  0  0
  1  3  1  0  0  0  0
  1  7  1  0  0  0  0
  3  4  1  0  0  0  0
  3  5  1  0  0  0  0
  3  6  1  0  0  0  0
  7  8  1  0  0  0  0
  7 12  1  0  0  0  0
  8  9  1  0  0  0  0
  8 11  1  0  0  0  0
  8 13  1  0  0  0  0
  9 10  2  0  0  0  0
  9 17  1  0  0  0  0
 11 14  1  0  0  0  0
 11 15  1  0  0  0  0
 11 16  1  0  0  0  0
 17 18  1  0  0  0  0
 17 25  1  0  0  0  0
 18 19  1  0  0  0  0
 18 21  1  0  0  0  0
 18 26  1  0  0  0  0
 19 20  2  0  0  0  0
 19 29  1  0  0  0  0
 21 22  1  0  0  0  0
 21 27  1  0  0  0  0
 21 28  1  0  0  0  0
 22 23  1  0  0  0  0
 22 24  2  0  0  0  0
 29 30  1  0  0  0  0
 29 34  1  0  0  0  0
 30 31  1  0  0  0  0
 30 33  1  0  0  0  0
 30 35  1  0  0  0  0
 31 32  2  0  0  0  0
 31 39  1  0  0  0  0
 33 36  1  0  0  0  0
 33 37  1  0  0  0  0
 33 38  1  0  0  0  0
 39 40  1  0  0  0  0
 39 41  1  0  0  0  0
 40 42  1  0  0  0  0
 40 43  1  0  0  0  0
 40 44  1  0  0  0  0
M  CHG  1  23  -1
M  END
$$$$

  -OEChem-05262215553D

 44 43  0     1  0  0  0  0  0999 V2000
   -4.7175    0.0058   -3.7508 C   0  0  0  0  0  0  0  0  0  0  0  0
   -4.8028   -1.1777   -4.0434 O   0  0  0  0  0  0  0  0  0  0  0  0
   -5.9308    0.9078   -3.8851 C   0  0  0  0  0  0  0  0  0  0  0  0
   -5.7078    1.7320   -4.5671 H   0  0  0  0  0  0  0  0  0  0  0  0
   -6.7817    0.3439   -4.2774 H   0  0  0  0  0  0  0  0  0  0  0  0
   -6.1991    1.3153   -2.9070 H   0  0  0  0  0  0  0  0  0  0  0  0
   -3.5256    0.5392   -3.3129 N   0  0  0  0  0  0  0  0  0  0  0  0
   -2.3480   -0.2439   -2.9200 C   0  0  2  0  0  0  0  0  0  0  0  0
   -1.4628    0.5595   -1.9421 C   0  0  0  0  0  0  0  0  0  0  0  0
   -1.6413    1.7703   -1.8290 O   0  0  0  0  0  0  0  0  0  0  0  0
   -1.5483   -0.6139   -4.1739 C   0  0  0  0  0  0  0  0  0  0  0  0
   -3.5390    1.5035   -2.9791 H   0  0  0  0  0  0  0  0  0  0  0  0
   -2.6698   -1.1562   -2.4056 H   0  0  0  0  0  0  0  0  0  0  0  0
   -1.2082    0.2901   -4.6889 H   0  0  0  0  0  0  0  0  0  0  0  0
   -0.6728   -1.2127   -3.9067 H   0  0  0  0  0  0  0  0  0  0  0  0
   -2.1660   -1.1966   -4.8636 H   0  0  0  0  0  0  0  0  0  0  0  0
   -0.4646   -0.0815   -1.2328 N   0  0  0  0  0  0  0  0  0  0  0  0
    0.1847    0.5230   -0.0612 C   0  0  2  0  0  0  0  0  0  0  0  0
    1.6120    1.0349   -0.3973 C   0  0  0  0  0  0  0  0  0  0  0  0
    1.8553    1.6006   -1.4588 O   0  0  0  0  0  0  0  0  0  0  0  0
    0.2167   -0.5959    1.0057 C   0  0  0  0  0  0  0  0  0  0  0  0
   -1.1610   -0.9628    1.5487 C   0  0  0  0  0  0  0  0  0  0  0  0
   -2.0607   -0.0908    1.5783 O   0  5  0  0  0  0  0  0  0  0  0  0
   -1.3215   -2.1657    1.8615 O   0  0  0  0  0  0  0  0  0  0  0  0
   -0.4992   -1.0949   -1.2582 H   0  0  0  0  0  0  0  0  0  0  0  0
   -0.3905    1.3738    0.3230 H   0  0  0  0  0  0  0  0  0  0  0  0
    0.7978   -0.2626    1.8683 H   0  0  0  0  0  0  0  0  0  0  0  0
    0.7000   -1.4886    0.5972 H   0  0  0  0  0  0  0  0  0  0  0  0
    2.6866    0.7915    0.4431 N   0  0  0  0  0  0  0  0  0  0  0  0
    4.0890    1.0904    0.1238 C   0  0  2  0  0  0  0  0  0  0  0  0
    5.0529    0.0096    0.6537 C   0  0  0  0  0  0  0  0  0  0  0  0
    4.7689   -0.6505    1.6467 O   0  0  0  0  0  0  0  0  0  0  0  0
    4.4364    2.4548    0.7235 C   0  0  0  0  0  0  0  0  0  0  0  0
    2.5065    0.2034    1.2560 H   0  0  0  0  0  0  0  0  0  0  0  0
    4.2218    1.1336   -0.9616 H   0  0  0  0  0  0  0  0  0  0  0  0
    4.3096    2.4367    1.8106 H   0  0  0  0  0  0  0  0  0  0  0  0
    5.4731    2.7211    0.4970 H   0  0  0  0  0  0  0  0  0  0  0  0
    3.7814    3.2273    0.3082 H   0  0  0  0  0  0  0  0  0  0  0  0
    6.2615   -0.2127    0.0176 N   0  0  0  0  0  0  0  0  0  0  0  0
    7.1999   -1.2502    0.4249 C   0  0  0  0  0  0  0  0  0  0  0  0
    6.4434    0.3113   -0.8333 H   0  0  0  0  0  0  0  0  0  0  0  0
    7.5331   -1.0822    1.4543 H   0  0  0  0  0  0  0  0  0  0  0  0
    6.7299   -2.2371    0.3622 H   0  0  0  0  0  0  0  0  0  0  0  0
    8.0777   -1.2431   -0.2280 H   0  0  0  0  0  0  0  0  0  0  0  0
  1  2  2  0  0  0  0
  1  3  1  0  0  0  0
  1  7  1  0  0  0  0
  3  4  1  0  0  0  0
  3  5  1  0  0  0  0
  3  6  1  0  0  0  0
  7  8  1  0  0  0  0
  7 12  1  0  0  0  0
  8  9  1  0  0  0  0
  8 11  1  0  0  0  0
  8 13  1  0  0  0  0
  9 10  2  0  0  0  0
  9 17  1  0  0  0  0
 11 14  1  0  0  0  0
 11 15  1  0  0  0  0
 11 16  1  0  0  0  0
 17 18  1  0  0  0  0
 17 25  1  0  0  0  0
 18 19  1  0  0  0  0
 18 21  1  0  0  0  0
 18 26  1  0  0  0  0
 19 20  2  0  0  0  0
 19 29  1  0  0  0  0
 21 22  1  0  0  0  0
 21 27  1  0  0  0  0
 21 28  1  0  0  0  0
 22 23  1  0  0  0  0
 22 24  2  0  0  0  0
 29 30  1  0  0  0  0
 29 34  1  0  0  0  0
 30 31  1  0  0  0  0
 30 33  1  0  0  0  0
 30 35  1  0  0  0  0
 31 32  2  0  0  0  0
 31 39  1  0  0  0  0
 33 36  1  0  0  0  0
 33 37  1  0  0  0  0
 33 38  1  0  0  0  0
 39 40  1  0  0  0  0
 39 41  1  0  0  0  0
 40 42  1  0  0  0  0
 40 43  1  0  0  0  0
 40 44  1  0  0  0  0
M  CHG  1  23  -1
M  END
$$$$

  -OEChem-05262215553D

 44 43  0     1  0  0  0  0  0999 V2000
   -4.7041    0.0050   -3.7612 C   0  0  0  0  0  0  0  0  0  0  0  0
   -4.7917   -1.1787   -4.0522 O   0  0  0  0  0  0  0  0  0  0  0  0
   -5.9163    0.9087   -3.8958 C   0  0  0  0  0  0  0  0  0  0  0  0
   -5.6855    1.7468   -4.5577 H   0  0  0  0  0  0  0  0  0  0  0  0
   -6.7595    0.3511   -4.3126 H   0  0  0  0  0  0  0  0  0  0  0  0
   -6.1998    1.2969   -2.9141 H   0  0  0  0  0  0  0  0  0  0  0  0
   -3.5113    0.5352   -3.3215 N   0  0  0  0  0  0  0  0  0  0  0  0
   -2.3387   -0.2513   -2.9211 C   0  0  2  0  0  0  0  0  0  0  0  0
   -1.4542    0.5532   -1.9436 C   0  0  0  0  0  0  0  0  0  0  0  0
   -1.6172    1.7675   -1.8519 O   0  0  0  0  0  0  0  0  0  0  0  0
   -1.5360   -0.6307   -4.1705 C   0  0  0  0  0  0  0  0  0  0  0  0
   -3.5217    1.5004   -2.9903 H   0  0  0  0  0  0  0  0  0  0  0  0
   -2.6674   -1.1593   -2.4038 H   0  0  0  0  0  0  0  0  0  0  0  0
   -1.1972    0.2698   -4.6927 H   0  0  0  0  0  0  0  0  0  0  0  0
   -0.6596   -1.2254   -3.8964 H   0  0  0  0  0  0  0  0  0  0  0  0
   -2.1512   -1.2213   -4.8561 H   0  0  0  0  0  0  0  0  0  0  0  0
   -0.4739   -0.0918   -1.2125 N   0  0  0  0  0  0  0  0  0  0  0  0
    0.1717    0.5206   -0.0431 C   0  0  2  0  0  0  0  0  0  0  0  0
    1.6087    1.0017   -0.3773 C   0  0  0  0  0  0  0  0  0  0  0  0
    1.8245    1.7779   -1.3019 O   0  0  0  0  0  0  0  0  0  0  0  0
    0.1806   -0.5717    1.0512 C   0  0  0  0  0  0  0  0  0  0  0  0
   -1.2035   -0.9105    1.5943 C   0  0  0  0  0  0  0  0  0  0  0  0
   -2.0943   -0.0295    1.5974 O   0  5  0  0  0  0  0  0  0  0  0  0
   -1.3759   -2.1025    1.9403 O   0  0  0  0  0  0  0  0  0  0  0  0
   -0.5298   -1.1048   -1.2178 H   0  0  0  0  0  0  0  0  0  0  0  0
   -0.3925    1.3886    0.3175 H   0  0  0  0  0  0  0  0  0  0  0  0
    0.7644   -0.2204    1.9060 H   0  0  0  0  0  0  0  0  0  0  0  0
    0.6528   -1.4815    0.6680 H   0  0  0  0  0  0  0  0  0  0  0  0
    2.7111    0.5035    0.2982 N   0  0  0  0  0  0  0  0  0  0  0  0
    4.1093    0.7469   -0.0784 C   0  0  2  0  0  0  0  0  0  0  0  0
    4.9814   -0.5155    0.0762 C   0  0  0  0  0  0  0  0  0  0  0  0
    4.6901   -1.3826    0.8923 O   0  0  0  0  0  0  0  0  0  0  0  0
    4.6481    1.8812    0.7962 C   0  0  0  0  0  0  0  0  0  0  0  0
    2.5310   -0.2403    0.9719 H   0  0  0  0  0  0  0  0  0  0  0  0
    4.1659    1.0490   -1.1290 H   0  0  0  0  0  0  0  0  0  0  0  0
    4.5984    1.6047    1.8544 H   0  0  0  0  0  0  0  0  0  0  0  0
    5.6888    2.1013    0.5406 H   0  0  0  0  0  0  0  0  0  0  0  0
    4.0545    2.7884    0.6440 H   0  0  0  0  0  0  0  0  0  0  0  0
    6.1136   -0.6749   -0.7027 N   0  0  0  0  0  0  0  0  0  0  0  0
    6.9558   -1.8627   -0.6540 C   0  0  0  0  0  0  0  0  0  0  0  0
    6.2909    0.0272   -1.4148 H   0  0  0  0  0  0  0  0  0  0  0  0
    7.3518   -2.0101    0.3561 H   0  0  0  0  0  0  0  0  0  0  0  0
    6.3825   -2.7501   -0.9418 H   0  0  0  0  0  0  0  0  0  0  0  0
    7.7990   -1.7554   -1.3428 H   0  0  0  0  0  0  0  0  0  0  0  0
  1  2  2  0  0  0  0
  1  3  1  0  0  0  0
  1  7  1  0  0  0  0
  3  4  1  0  0  0  0
  3  5  1  0  0  0  0
  3  6  1  0  0  0  0
  7  8  1  0  0  0  0
  7 12  1  0  0  0  0
  8  9  1  0  0  0  0
  8 11  1  0  0  0  0
  8 13  1  0  0  0  0
  9 10  2  0  0  0  0
  9 17  1  0  0  0  0
 11 14  1  0  0  0  0
 11 15  1  0  0  0  0
 11 16  1  0  0  0  0
 17 18  1  0  0  0  0
 17 25  1  0  0  0  0
 18 19  1  0  0  0  0
 18 21  1  0  0  0  0
 18 26  1  0  0  0  0
 19 20  2  0  0  0  0
 19 29  1  0  0  0  0
 21 22  1  0  0  0  0
 21 27  1  0  0  0  0
 21 28  1  0  0  0  0
 22 23  1  0  0  0  0
 22 24  2  0  0  0  0
 29 30  1  0  0  0  0
 29 34  1  0  0  0  0
 30 31  1  0  0  0  0
 30 33  1  0  0  0  0
 30 35  1  0  0  0  0
 31 32  2  0  0  0  0
 31 39  1  0  0  0  0
 33 36  1  0  0  0  0
 33 37  1  0  0  0  0
 33 38  1  0  0  0  0
 39 40  1  0  0  0  0
 39 41  1  0  0  0  0
 40 42  1  0  0  0  0
 40 43  1  0  0  0  0
 40 44  1  0  0  0  0
M  CHG  1  23  -1
M  END
$$$$

  -OEChem-05262215553D

 44 43  0     1  0  0  0  0  0999 V2000
   -4.7513    0.0548   -3.7011 C   0  0  0  0  0  0  0  0  0  0  0  0
   -4.9305   -1.1384   -3.8952 O   0  0  0  0  0  0  0  0  0  0  0  0
   -5.9077    1.0269   -3.8470 C   0  0  0  0  0  0  0  0  0  0  0  0
   -5.6714    1.7770   -4.6055 H   0  0  0  0  0  0  0  0  0  0  0  0
   -6.8148    0.4941   -4.1455 H   0  0  0  0  0  0  0  0  0  0  0  0
   -6.0917    1.5286   -2.8934 H   0  0  0  0  0  0  0  0  0  0  0  0
   -3.5065    0.5337   -3.3570 N   0  0  0  0  0  0  0  0  0  0  0  0
   -2.3846   -0.3011   -2.9119 C   0  0  2  0  0  0  0  0  0  0  0  0
   -1.4117    0.5206   -2.0391 C   0  0  0  0  0  0  0  0  0  0  0  0
   -1.4901    1.7462   -2.0446 O   0  0  0  0  0  0  0  0  0  0  0  0
   -1.6529   -0.8655   -4.1345 C   0  0  0  0  0  0  0  0  0  0  0  0
   -3.4423    1.5192   -3.0991 H   0  0  0  0  0  0  0  0  0  0  0  0
   -2.7654   -1.1247   -2.2974 H   0  0  0  0  0  0  0  0  0  0  0  0
   -1.2726   -0.0509   -4.7588 H   0  0  0  0  0  0  0  0  0  0  0  0
   -0.8099   -1.4891   -3.8223 H   0  0  0  0  0  0  0  0  0  0  0  0
   -2.3303   -1.4800   -4.7353 H   0  0  0  0  0  0  0  0  0  0  0  0
   -0.4625   -0.1302   -1.2736 N   0  0  0  0  0  0  0  0  0  0  0  0
    0.1816    0.5079   -0.1177 C   0  0  2  0  0  0  0  0  0  0  0  0
    1.6362    0.9394   -0.4344 C   0  0  0  0  0  0  0  0  0  0  0  0
    1.8770    1.8989   -1.1579 O   0  0  0  0  0  0  0  0  0  0  0  0
    0.1402   -0.5452    1.0116 C   0  0  0  0  0  0  0  0  0  0  0  0
   -1.2638   -0.8230    1.5387 C   0  0  0  0  0  0  0  0  0  0  0  0
   -2.1276    0.0835    1.4949 O   0  5  0  0  0  0  0  0  0  0  0  0
   -1.4822   -2.0006    1.9070 O   0  0  0  0  0  0  0  0  0  0  0  0
   -0.5941   -1.1347   -1.2076 H   0  0  0  0  0  0  0  0  0  0  0  0
   -0.3653    1.4033    0.2011 H   0  0  0  0  0  0  0  0  0  0  0  0
    0.7279   -0.1829    1.8593 H   0  0  0  0  0  0  0  0  0  0  0  0
    0.5847   -1.4836    0.6664 H   0  0  0  0  0  0  0  0  0  0  0  0
    2.7161    0.2247    0.0581 N   0  0  0  0  0  0  0  0  0  0  0  0
    4.1192    0.4570   -0.3077 C   0  0  2  0  0  0  0  0  0  0  0  0
    4.8726   -0.8577   -0.5947 C   0  0  0  0  0  0  0  0  0  0  0  0
    4.5368   -1.9049   -0.0526 O   0  0  0  0  0  0  0  0  0  0  0  0
    4.7856    1.2177    0.8406 C   0  0  0  0  0  0  0  0  0  0  0  0
    2.4977   -0.6361    0.5583 H   0  0  0  0  0  0  0  0  0  0  0  0
    4.1763    1.0646   -1.2163 H   0  0  0  0  0  0  0  0  0  0  0  0
    4.7481    0.6283    1.7624 H   0  0  0  0  0  0  0  0  0  0  0  0
    5.8322    1.4300    0.6034 H   0  0  0  0  0  0  0  0  0  0  0  0
    4.2695    2.1677    1.0129 H   0  0  0  0  0  0  0  0  0  0  0  0
    5.9556   -0.8612   -1.4558 N   0  0  0  0  0  0  0  0  0  0  0  0
    6.6900   -2.0682   -1.8116 C   0  0  0  0  0  0  0  0  0  0  0  0
    6.1683    0.0064   -1.9392 H   0  0  0  0  0  0  0  0  0  0  0  0
    7.1160   -2.5345   -0.9171 H   0  0  0  0  0  0  0  0  0  0  0  0
    6.0277   -2.7879   -2.3042 H   0  0  0  0  0  0  0  0  0  0  0  0
    7.5077   -1.8243   -2.4963 H   0  0  0  0  0  0  0  0  0  0  0  0
  1  2  2  0  0  0  0
  1  3  1  0  0  0  0
  1  7  1  0  0  0  0
  3  4  1  0  0  0  0
  3  5  1  0  0  0  0
  3  6  1  0  0  0  0
  7  8  1  0  0  0  0
  7 12  1  0  0  0  0
  8  9  1  0  0  0  0
  8 11  1  0  0  0  0
  8 13  1  0  0  0  0
  9 10  2  0  0  0  0
  9 17  1  0  0  0  0
 11 14  1  0  0  0  0
 11 15  1  0  0  0  0
 11 16  1  0  0  0  0
 17 18  1  0  0  0  0
 17 25  1  0  0  0  0
 18 19  1  0  0  0  0
 18 21  1  0  0  0  0
 18 26  1  0  0  0  0
 19 20  2  0  0  0  0
 19 29  1  0  0  0  0
 21 22  1  0  0  0  0
 21 27  1  0  0  0  0
 21 28  1  0  0  0  0
 22 23  1  0  0  0  0
 22 24  2  0  0  0  0
 29 30  1  0  0  0  0
 29 34  1  0  0  0  0
 30 31  1  0  0  0  0
 30 33  1  0  0  0  0
 30 35  1  0  0  0  0
 31 32  2  0  0  0  0
 31 39  1  0  0  0  0
 33 36  1  0  0  0  0
 33 37  1  0  0  0  0
 33 38  1  0  0  0  0
 39 40  1  0  0  0  0
 39 41  1  0  0  0  0
 40 42  1  0  0  0  0
 40 43  1  0  0  0  0
 40 44  1  0  0  0  0
M  CHG  1  23  -1
M  END
$$$$

  -OEChem-05262215553D

 44 43  0     1  0  0  0  0  0999 V2000
   -4.7869    0.0763   -3.7055 C   0  0  0  0  0  0  0  0  0  0  0  0
   -5.0184   -1.1174   -3.8252 O   0  0  0  0  0  0  0  0  0  0  0  0
   -5.8866    1.0886   -3.9692 C   0  0  0  0  0  0  0  0  0  0  0  0
   -5.5943    1.7530   -4.7862 H   0  0  0  0  0  0  0  0  0  0  0  0
   -6.8138    0.5776   -4.2431 H   0  0  0  0  0  0  0  0  0  0  0  0
   -6.0654    1.6846   -3.0705 H   0  0  0  0  0  0  0  0  0  0  0  0
   -3.5316    0.5179   -3.3491 N   0  0  0  0  0  0  0  0  0  0  0  0
   -2.4502   -0.3390   -2.8474 C   0  0  2  0  0  0  0  0  0  0  0  0
   -1.4486    0.4852   -2.0081 C   0  0  0  0  0  0  0  0  0  0  0  0
   -1.4804    1.7111   -2.0707 O   0  0  0  0  0  0  0  0  0  0  0  0
   -1.7358   -0.9964   -4.0343 C   0  0  0  0  0  0  0  0  0  0  0  0
   -3.4234    1.5143   -3.1566 H   0  0  0  0  0  0  0  0  0  0  0  0
   -2.8702   -1.1133   -2.1956 H   0  0  0  0  0  0  0  0  0  0  0  0
   -1.3111   -0.2324   -4.6929 H   0  0  0  0  0  0  0  0  0  0  0  0
   -0.9267   -1.6444   -3.6845 H   0  0  0  0  0  0  0  0  0  0  0  0
   -2.4366   -1.6055   -4.6134 H   0  0  0  0  0  0  0  0  0  0  0  0
   -0.5016   -0.1601   -1.2346 N   0  0  0  0  0  0  0  0  0  0  0  0
    0.1720    0.5030   -0.1091 C   0  0  2  0  0  0  0  0  0  0  0  0
    1.6271    0.8919   -0.4646 C   0  0  0  0  0  0  0  0  0  0  0  0
    1.8982    1.9833   -0.9511 O   0  0  0  0  0  0  0  0  0  0  0  0
    0.1483   -0.5086    1.0572 C   0  0  0  0  0  0  0  0  0  0  0  0
   -1.2445   -0.7559    1.6258 C   0  0  0  0  0  0  0  0  0  0  0  0
   -2.1020    0.1558    1.5690 O   0  5  0  0  0  0  0  0  0  0  0  0
   -1.4622   -1.9167    2.0450 O   0  0  0  0  0  0  0  0  0  0  0  0
   -0.6665   -1.1557   -1.1218 H   0  0  0  0  0  0  0  0  0  0  0  0
   -0.3551    1.4174    0.1908 H   0  0  0  0  0  0  0  0  0  0  0  0
    0.7627   -0.1209    1.8742 H   0  0  0  0  0  0  0  0  0  0  0  0
    0.5751   -1.4635    0.7368 H   0  0  0  0  0  0  0  0  0  0  0  0
    2.6711    0.0114   -0.2320 N   0  0  0  0  0  0  0  0  0  0  0  0
    4.0615    0.2216   -0.6545 C   0  0  2  0  0  0  0  0  0  0  0  0
    4.6571   -1.0180   -1.3534 C   0  0  0  0  0  0  0  0  0  0  0  0
    4.2420   -2.1434   -1.0987 O   0  0  0  0  0  0  0  0  0  0  0  0
    4.8781    0.5787    0.5889 C   0  0  0  0  0  0  0  0  0  0  0  0
    2.4107   -0.9248    0.0734 H   0  0  0  0  0  0  0  0  0  0  0  0
    4.1190    1.0507   -1.3667 H   0  0  0  0  0  0  0  0  0  0  0  0
    4.8438   -0.2389    1.3161 H   0  0  0  0  0  0  0  0  0  0  0  0
    5.9223    0.7652    0.3213 H   0  0  0  0  0  0  0  0  0  0  0  0
    4.4738    1.4811    1.0586 H   0  0  0  0  0  0  0  0  0  0  0  0
    5.6945   -0.8697   -2.2570 N   0  0  0  0  0  0  0  0  0  0  0  0
    6.2945   -1.9839   -2.9790 C   0  0  0  0  0  0  0  0  0  0  0  0
    5.9771    0.0779   -2.4892 H   0  0  0  0  0  0  0  0  0  0  0  0
    6.7201   -2.7097   -2.2781 H   0  0  0  0  0  0  0  0  0  0  0  0
    5.5447   -2.4875   -3.5978 H   0  0  0  0  0  0  0  0  0  0  0  0
    7.0954   -1.6222   -3.6310 H   0  0  0  0  0  0  0  0  0  0  0  0
  1  2  2  0  0  0  0
  1  3  1  0  0  0  0
  1  7  1  0  0  0  0
  3  4  1  0  0  0  0
  3  5  1  0  0  0  0
  3  6  1  0  0  0  0
  7  8  1  0  0  0  0
  7 12  1  0  0  0  0
  8  9  1  0  0  0  0
  8 11  1  0  0  0  0
  8 13  1  0  0  0  0
  9 10  2  0  0  0  0
  9 17  1  0  0  0  0
 11 14  1  0  0  0  0
 11 15  1  0  0  0  0
 11 16  1  0  0  0  0
 17 18  1  0  0  0  0
 17 25  1  0  0  0  0
 18 19  1  0  0  0  0
 18 21  1  0  0  0  0
 18 26  1  0  0  0  0
 19 20  2  0  0  0  0
 19 29  1  0  0  0  0
 21 22  1  0  0  0  0
 21 27  1  0  0  0  0
 21 28  1  0  0  0  0
 22 23  1  0  0  0  0
 22 24  2  0  0  0  0
 29 30  1  0  0  0  0
 29 34  1  0  0  0  0
 30 31  1  0  0  0  0
 30 33  1  0  0  0  0
 30 35  1  0  0  0  0
 31 32  2  0  0  0  0
 31 39  1  0  0  0  0
 33 36  1  0  0  0  0
 33 37  1  0  0  0  0
 33 38  1  0  0  0  0
 39 40  1  0  0  0  0
 39 41  1  0  0  0  0
 40 42  1  0  0  0  0
 40 43  1  0  0  0  0
 40 44  1  0  0  0  0
M  CHG  1  23  -1
M  END
$$$$

  -OEChem-05262215553D

 44 43  0     1  0  0  0  0  0999 V2000
   -4.8210    0.0796   -3.6478 C   0  0  0  0  0  0  0  0  0  0  0  0
   -5.0997   -1.1081   -3.7162 O   0  0  0  0  0  0  0  0  0  0  0  0
   -5.8958    1.1248   -3.8871 C   0  0  0  0  0  0  0  0  0  0  0  0
   -5.6422    1.7268   -4.7628 H   0  0  0  0  0  0  0  0  0  0  0  0
   -6.8624    0.6424   -4.0563 H   0  0  0  0  0  0  0  0  0  0  0  0
   -5.9772    1.7795   -3.0154 H   0  0  0  0  0  0  0  0  0  0  0  0
   -3.5360    0.4875   -3.3648 N   0  0  0  0  0  0  0  0  0  0  0  0
   -2.4729   -0.3856   -2.8531 C   0  0  2  0  0  0  0  0  0  0  0  0
   -1.4218    0.4409   -2.0802 C   0  0  0  0  0  0  0  0  0  0  0  0
   -1.3929    1.6604   -2.2210 O   0  0  0  0  0  0  0  0  0  0  0  0
   -1.8126   -1.1226   -4.0235 C   0  0  0  0  0  0  0  0  0  0  0  0
   -3.3892    1.4857   -3.2122 H   0  0  0  0  0  0  0  0  0  0  0  0
   -2.9022   -1.1130   -2.1551 H   0  0  0  0  0  0  0  0  0  0  0  0
   -1.3715   -0.4066   -4.7243 H   0  0  0  0  0  0  0  0  0  0  0  0
   -1.0233   -1.7878   -3.6604 H   0  0  0  0  0  0  0  0  0  0  0  0
   -2.5506   -1.7264   -4.5600 H   0  0  0  0  0  0  0  0  0  0  0  0
   -0.4919   -0.1946   -1.2796 N   0  0  0  0  0  0  0  0  0  0  0  0
    0.1706    0.5048   -0.1696 C   0  0  2  0  0  0  0  0  0  0  0  0
    1.6296    0.8697   -0.5227 C   0  0  0  0  0  0  0  0  0  0  0  0
    1.9670    2.0262   -0.7485 O   0  0  0  0  0  0  0  0  0  0  0  0
    0.1386   -0.4675    1.0271 C   0  0  0  0  0  0  0  0  0  0  0  0
   -1.2617   -0.6945    1.5859 C   0  0  0  0  0  0  0  0  0  0  0  0
   -2.1179    0.2153    1.4885 O   0  5  0  0  0  0  0  0  0  0  0  0
   -1.4916   -1.8481    2.0180 O   0  0  0  0  0  0  0  0  0  0  0  0
   -0.7001   -1.1747   -1.1115 H   0  0  0  0  0  0  0  0  0  0  0  0
   -0.3560    1.4308    0.0941 H   0  0  0  0  0  0  0  0  0  0  0  0
    0.7470   -0.0534    1.8354 H   0  0  0  0  0  0  0  0  0  0  0  0
    0.5691   -1.4322    0.7429 H   0  0  0  0  0  0  0  0  0  0  0  0
    2.6070   -0.1110   -0.5366 N   0  0  0  0  0  0  0  0  0  0  0  0
    3.9857    0.0879   -0.9984 C   0  0  2  0  0  0  0  0  0  0  0  0
    4.4156   -0.9814   -2.0236 C   0  0  0  0  0  0  0  0  0  0  0  0
    3.9363   -2.1100   -1.9915 O   0  0  0  0  0  0  0  0  0  0  0  0
    4.8986    0.0571    0.2288 C   0  0  0  0  0  0  0  0  0  0  0  0
    2.2785   -1.0706   -0.4498 H   0  0  0  0  0  0  0  0  0  0  0  0
    4.0849    1.0620   -1.4875 H   0  0  0  0  0  0  0  0  0  0  0  0
    4.8298   -0.9120    0.7337 H   0  0  0  0  0  0  0  0  0  0  0  0
    5.9393    0.2262   -0.0636 H   0  0  0  0  0  0  0  0  0  0  0  0
    4.6049    0.8400    0.9356 H   0  0  0  0  0  0  0  0  0  0  0  0
    5.3718   -0.6803   -2.9771 N   0  0  0  0  0  0  0  0  0  0  0  0
    5.7988   -1.6200   -4.0052 C   0  0  0  0  0  0  0  0  0  0  0  0
    5.6939    0.2818   -3.0241 H   0  0  0  0  0  0  0  0  0  0  0  0
    6.2356   -2.5142   -3.5483 H   0  0  0  0  0  0  0  0  0  0  0  0
    4.9489   -1.9197   -4.6273 H   0  0  0  0  0  0  0  0  0  0  0  0
    6.5532   -1.1575   -4.6487 H   0  0  0  0  0  0  0  0  0  0  0  0
  1  2  2  0  0  0  0
  1  3  1  0  0  0  0
  1  7  1  0  0  0  0
  3  4  1  0  0  0  0
  3  5  1  0  0  0  0
  3  6  1  0  0  0  0
  7  8  1  0  0  0  0
  7 12  1  0  0  0  0
  8  9  1  0  0  0  0
  8 11  1  0  0  0  0
  8 13  1  0  0  0  0
  9 10  2  0  0  0  0
  9 17  1  0  0  0  0
 11 14  1  0  0  0  0
 11 15  1  0  0  0  0
 11 16  1  0  0  0  0
 17 18  1  0  0  0  0
 17 25  1  0  0  0  0
 18 19  1  0  0  0  0
 18 21  1  0  0  0  0
 18 26  1  0  0  0  0
 19 20  2  0  0  0  0
 19 29  1  0  0  0  0
 21 22  1  0  0  0  0
 21 27  1  0  0  0  0
 21 28  1  0  0  0  0
 22 23  1  0  0  0  0
 22 24  2  0  0  0  0
 29 30  1  0  0  0  0
 29 34  1  0  0  0  0
 30 31  1  0  0  0  0
 30 33  1  0  0  0  0
 30 35  1  0  0  0  0
 31 32  2  0  0  0  0
 31 39  1  0  0  0  0
 33 36  1  0  0  0  0
 33 37  1  0  0  0  0
 33 38  1  0  0  0  0
 39 40  1  0  0  0  0
 39 41  1  0  0  0  0
 40 42  1  0  0  0  0
 40 43  1  0  0  0  0
 40 44  1  0  0  0  0
M  CHG  1  23  -1
M  END
$$$$

  -OEChem-05262215553D

 44 43  0     1  0  0  0  0  0999 V2000
   -4.8546    0.0934   -3.6384 C   0  0  0  0  0  0  0  0  0  0  0  0
   -5.1734   -1.0857   -3.6615 O   0  0  0  0  0  0  0  0  0  0  0  0
   -5.8886    1.1626   -3.9397 C   0  0  0  0  0  0  0  0  0  0  0  0
   -5.6149    1.6991   -4.8515 H   0  0  0  0  0  0  0  0  0  0  0  0
   -6.8737    0.7084   -4.0772 H   0  0  0  0  0  0  0  0  0  0  0  0
   -5.9410    1.8719   -3.1096 H   0  0  0  0  0  0  0  0  0  0  0  0
   -3.5607    0.4698   -3.3531 N   0  0  0  0  0  0  0  0  0  0  0  0
   -2.5287   -0.4170   -2.8019 C   0  0  2  0  0  0  0  0  0  0  0  0
   -1.4401    0.4069   -2.0797 C   0  0  0  0  0  0  0  0  0  0  0  0
   -1.3756    1.6191   -2.2661 O   0  0  0  0  0  0  0  0  0  0  0  0
   -1.9057   -1.2390   -3.9363 C   0  0  0  0  0  0  0  0  0  0  0  0
   -3.3797    1.4682   -3.2461 H   0  0  0  0  0  0  0  0  0  0  0  0
   -2.9811   -1.0900   -2.0644 H   0  0  0  0  0  0  0  0  0  0  0  0
   -1.4590   -0.5767   -4.6844 H   0  0  0  0  0  0  0  0  0  0  0  0
   -1.1269   -1.9018   -3.5473 H   0  0  0  0  0  0  0  0  0  0  0  0
   -2.6664   -1.8549   -4.4252 H   0  0  0  0  0  0  0  0  0  0  0  0
   -0.5041   -0.2215   -1.2812 N   0  0  0  0  0  0  0  0  0  0  0  0
    0.1652    0.5004   -0.1889 C   0  0  2  0  0  0  0  0  0  0  0  0
    1.6182    0.8616   -0.5626 C   0  0  0  0  0  0  0  0  0  0  0  0
    2.0251    2.0176   -0.5282 O   0  0  0  0  0  0  0  0  0  0  0  0
    0.1676   -0.4597    1.0156 C   0  0  0  0  0  0  0  0  0  0  0  0
   -1.2215   -0.7016    1.5951 C   0  0  0  0  0  0  0  0  0  0  0  0
   -2.0913    0.1956    1.4997 O   0  5  0  0  0  0  0  0  0  0  0  0
   -1.4349   -1.8591    2.0256 O   0  0  0  0  0  0  0  0  0  0  0  0
   -0.7370   -1.1891   -1.0747 H   0  0  0  0  0  0  0  0  0  0  0  0
   -0.3646    1.4255    0.0717 H   0  0  0  0  0  0  0  0  0  0  0  0
    0.7800   -0.0267    1.8107 H   0  0  0  0  0  0  0  0  0  0  0  0
    0.6136   -1.4184    0.7353 H   0  0  0  0  0  0  0  0  0  0  0  0
    2.5160   -0.1459   -0.8691 N   0  0  0  0  0  0  0  0  0  0  0  0
    3.8665    0.0735   -1.3978 C   0  0  2  0  0  0  0  0  0  0  0  0
    4.1332   -0.7713   -2.6600 C   0  0  0  0  0  0  0  0  0  0  0  0
    3.5934   -1.8629   -2.8085 O   0  0  0  0  0  0  0  0  0  0  0  0
    4.8659   -0.2770   -0.2943 C   0  0  0  0  0  0  0  0  0  0  0  0
    2.1143   -1.0728   -0.9934 H   0  0  0  0  0  0  0  0  0  0  0  0
    3.9991    1.1241   -1.6754 H   0  0  0  0  0  0  0  0  0  0  0  0
    4.7623   -1.3272   -0.0027 H   0  0  0  0  0  0  0  0  0  0  0  0
    5.8907   -0.1092   -0.6383 H   0  0  0  0  0  0  0  0  0  0  0  0
    4.6882    0.3486    0.5861 H   0  0  0  0  0  0  0  0  0  0  0  0
    5.0074   -0.3109   -3.6283 N   0  0  0  0  0  0  0  0  0  0  0  0
    5.2632   -1.0196   -4.8747 C   0  0  0  0  0  0  0  0  0  0  0  0
    5.3701    0.6309   -3.5142 H   0  0  0  0  0  0  0  0  0  0  0  0
    5.6667   -2.0172   -4.6721 H   0  0  0  0  0  0  0  0  0  0  0  0
    4.3389   -1.1233   -5.4522 H   0  0  0  0  0  0  0  0  0  0  0  0
    5.9897   -0.4685   -5.4793 H   0  0  0  0  0  0  0  0  0  0  0  0
  1  2  2  0  0  0  0
  1  3  1  0  0  0  0
  1  7  1  0  0  0  0
  3  4  1  0  0  0  0
  3  5  1  0  0  0  0
  3  6  1  0  0  0  0
  7  8  1  0  0  0  0
  7 12  1  0  0  0  0
  8  9  1  0  0  0  0
  8 11  1  0  0  0  0
  8 13  1  0  0  0  0
  9 10  2  0  0  0  0
  9 17  1  0  0  0  0
 11 14  1  0  0  0  0
 11 15  1  0  0  0  0
 11 16  1  0  0  0  0
 17 18  1  0  0  0  0
 17 25  1  0  0  0  0
 18 19  1  0  0  0  0
 18 21  1  0  0  0  0
 18 26  1  0  0  0  0
 19 20  2  0  0  0  0
 19 29  1  0  0  0  0
 21 22  1  0  0  0  0
 21 27  1  0  0  0  0
 21 28  1  0  0  0  0
 22 23  1  0  0  0  0
 22 24  2  0  0  0  0
 29 30  1  0  0  0  0
 29 34  1  0  0  0  0
 30 31  1  0  0  0  0
 30 33  1  0  0  0  0
 30 35  1  0  0  0  0
 31 32  2  0  0  0  0
 31 39  1  0  0  0  0
 33 36  1  0  0  0  0
 33 37  1  0  0  0  0
 33 38  1  0  0  0  0
 39 40  1  0  0  0  0
 39 41  1  0  0  0  0
 40 42  1  0  0  0  0
 40 43  1  0  0  0  0
 40 44  1  0  0  0  0
M  CHG  1  23  -1
M  END
$$$$

  -OEChem-05262215553D

 44 43  0     1  0  0  0  0  0999 V2000
   -4.9026    0.1037   -3.6081 C   0  0  0  0  0  0  0  0  0  0  0  0
   -5.2668   -1.0612   -3.5582 O   0  0  0  0  0  0  0  0  0  0  0  0
   -5.8947    1.1898   -3.9831 C   0  0  0  0  0  0  0  0  0  0  0  0
   -5.5579    1.7079   -4.8842 H   0  0  0  0  0  0  0  0  0  0  0  0
   -6.8795    0.7538   -4.1727 H   0  0  0  0  0  0  0  0  0  0  0  0
   -5.9800    1.9118   -3.1668 H   0  0  0  0  0  0  0  0  0  0  0  0
   -3.5953    0.4471   -3.3417 N   0  0  0  0  0  0  0  0  0  0  0  0
   -2.5938   -0.4471   -2.7475 C   0  0  2  0  0  0  0  0  0  0  0  0
   -1.4684    0.3712   -2.0767 C   0  0  0  0  0  0  0  0  0  0  0  0
   -1.3712    1.5741   -2.3071 O   0  0  0  0  0  0  0  0  0  0  0  0
   -2.0120   -1.3544   -3.8384 C   0  0  0  0  0  0  0  0  0  0  0  0
   -3.3752    1.4421   -3.2951 H   0  0  0  0  0  0  0  0  0  0  0  0
   -3.0655   -1.0601   -1.9713 H   0  0  0  0  0  0  0  0  0  0  0  0
   -1.5394   -0.7536   -4.6219 H   0  0  0  0  0  0  0  0  0  0  0  0
   -1.2616   -2.0298   -3.4165 H   0  0  0  0  0  0  0  0  0  0  0  0
   -2.8011   -1.9614   -4.2926 H   0  0  0  0  0  0  0  0  0  0  0  0
   -0.5228   -0.2537   -1.2869 N   0  0  0  0  0  0  0  0  0  0  0  0
    0.1569    0.4861   -0.2124 C   0  0  2  0  0  0  0  0  0  0  0  0
    1.6037    0.8490   -0.6049 C   0  0  0  0  0  0  0  0  0  0  0  0
    2.0907    1.9390   -0.3248 O   0  0  0  0  0  0  0  0  0  0  0  0
    0.1846   -0.4637    0.9984 C   0  0  0  0  0  0  0  0  0  0  0  0
   -1.1959   -0.7103    1.5971 C   0  0  0  0  0  0  0  0  0  0  0  0
   -2.0720    0.1814    1.5042 O   0  5  0  0  0  0  0  0  0  0  0  0
   -1.4017   -1.8694    2.0271 O   0  0  0  0  0  0  0  0  0  0  0  0
   -0.7782   -1.2077   -1.0441 H   0  0  0  0  0  0  0  0  0  0  0  0
   -0.3750    1.4104    0.0460 H   0  0  0  0  0  0  0  0  0  0  0  0
    0.8043   -0.0192    1.7819 H   0  0  0  0  0  0  0  0  0  0  0  0
    0.6365   -1.4197    0.7178 H   0  0  0  0  0  0  0  0  0  0  0  0
    2.4099   -0.1041   -1.2022 N   0  0  0  0  0  0  0  0  0  0  0  0
    3.7217    0.1767   -1.7961 C   0  0  2  0  0  0  0  0  0  0  0  0
    3.8340   -0.3849   -3.2285 C   0  0  0  0  0  0  0  0  0  0  0  0
    3.2042   -1.3843   -3.5602 O   0  0  0  0  0  0  0  0  0  0  0  0
    4.7918   -0.4364   -0.8914 C   0  0  0  0  0  0  0  0  0  0  0  0
    1.9266   -0.9381   -1.5295 H   0  0  0  0  0  0  0  0  0  0  0  0
    3.8858    1.2572   -1.8577 H   0  0  0  0  0  0  0  0  0  0  0  0
    4.6576   -1.5205   -0.8200 H   0  0  0  0  0  0  0  0  0  0  0  0
    5.7910   -0.2328   -1.2876 H   0  0  0  0  0  0  0  0  0  0  0  0
    4.7234   -0.0091    0.1140 H   0  0  0  0  0  0  0  0  0  0  0  0
    4.6683    0.2261   -4.1476 N   0  0  0  0  0  0  0  0  0  0  0  0
    4.7742   -0.1989   -5.5369 C   0  0  0  0  0  0  0  0  0  0  0  0
    5.1095    1.0962   -3.8648 H   0  0  0  0  0  0  0  0  0  0  0  0
    5.1146   -1.2379   -5.5953 H   0  0  0  0  0  0  0  0  0  0  0  0
    3.8040   -0.1156   -6.0376 H   0  0  0  0  0  0  0  0  0  0  0  0
    5.4940    0.4302   -6.0687 H   0  0  0  0  0  0  0  0  0  0  0  0
  1  2  2  0  0  0  0
  1  3  1  0  0  0  0
  1  7  1  0  0  0  0
  3  4  1  0  0  0  0
  3  5  1  0  0  0  0
  3  6  1  0  0  0  0
  7  8  1  0  0  0  0
  7 12  1  0  0  0  0
  8  9  1  0  0  0  0
  8 11  1  0  0  0  0
  8 13  1  0  0  0  0
  9 10  2  0  0  0  0
  9 17  1  0  0  0  0
 11 14  1  0  0  0  0
 11 15  1  0  0  0  0
 11 16  1  0  0  0  0
 17 18  1  0  0  0  0
 17 25  1  0  0  0  0
 18 19  1  0  0  0  0
 18 21  1  0  0  0  0
 18 26  1  0  0  0  0
 19 20  2  0  0  0  0
 19 29  1  0  0  0  0
 21 22  1  0  0  0  0
 21 27  1  0  0  0  0
 21 28  1  0  0  0  0
 22 23  1  0  0  0  0
 22 24  2  0  0  0  0
 29 30  1  0  0  0  0
 29 34  1  0  0  0  0
 30 31  1  0  0  0  0
 30 33  1  0  0  0  0
 30 35  1  0  0  0  0
 31 32  2  0  0  0  0
 31 39  1  0  0  0  0
 33 36  1  0  0  0  0
 33 37  1  0  0  0  0
 33 38  1  0  0  0  0
 39 40  1  0  0  0  0
 39 41  1  0  0  0  0
 40 42  1  0  0  0  0
 40 43  1  0  0  0  0
 40 44  1  0  0  0  0
M  CHG  1  23  -1
M  END
$$$$

  -OEChem-05262215553D

 44 43  0     1  0  0  0  0  0999 V2000
   -4.9846    0.1068   -3.5534 C   0  0  0  0  0  0  0  0  0  0  0  0
   -5.3460   -1.0589   -3.5031 O   0  0  0  0  0  0  0  0  0  0  0  0
   -5.9820    1.1910   -3.9185 C   0  0  0  0  0  0  0  0  0  0  0  0
   -5.6600    1.7010   -4.8295 H   0  0  0  0  0  0  0  0  0  0  0  0
   -6.9705    0.7548   -4.0877 H   0  0  0  0  0  0  0  0  0  0  0  0
   -6.0522    1.9196   -3.1068 H   0  0  0  0  0  0  0  0  0  0  0  0
   -3.6754    0.4530   -3.2994 N   0  0  0  0  0  0  0  0  0  0  0  0
   -2.6616   -0.4437   -2.7296 C   0  0  2  0  0  0  0  0  0  0  0  0
   -1.5297    0.3713   -2.0649 C   0  0  0  0  0  0  0  0  0  0  0  0
   -1.4426    1.5789   -2.2755 O   0  0  0  0  0  0  0  0  0  0  0  0
   -2.0927   -1.3336   -3.8415 C   0  0  0  0  0  0  0  0  0  0  0  0
   -3.4562    1.4483   -3.2543 H   0  0  0  0  0  0  0  0  0  0  0  0
   -3.1198   -1.0692   -1.9549 H   0  0  0  0  0  0  0  0  0  0  0  0
   -1.6250   -0.7206   -4.6183 H   0  0  0  0  0  0  0  0  0  0  0  0
   -1.3413   -2.0189   -3.4385 H   0  0  0  0  0  0  0  0  0  0  0  0
   -2.8879   -1.9292   -4.2997 H   0  0  0  0  0  0  0  0  0  0  0  0
   -0.5583   -0.2603   -1.3126 N   0  0  0  0  0  0  0  0  0  0  0  0
    0.1408    0.4661   -0.2400 C   0  0  2  0  0  0  0  0  0  0  0  0
    1.5741    0.8551   -0.6569 C   0  0  0  0  0  0  0  0  0  0  0  0
    2.1483    1.8180   -0.1593 O   0  0  0  0  0  0  0  0  0  0  0  0
    0.2099   -0.5131    0.9452 C   0  0  0  0  0  0  0  0  0  0  0  0
   -1.1537   -0.7895    1.5693 C   0  0  0  0  0  0  0  0  0  0  0  0
   -2.0405    0.0955    1.5184 O   0  5  0  0  0  0  0  0  0  0  0  0
   -1.3403   -1.9626    1.9692 O   0  0  0  0  0  0  0  0  0  0  0  0
   -0.7998   -1.2206   -1.0797 H   0  0  0  0  0  0  0  0  0  0  0  0
   -0.3941    1.3779    0.0533 H   0  0  0  0  0  0  0  0  0  0  0  0
    0.8424   -0.0813    1.7256 H   0  0  0  0  0  0  0  0  0  0  0  0
    0.6673   -1.4554    0.6289 H   0  0  0  0  0  0  0  0  0  0  0  0
    2.2676    0.0599   -1.5517 N   0  0  0  0  0  0  0  0  0  0  0  0
    3.5477    0.4274   -2.1657 C   0  0  2  0  0  0  0  0  0  0  0  0
    3.5764    0.1014   -3.6732 C   0  0  0  0  0  0  0  0  0  0  0  0
    2.8905   -0.8071   -4.1312 O   0  0  0  0  0  0  0  0  0  0  0  0
    4.6621   -0.3221   -1.4328 C   0  0  0  0  0  0  0  0  0  0  0  0
    1.7088   -0.6427   -2.0325 H   0  0  0  0  0  0  0  0  0  0  0  0
    3.7142    1.5048   -2.0633 H   0  0  0  0  0  0  0  0  0  0  0  0
    4.5215   -1.4037   -1.5262 H   0  0  0  0  0  0  0  0  0  0  0  0
    5.6389   -0.0588   -1.8491 H   0  0  0  0  0  0  0  0  0  0  0  0
    4.6562   -0.0599   -0.3700 H   0  0  0  0  0  0  0  0  0  0  0  0
    4.3941    0.8260   -4.5220 N   0  0  0  0  0  0  0  0  0  0  0  0
    4.4201    0.6296   -5.9652 C   0  0  0  0  0  0  0  0  0  0  0  0
    4.8845    1.6219   -4.1248 H   0  0  0  0  0  0  0  0  0  0  0  0
    4.7087   -0.3987   -6.2068 H   0  0  0  0  0  0  0  0  0  0  0  0
    3.4337    0.8309   -6.3961 H   0  0  0  0  0  0  0  0  0  0  0  0
    5.1446    1.3085   -6.4250 H   0  0  0  0  0  0  0  0  0  0  0  0
  1  2  2  0  0  0  0
  1  3  1  0  0  0  0
  1  7  1  0  0  0  0
  3  4  1  0  0  0  0
  3  5  1  0  0  0  0
  3  6  1  0  0  0  0
  7  8  1  0  0  0  0
  7 12  1  0  0  0  0
  8  9  1  0  0  0  0
  8 11  1  0  0  0  0
  8 13  1  0  0  0  0
  9 10  2  0  0  0  0
  9 17  1  0  0  0  0
 11 14  1  0  0  0  0
 11 15  1  0  0  0  0
 11 16  1  0  0  0  0
 17 18  1  0  0  0  0
 17 25  1  0  0  0  0
 18 19  1  0  0  0  0
 18 21  1  0  0  0  0
 18 26  1  0  0  0  0
 19 20  2  0  0  0  0
 19 29  1  0  0  0  0
 21 22  1  0  0  0  0
 21 27  1  0  0  0  0
 21 28  1  0  0  0  0
 22 23  1  0  0  0  0
 22 24  2  0  0  0  0
 29 30  1  0  0  0  0
 29 34  1  0  0  0  0
 30 31  1  0  0  0  0
 30 33  1  0  0  0  0
 30 35  1  0  0  0  0
 31 32  2  0  0  0  0
 31 39  1  0  0  0  0
 33 36  1  0  0  0  0
 33 37  1  0  0  0  0
 33 38  1  0  0  0  0
 39 40  1  0  0  0  0
 39 41  1  0  0  0  0
 40 42  1  0  0  0  0
 40 43  1  0  0  0  0
 40 44  1  0  0  0  0
M  CHG  1  23  -1
M  END
$$$$

  -OEChem-05262215553D

 44 43  0     1  0  0  0  0  0999 V2000
   -5.0402    0.0814   -3.5128 C   0  0  0  0  0  0  0  0  0  0  0  0
   -5.3758   -1.0931   -3.5000 O   0  0  0  0  0  0  0  0  0  0  0  0
   -6.0633    1.1560   -3.8330 C   0  0  0  0  0  0  0  0  0  0  0  0
   -5.7730    1.6871   -4.7426 H   0  0  0  0  0  0  0  0  0  0  0  0
   -7.0489    0.7070   -3.9836 H   0  0  0  0  0  0  0  0  0  0  0  0
   -6.1238    1.8687   -3.0067 H   0  0  0  0  0  0  0  0  0  0  0  0
   -3.7366    0.4468   -3.2576 N   0  0  0  0  0  0  0  0  0  0  0  0
   -2.6966   -0.4471   -2.7334 C   0  0  2  0  0  0  0  0  0  0  0  0
   -1.5731    0.3692   -2.0581 C   0  0  0  0  0  0  0  0  0  0  0  0
   -1.5035    1.5820   -2.2438 O   0  0  0  0  0  0  0  0  0  0  0  0
   -2.1220   -1.2848   -3.8825 C   0  0  0  0  0  0  0  0  0  0  0  0
   -3.5383    1.4445   -3.1812 H   0  0  0  0  0  0  0  0  0  0  0  0
   -3.1308   -1.1083   -1.9749 H   0  0  0  0  0  0  0  0  0  0  0  0
   -1.6804   -0.6342   -4.6440 H   0  0  0  0  0  0  0  0  0  0  0  0
   -1.3480   -1.9643   -3.5133 H   0  0  0  0  0  0  0  0  0  0  0  0
   -2.9088   -1.8845   -4.3499 H   0  0  0  0  0  0  0  0  0  0  0  0
   -0.5777   -0.2627   -1.3386 N   0  0  0  0  0  0  0  0  0  0  0  0
    0.1286    0.4563   -0.2649 C   0  0  2  0  0  0  0  0  0  0  0  0
    1.5489    0.8814   -0.6960 C   0  0  0  0  0  0  0  0  0  0  0  0
    2.2076    1.6818   -0.0397 O   0  0  0  0  0  0  0  0  0  0  0  0
    0.2276   -0.5453    0.8992 C   0  0  0  0  0  0  0  0  0  0  0  0
   -1.1233   -0.8511    1.5370 C   0  0  0  0  0  0  0  0  0  0  0  0
   -2.0214    0.0239    1.5162 O   0  5  0  0  0  0  0  0  0  0  0  0
   -1.2911   -2.0346    1.9140 O   0  0  0  0  0  0  0  0  0  0  0  0
   -0.7954   -1.2327   -1.1222 H   0  0  0  0  0  0  0  0  0  0  0  0
   -0.4162    1.3532    0.0546 H   0  0  0  0  0  0  0  0  0  0  0  0
    0.8659   -0.1214    1.6789 H   0  0  0  0  0  0  0  0  0  0  0  0
    0.6928   -1.4745    0.5572 H   0  0  0  0  0  0  0  0  0  0  0  0
    2.1235    0.3210   -1.8223 N   0  0  0  0  0  0  0  0  0  0  0  0
    3.3751    0.7787   -2.4320 C   0  0  2  0  0  0  0  0  0  0  0  0
    3.3293    0.6876   -3.9712 C   0  0  0  0  0  0  0  0  0  0  0  0
    2.6182   -0.1417   -4.5299 O   0  0  0  0  0  0  0  0  0  0  0  0
    4.5203   -0.0716   -1.8774 C   0  0  0  0  0  0  0  0  0  0  0  0
    1.4964   -0.2326   -2.4041 H   0  0  0  0  0  0  0  0  0  0  0  0
    3.5472    1.8281   -2.1713 H   0  0  0  0  0  0  0  0  0  0  0  0
    4.3688   -1.1265   -2.1277 H   0  0  0  0  0  0  0  0  0  0  0  0
    5.4769    0.2541   -2.2960 H   0  0  0  0  0  0  0  0  0  0  0  0
    4.5679    0.0246   -0.7879 H   0  0  0  0  0  0  0  0  0  0  0  0
    4.1035    1.5404   -4.7377 N   0  0  0  0  0  0  0  0  0  0  0  0
    4.0574    1.5701   -6.1935 C   0  0  0  0  0  0  0  0  0  0  0  0
    4.6165    2.2668   -4.2471 H   0  0  0  0  0  0  0  0  0  0  0  0
    4.3497    0.5991   -6.6065 H   0  0  0  0  0  0  0  0  0  0  0  0
    3.0470    1.8122   -6.5394 H   0  0  0  0  0  0  0  0  0  0  0  0
    4.7460    2.3290   -6.5767 H   0  0  0  0  0  0  0  0  0  0  0  0
  1  2  2  0  0  0  0
  1  3  1  0  0  0  0
  1  7  1  0  0  0  0
  3  4  1  0  0  0  0
  3  5  1  0  0  0  0
  3  6  1  0  0  0  0
  7  8  1  0  0  0  0
  7 12  1  0  0  0  0
  8  9  1  0  0  0  0
  8 11  1  0  0  0  0
  8 13  1  0  0  0  0
  9 10  2  0  0  0  0
  9 17  1  0  0  0  0
 11 14  1  0  0  0  0
 11 15  1  0  0  0  0
 11 16  1  0  0  0  0
 17 18  1  0  0  0  0
 17 25  1  0  0  0  0
 18 19  1  0  0  0  0
 18 21  1  0  0  0  0
 18 26  1  0  0  0  0
 19 20  2  0  0  0  0
 19 29  1  0  0  0  0
 21 22  1  0  0  0  0
 21 27  1  0  0  0  0
 21 28  1  0  0  0  0
 22 23  1  0  0  0  0
 22 24  2  0  0  0  0
 29 30  1  0  0  0  0
 29 34  1  0  0  0  0
 30 31  1  0  0  0  0
 30 33  1  0  0  0  0
 30 35  1  0  0  0  0
 31 32  2  0  0  0  0
 31 39  1  0  0  0  0
 33 36  1  0  0  0  0
 33 37  1  0  0  0  0
 33 38  1  0  0  0  0
 39 40  1  0  0  0  0
 39 41  1  0  0  0  0
 40 42  1  0  0  0  0
 40 43  1  0  0  0  0
 40 44  1  0  0  0  0
M  CHG  1  23  -1
M  END
$$$$

  -OEChem-05262215553D

 44 43  0     1  0  0  0  0  0999 V2000
   -5.0794    0.0367   -3.4697 C   0  0  0  0  0  0  0  0  0  0  0  0
   -5.4020   -1.1413   -3.4545 O   0  0  0  0  0  0  0  0  0  0  0  0
   -6.1198    1.1010   -3.7671 C   0  0  0  0  0  0  0  0  0  0  0  0
   -5.8256    1.6736   -4.6500 H   0  0  0  0  0  0  0  0  0  0  0  0
   -7.0925    0.6377   -3.9536 H   0  0  0  0  0  0  0  0  0  0  0  0
   -6.2104    1.7792   -2.9149 H   0  0  0  0  0  0  0  0  0  0  0  0
   -3.7759    0.4161   -3.2357 N   0  0  0  0  0  0  0  0  0  0  0  0
   -2.7180   -0.4669   -2.7291 C   0  0  2  0  0  0  0  0  0  0  0  0
   -1.5931    0.3618   -2.0714 C   0  0  0  0  0  0  0  0  0  0  0  0
   -1.5421    1.5769   -2.2497 O   0  0  0  0  0  0  0  0  0  0  0  0
   -2.1533   -1.2984   -3.8875 C   0  0  0  0  0  0  0  0  0  0  0  0
   -3.5882    1.4158   -3.1582 H   0  0  0  0  0  0  0  0  0  0  0  0
   -3.1323   -1.1328   -1.9635 H   0  0  0  0  0  0  0  0  0  0  0  0
   -1.7258   -0.6436   -4.6540 H   0  0  0  0  0  0  0  0  0  0  0  0
   -1.3705   -1.9735   -3.5293 H   0  0  0  0  0  0  0  0  0  0  0  0
   -2.9420   -1.9027   -4.3458 H   0  0  0  0  0  0  0  0  0  0  0  0
   -0.5726   -0.2559   -1.3754 N   0  0  0  0  0  0  0  0  0  0  0  0
    0.1203    0.4649   -0.2939 C   0  0  2  0  0  0  0  0  0  0  0  0
    1.5239    0.9432   -0.7291 C   0  0  0  0  0  0  0  0  0  0  0  0
    2.2630    1.5578    0.0337 O   0  0  0  0  0  0  0  0  0  0  0  0
    0.2435   -0.5596    0.8493 C   0  0  0  0  0  0  0  0  0  0  0  0
   -1.1007   -0.9069    1.4800 C   0  0  0  0  0  0  0  0  0  0  0  0
   -2.0164   -0.0497    1.4771 O   0  5  0  0  0  0  0  0  0  0  0  0
   -1.2469   -2.1026    1.8260 O   0  0  0  0  0  0  0  0  0  0  0  0
   -0.7593   -1.2355   -1.1736 H   0  0  0  0  0  0  0  0  0  0  0  0
   -0.4473    1.3403    0.0445 H   0  0  0  0  0  0  0  0  0  0  0  0
    0.8717   -0.1402    1.6397 H   0  0  0  0  0  0  0  0  0  0  0  0
    0.7297   -1.4706    0.4873 H   0  0  0  0  0  0  0  0  0  0  0  0
    1.9786    0.6728   -2.0069 N   0  0  0  0  0  0  0  0  0  0  0  0
    3.2176    1.2012   -2.5841 C   0  0  2  0  0  0  0  0  0  0  0  0
    3.1098    1.3834   -4.1120 C   0  0  0  0  0  0  0  0  0  0  0  0
    2.3735    0.6653   -4.7810 O   0  0  0  0  0  0  0  0  0  0  0  0
    4.3632    0.2449   -2.2410 C   0  0  0  0  0  0  0  0  0  0  0  0
    1.2869    0.2846   -2.6472 H   0  0  0  0  0  0  0  0  0  0  0  0
    3.4269    2.1840   -2.1501 H   0  0  0  0  0  0  0  0  0  0  0  0
    4.1702   -0.7479   -2.6600 H   0  0  0  0  0  0  0  0  0  0  0  0
    5.3081    0.6187   -2.6459 H   0  0  0  0  0  0  0  0  0  0  0  0
    4.4656    0.1507   -1.1552 H   0  0  0  0  0  0  0  0  0  0  0  0
    3.8599    2.3584   -4.7450 N   0  0  0  0  0  0  0  0  0  0  0  0
    3.7563    2.6455   -6.1692 C   0  0  0  0  0  0  0  0  0  0  0  0
    4.4007    2.9834   -4.1547 H   0  0  0  0  0  0  0  0  0  0  0  0
    4.0051    1.7567   -6.7582 H   0  0  0  0  0  0  0  0  0  0  0  0
    2.7395    2.9643   -6.4214 H   0  0  0  0  0  0  0  0  0  0  0  0
    4.4495    3.4463   -6.4435 H   0  0  0  0  0  0  0  0  0  0  0  0
  1  2  2  0  0  0  0
  1  3  1  0  0  0  0
  1  7  1  0  0  0  0
  3  4  1  0  0  0  0
  3  5  1  0  0  0  0
  3  6  1  0  0  0  0
  7  8  1  0  0  0  0
  7 12  1  0  0  0  0
  8  9  1  0  0  0  0
  8 11  1  0  0  0  0
  8 13  1  0  0  0  0
  9 10  2  0  0  0  0
  9 17  1  0  0  0  0
 11 14  1  0  0  0  0
 11 15  1  0  0  0  0
 11 16  1  0  0  0  0
 17 18  1  0  0  0  0
 17 25  1  0  0  0  0
 18 19  1  0  0  0  0
 18 21  1  0  0  0  0
 18 26  1  0  0  0  0
 19 20  2  0  0  0  0
 19 29  1  0  0  0  0
 21 22  1  0  0  0  0
 21 27  1  0  0  0  0
 21 28  1  0  0  0  0
 22 23  1  0  0  0  0
 22 24  2  0  0  0  0
 29 30  1  0  0  0  0
 29 34  1  0  0  0  0
 30 31  1  0  0  0  0
 30 33  1  0  0  0  0
 30 35  1  0  0  0  0
 31 32  2  0  0  0  0
 31 39  1  0  0  0  0
 33 36  1  0  0  0  0
 33 37  1  0  0  0  0
 33 38  1  0  0  0  0
 39 40  1  0  0  0  0
 39 41  1  0  0  0  0
 40 42  1  0  0  0  0
 40 43  1  0  0  0  0
 40 44  1  0  0  0  0
M  CHG  1  23  -1
M  END
$$$$

  -OEChem-05262215553D

 44 43  0     1  0  0  0  0  0999 V2000
   -5.0847   -0.0322   -3.4709 C   0  0  0  0  0  0  0  0  0  0  0  0
   -5.3718   -1.2195   -3.4834 O   0  0  0  0  0  0  0  0  0  0  0  0
   -6.1536    1.0056   -3.7619 C   0  0  0  0  0  0  0  0  0  0  0  0
   -5.8577    1.6145   -4.6195 H   0  0  0  0  0  0  0  0  0  0  0  0
   -7.1052    0.5161   -3.9869 H   0  0  0  0  0  0  0  0  0  0  0  0
   -6.2878    1.6544   -2.8927 H   0  0  0  0  0  0  0  0  0  0  0  0
   -3.7960    0.3819   -3.2138 N   0  0  0  0  0  0  0  0  0  0  0  0
   -2.7112   -0.4788   -2.7258 C   0  0  2  0  0  0  0  0  0  0  0  0
   -1.6080    0.3699   -2.0568 C   0  0  0  0  0  0  0  0  0  0  0  0
   -1.5894    1.5889   -2.2123 O   0  0  0  0  0  0  0  0  0  0  0  0
   -2.1250   -1.2702   -3.9018 C   0  0  0  0  0  0  0  0  0  0  0  0
   -3.6367    1.3851   -3.1225 H   0  0  0  0  0  0  0  0  0  0  0  0
   -3.1035   -1.1708   -1.9713 H   0  0  0  0  0  0  0  0  0  0  0  0
   -1.7271   -0.5874   -4.6593 H   0  0  0  0  0  0  0  0  0  0  0  0
   -1.3157   -1.9226   -3.5607 H   0  0  0  0  0  0  0  0  0  0  0  0
   -2.8944   -1.8949   -4.3654 H   0  0  0  0  0  0  0  0  0  0  0  0
   -0.5598   -0.2285   -1.3867 N   0  0  0  0  0  0  0  0  0  0  0  0
    0.1160    0.4837   -0.2894 C   0  0  2  0  0  0  0  0  0  0  0  0
    1.4983    1.0247   -0.7253 C   0  0  0  0  0  0  0  0  0  0  0  0
    2.3362    1.4059    0.0865 O   0  0  0  0  0  0  0  0  0  0  0  0
    0.2607   -0.5680    0.8278 C   0  0  0  0  0  0  0  0  0  0  0  0
   -1.0778   -0.9593    1.4458 C   0  0  0  0  0  0  0  0  0  0  0  0
   -2.0109   -0.1206    1.4621 O   0  5  0  0  0  0  0  0  0  0  0  0
   -1.2021   -2.1672    1.7564 O   0  0  0  0  0  0  0  0  0  0  0  0
   -0.7052   -1.2206   -1.2146 H   0  0  0  0  0  0  0  0  0  0  0  0
   -0.4768    1.3325    0.0718 H   0  0  0  0  0  0  0  0  0  0  0  0
    0.8768   -0.1571    1.6319 H   0  0  0  0  0  0  0  0  0  0  0  0
    0.7678   -1.4581    0.4434 H   0  0  0  0  0  0  0  0  0  0  0  0
    1.8188    1.0884   -2.0694 N   0  0  0  0  0  0  0  0  0  0  0  0
    3.0585    1.6521   -2.6137 C   0  0  2  0  0  0  0  0  0  0  0  0
    2.8866    2.1602   -4.0601 C   0  0  0  0  0  0  0  0  0  0  0  0
    2.0743    1.6413   -4.8183 O   0  0  0  0  0  0  0  0  0  0  0  0
    4.1497    0.5775   -2.5636 C   0  0  0  0  0  0  0  0  0  0  0  0
    1.0542    0.8980   -2.7176 H   0  0  0  0  0  0  0  0  0  0  0  0
    3.3637    2.5052   -1.9991 H   0  0  0  0  0  0  0  0  0  0  0  0
    3.8583   -0.2892   -3.1653 H   0  0  0  0  0  0  0  0  0  0  0  0
    5.0939    0.9710   -2.9512 H   0  0  0  0  0  0  0  0  0  0  0  0
    4.3120    0.2468   -1.5329 H   0  0  0  0  0  0  0  0  0  0  0  0
    3.6813    3.1923   -4.5272 N   0  0  0  0  0  0  0  0  0  0  0  0
    3.5609    3.7516   -5.8666 C   0  0  0  0  0  0  0  0  0  0  0  0
    4.3083    3.6345   -3.8619 H   0  0  0  0  0  0  0  0  0  0  0  0
    3.7566    2.9829   -6.6214 H   0  0  0  0  0  0  0  0  0  0  0  0
    2.5548    4.1543   -6.0240 H   0  0  0  0  0  0  0  0  0  0  0  0
    4.2835    4.5616   -6.0034 H   0  0  0  0  0  0  0  0  0  0  0  0
  1  2  2  0  0  0  0
  1  3  1  0  0  0  0
  1  7  1  0  0  0  0
  3  4  1  0  0  0  0
  3  5  1  0  0  0  0
  3  6  1  0  0  0  0
  7  8  1  0  0  0  0
  7 12  1  0  0  0  0
  8  9  1  0  0  0  0
  8 11  1  0  0  0  0
  8 13  1  0  0  0  0
  9 10  2  0  0  0  0
  9 17  1  0  0  0  0
 11 14  1  0  0  0  0
 11 15  1  0  0  0  0
 11 16  1  0  0  0  0
 17 18  1  0  0  0  0
 17 25  1  0  0  0  0
 18 19  1  0  0  0  0
 18 21  1  0  0  0  0
 18 26  1  0  0  0  0
 19 20  2  0  0  0  0
 19 29  1  0  0  0  0
 21 22  1  0  0  0  0
 21 27  1  0  0  0  0
 21 28  1  0  0  0  0
 22 23  1  0  0  0  0
 22 24  2  0  0  0  0
 29 30  1  0  0  0  0
 29 34  1  0  0  0  0
 30 31  1  0  0  0  0
 30 33  1  0  0  0  0
 30 35  1  0  0  0  0
 31 32  2  0  0  0  0
 31 39  1  0  0  0  0
 33 36  1  0  0  0  0
 33 37  1  0  0  0  0
 33 38  1  0  0  0  0
 39 40  1  0  0  0  0
 39 41  1  0  0  0  0
 40 42  1  0  0  0  0
 40 43  1  0  0  0  0
 40 44  1  0  0  0  0
M  CHG  1  23  -1
M  END
$$$$

  -OEChem-05262215553D

 44 43  0     1  0  0  0  0  0999 V2000
   -5.0142   -0.0593   -3.5123 C   0  0  0  0  0  0  0  0  0  0  0  0
   -5.3013   -1.2465   -3.5058 O   0  0  0  0  0  0  0  0  0  0  0  0
   -6.0855    0.9739   -3.8101 C   0  0  0  0  0  0  0  0  0  0  0  0
   -5.8343    1.5185   -4.7235 H   0  0  0  0  0  0  0  0  0  0  0  0
   -7.0550    0.4857   -3.9433 H   0  0  0  0  0  0  0  0  0  0  0  0
   -6.1595    1.6821   -2.9808 H   0  0  0  0  0  0  0  0  0  0  0  0
   -3.7246    0.3583   -3.2657 N   0  0  0  0  0  0  0  0  0  0  0  0
   -2.6492   -0.4936   -2.7428 C   0  0  2  0  0  0  0  0  0  0  0  0
   -1.5556    0.3687   -2.0755 C   0  0  0  0  0  0  0  0  0  0  0  0
   -1.5356    1.5861   -2.2469 O   0  0  0  0  0  0  0  0  0  0  0  0
   -2.0505   -1.3166   -3.8904 C   0  0  0  0  0  0  0  0  0  0  0  0
   -3.5677    1.3630   -3.1868 H   0  0  0  0  0  0  0  0  0  0  0  0
   -3.0540   -1.1661   -1.9775 H   0  0  0  0  0  0  0  0  0  0  0  0
   -1.6311   -0.6549   -4.6550 H   0  0  0  0  0  0  0  0  0  0  0  0
   -1.2559   -1.9711   -3.5202 H   0  0  0  0  0  0  0  0  0  0  0  0
   -2.8186   -1.9425   -4.3545 H   0  0  0  0  0  0  0  0  0  0  0  0
   -0.5041   -0.2094   -1.3946 N   0  0  0  0  0  0  0  0  0  0  0  0
    0.1271    0.5099   -0.2765 C   0  0  2  0  0  0  0  0  0  0  0  0
    1.4978    1.0912   -0.6970 C   0  0  0  0  0  0  0  0  0  0  0  0
    2.4270    1.2398    0.0916 O   0  0  0  0  0  0  0  0  0  0  0  0
    0.2631   -0.5427    0.8419 C   0  0  0  0  0  0  0  0  0  0  0  0
   -1.0842   -0.9615    1.4213 C   0  0  0  0  0  0  0  0  0  0  0  0
   -2.0320   -0.1391    1.4127 O   0  5  0  0  0  0  0  0  0  0  0  0
   -1.1959   -2.1716    1.7279 O   0  0  0  0  0  0  0  0  0  0  0  0
   -0.6292   -1.2055   -1.2311 H   0  0  0  0  0  0  0  0  0  0  0  0
   -0.4926    1.3437    0.0745 H   0  0  0  0  0  0  0  0  0  0  0  0
    0.8476   -0.1220    1.6643 H   0  0  0  0  0  0  0  0  0  0  0  0
    0.7978   -1.4216    0.4693 H   0  0  0  0  0  0  0  0  0  0  0  0
    1.6981    1.4583   -2.0154 N   0  0  0  0  0  0  0  0  0  0  0  0
    2.9334    2.0435   -2.5473 C   0  0  2  0  0  0  0  0  0  0  0  0
    2.6954    2.8899   -3.8148 C   0  0  0  0  0  0  0  0  0  0  0  0
    1.8327    2.5817   -4.6293 O   0  0  0  0  0  0  0  0  0  0  0  0
    3.9176    0.9100   -2.8546 C   0  0  0  0  0  0  0  0  0  0  0  0
    0.8674    1.4490   -2.6116 H   0  0  0  0  0  0  0  0  0  0  0  0
    3.3696    2.7030   -1.7903 H   0  0  0  0  0  0  0  0  0  0  0  0
    3.4958    0.2314   -3.6030 H   0  0  0  0  0  0  0  0  0  0  0  0
    4.8585    1.3144   -3.2391 H   0  0  0  0  0  0  0  0  0  0  0  0
    4.1338    0.3363   -1.9478 H   0  0  0  0  0  0  0  0  0  0  0  0
    3.4985    3.9879   -4.0697 N   0  0  0  0  0  0  0  0  0  0  0  0
    3.3288    4.8524   -5.2301 C   0  0  0  0  0  0  0  0  0  0  0  0
    4.1731    4.2465   -3.3560 H   0  0  0  0  0  0  0  0  0  0  0  0
    3.4445    4.2783   -6.1553 H   0  0  0  0  0  0  0  0  0  0  0  0
    2.3356    5.3133   -5.2218 H   0  0  0  0  0  0  0  0  0  0  0  0
    4.0802    5.6475   -5.2210 H   0  0  0  0  0  0  0  0  0  0  0  0
  1  2  2  0  0  0  0
  1  3  1  0  0  0  0
  1  7  1  0  0  0  0
  3  4  1  0  0  0  0
  3  5  1  0  0  0  0
  3  6  1  0  0  0  0
  7  8  1  0  0  0  0
  7 12  1  0  0  0  0
  8  9  1  0  0  0  0
  8 11  1  0  0  0  0
  8 13  1  0  0  0  0
  9 10  2  0  0  0  0
  9 17  1  0  0  0  0
 11 14  1  0  0  0  0
 11 15  1  0  0  0  0
 11 16  1  0  0  0  0
 17 18  1  0  0  0  0
 17 25  1  0  0  0  0
 18 19  1  0  0  0  0
 18 21  1  0  0  0  0
 18 26  1  0  0  0  0
 19 20  2  0  0  0  0
 19 29  1  0  0  0  0
 21 22  1  0  0  0  0
 21 27  1  0  0  0  0
 21 28  1  0  0  0  0
 22 23  1  0  0  0  0
 22 24  2  0  0  0  0
 29 30  1  0  0  0  0
 29 34  1  0  0  0  0
 30 31  1  0  0  0  0
 30 33  1  0  0  0  0
 30 35  1  0  0  0  0
 31 32  2  0  0  0  0
 31 39  1  0  0  0  0
 33 36  1  0  0  0  0
 33 37  1  0  0  0  0
 33 38  1  0  0  0  0
 39 40  1  0  0  0  0
 39 41  1  0  0  0  0
 40 42  1  0  0  0  0
 40 43  1  0  0  0  0
 40 44  1  0  0  0  0
M  CHG  1  23  -1
M  END
$$$$

  -OEChem-05262215553D

 44 43  0     1  0  0  0  0  0999 V2000
   -4.6797    0.2853   -3.5862 C   0  0  0  0  0  0  0  0  0  0  0  0
   -5.2555   -0.6994   -3.1512 O   0  0  0  0  0  0  0  0  0  0  0  0
   -5.4614    1.3414   -4.3463 C   0  0  0  0  0  0  0  0  0  0  0  0
   -5.0419    1.4690   -5.3470 H   0  0  0  0  0  0  0  0  0  0  0  0
   -6.5093    1.0429   -4.4388 H   0  0  0  0  0  0  0  0  0  0  0  0
   -5.4118    2.2943   -3.8135 H   0  0  0  0  0  0  0  0  0  0  0  0
   -3.3224    0.4484   -3.4092 N   0  0  0  0  0  0  0  0  0  0  0  0
   -2.4829   -0.3653   -2.5187 C   0  0  2  0  0  0  0  0  0  0  0  0
   -1.1755    0.3832   -2.1789 C   0  0  0  0  0  0  0  0  0  0  0  0
   -0.8637    1.4149   -2.7787 O   0  0  0  0  0  0  0  0  0  0  0  0
   -2.1664   -1.7057   -3.1953 C   0  0  0  0  0  0  0  0  0  0  0  0
   -2.9216    1.3375   -3.7056 H   0  0  0  0  0  0  0  0  0  0  0  0
   -3.0144   -0.5456   -1.5764 H   0  0  0  0  0  0  0  0  0  0  0  0
   -1.6268   -1.5415   -4.1332 H   0  0  0  0  0  0  0  0  0  0  0  0
   -1.5503   -2.3302   -2.5415 H   0  0  0  0  0  0  0  0  0  0  0  0
   -3.0882   -2.2525   -3.4149 H   0  0  0  0  0  0  0  0  0  0  0  0
   -0.2303   -0.1538   -1.3302 N   0  0  0  0  0  0  0  0  0  0  0  0
    0.5214    0.7591   -0.4567 C   0  0  2  0  0  0  0  0  0  0  0  0
    1.9544    0.9510   -0.9977 C   0  0  0  0  0  0  0  0  0  0  0  0
    2.9401    1.0627   -0.2794 O   0  0  0  0  0  0  0  0  0  0  0  0
    0.4828    0.1030    0.9360 C   0  0  0  0  0  0  0  0  0  0  0  0
   -0.9196    0.1248    1.5362 C   0  0  0  0  0  0  0  0  0  0  0  0
   -1.6989    1.0545    1.2128 O   0  5  0  0  0  0  0  0  0  0  0  0
   -1.2614   -0.8997    2.1703 O   0  0  0  0  0  0  0  0  0  0  0  0
   -0.5554   -0.9940   -0.8557 H   0  0  0  0  0  0  0  0  0  0  0  0
    0.0582    1.7515   -0.4025 H   0  0  0  0  0  0  0  0  0  0  0  0
    1.1366    0.6560    1.6155 H   0  0  0  0  0  0  0  0  0  0  0  0
    0.8517   -0.9256    0.8809 H   0  0  0  0  0  0  0  0  0  0  0  0
    2.0781    1.1696   -2.3576 N   0  0  0  0  0  0  0  0  0  0  0  0
    3.2620    1.7464   -3.0110 C   0  0  2  0  0  0  0  0  0  0  0  0
    3.1485    3.2756   -3.2081 C   0  0  0  0  0  0  0  0  0  0  0  0
    4.0628    3.9031   -3.7315 O   0  0  0  0  0  0  0  0  0  0  0  0
    3.4331    1.0294   -4.3529 C   0  0  0  0  0  0  0  0  0  0  0  0
    1.1866    1.1850   -2.8599 H   0  0  0  0  0  0  0  0  0  0  0  0
    4.1548    1.5613   -2.4044 H   0  0  0  0  0  0  0  0  0  0  0  0
    2.5712    1.2164   -5.0012 H   0  0  0  0  0  0  0  0  0  0  0  0
    4.3350    1.3846   -4.8612 H   0  0  0  0  0  0  0  0  0  0  0  0
    3.5273   -0.0495   -4.1963 H   0  0  0  0  0  0  0  0  0  0  0  0
    1.9820    3.9419   -2.8736 N   0  0  0  0  0  0  0  0  0  0  0  0
    1.8005    5.3796   -3.0085 C   0  0  0  0  0  0  0  0  0  0  0  0
    1.2463    3.3898   -2.4372 H   0  0  0  0  0  0  0  0  0  0  0  0
    2.5045    5.9151   -2.3632 H   0  0  0  0  0  0  0  0  0  0  0  0
    1.9616    5.6913   -4.0455 H   0  0  0  0  0  0  0  0  0  0  0  0
    0.7829    5.6579   -2.7185 H   0  0  0  0  0  0  0  0  0  0  0  0
  1  2  2  0  0  0  0
  1  3  1  0  0  0  0
  1  7  1  0  0  0  0
  3  4  1  0  0  0  0
  3  5  1  0  0  0  0
  3  6  1  0  0  0  0
  7  8  1  0  0  0  0
  7 12  1  0  0  0  0
  8  9  1  0  0  0  0
  8 11  1  0  0  0  0
  8 13  1  0  0  0  0
  9 10  2  0  0  0  0
  9 17  1  0  0  0  0
 11 14  1  0  0  0  0
 11 15  1  0  0  0  0
 11 16  1  0  0  0  0
 17 18  1  0  0  0  0
 17 25  1  0  0  0  0
 18 19  1  0  0  0  0
 18 21  1  0  0  0  0
 18 26  1  0  0  0  0
 19 20  2  0  0  0  0
 19 29  1  0  0  0  0
 21 22  1  0  0  0  0
 21 27  1  0  0  0  0
 21 28  1  0  0  0  0
 22 23  1  0  0  0  0
 22 24  2  0  0  0  0
 29 30  1  0  0  0  0
 29 34  1  0  0  0  0
 30 31  1  0  0  0  0
 30 33  1  0  0  0  0
 30 35  1  0  0  0  0
 31 32  2  0  0  0  0
 31 39  1  0  0  0  0
 33 36  1  0  0  0  0
 33 37  1  0  0  0  0
 33 38  1  0  0  0  0
 39 40  1  0  0  0  0
 39 41  1  0  0  0  0
 40 42  1  0  0  0  0
 40 43  1  0  0  0  0
 40 44  1  0  0  0  0
M  CHG  1  23  -1
M  END
$$$$

  -OEChem-05262215553D

 44 43  0     1  0  0  0  0  0999 V2000
   -4.8409   -0.5759   -3.5867 C   0  0  0  0  0  0  0  0  0  0  0  0
   -5.1423   -1.6636   -3.1209 O   0  0  0  0  0  0  0  0  0  0  0  0
   -5.8796    0.2340   -4.3408 C   0  0  0  0  0  0  0  0  0  0  0  0
   -5.5244    0.4491   -5.3514 H   0  0  0  0  0  0  0  0  0  0  0  0
   -6.8180   -0.3234   -4.4072 H   0  0  0  0  0  0  0  0  0  0  0  0
   -6.0654    1.1763   -3.8192 H   0  0  0  0  0  0  0  0  0  0  0  0
   -3.5637   -0.0758   -3.4505 N   0  0  0  0  0  0  0  0  0  0  0  0
   -2.5302   -0.6321   -2.5673 C   0  0  2  0  0  0  0  0  0  0  0  0
   -1.4374    0.4216   -2.2851 C   0  0  0  0  0  0  0  0  0  0  0  0
   -1.3728    1.4553   -2.9530 O   0  0  0  0  0  0  0  0  0  0  0  0
   -1.9105   -1.8757   -3.2185 C   0  0  0  0  0  0  0  0  0  0  0  0
   -3.4023    0.8772   -3.7746 H   0  0  0  0  0  0  0  0  0  0  0  0
   -2.9808   -0.9062   -1.6060 H   0  0  0  0  0  0  0  0  0  0  0  0
   -1.4556   -1.6165   -4.1796 H   0  0  0  0  0  0  0  0  0  0  0  0
   -1.1401   -2.3051   -2.5712 H   0  0  0  0  0  0  0  0  0  0  0  0
   -2.6740   -2.6404   -3.3894 H   0  0  0  0  0  0  0  0  0  0  0  0
   -0.4226    0.1799   -1.3831 N   0  0  0  0  0  0  0  0  0  0  0  0
    0.1037    1.2985   -0.5902 C   0  0  2  0  0  0  0  0  0  0  0  0
    1.4776    1.7261   -1.1457 C   0  0  0  0  0  0  0  0  0  0  0  0
    2.5168    1.7208   -0.4914 O   0  0  0  0  0  0  0  0  0  0  0  0
    0.1716    0.7813    0.8588 C   0  0  0  0  0  0  0  0  0  0  0  0
   -1.2139    0.5647    1.4591 C   0  0  0  0  0  0  0  0  0  0  0  0
   -2.1651    1.2759    1.0527 O   0  5  0  0  0  0  0  0  0  0  0  0
   -1.3401   -0.4290    2.2111 O   0  0  0  0  0  0  0  0  0  0  0  0
   -0.5601   -0.6738   -0.8467 H   0  0  0  0  0  0  0  0  0  0  0  0
   -0.5548    2.1748   -0.6292 H   0  0  0  0  0  0  0  0  0  0  0  0
    0.6848    1.5192    1.4809 H   0  0  0  0  0  0  0  0  0  0  0  0
    0.7456   -0.1491    0.9016 H   0  0  0  0  0  0  0  0  0  0  0  0
    1.5253    2.1547   -2.4583 N   0  0  0  0  0  0  0  0  0  0  0  0
    2.7549    2.4469   -3.2099 C   0  0  2  0  0  0  0  0  0  0  0  0
    3.3571    3.8382   -2.8854 C   0  0  0  0  0  0  0  0  0  0  0  0
    3.7054    4.6166   -3.7685 O   0  0  0  0  0  0  0  0  0  0  0  0
    2.4168    2.2762   -4.6957 C   0  0  0  0  0  0  0  0  0  0  0  0
    0.6326    2.1120   -2.9587 H   0  0  0  0  0  0  0  0  0  0  0  0
    3.5150    1.7029   -2.9503 H   0  0  0  0  0  0  0  0  0  0  0  0
    1.6774    3.0207   -5.0077 H   0  0  0  0  0  0  0  0  0  0  0  0
    3.3157    2.4002   -5.3076 H   0  0  0  0  0  0  0  0  0  0  0  0
    2.0084    1.2781   -4.8815 H   0  0  0  0  0  0  0  0  0  0  0  0
    3.5565    4.1955   -1.5665 N   0  0  0  0  0  0  0  0  0  0  0  0
    4.1195    5.4631   -1.1288 C   0  0  0  0  0  0  0  0  0  0  0  0
    3.2838    3.4963   -0.8693 H   0  0  0  0  0  0  0  0  0  0  0  0
    5.1393    5.5810   -1.5090 H   0  0  0  0  0  0  0  0  0  0  0  0
    3.5075    6.2970   -1.4876 H   0  0  0  0  0  0  0  0  0  0  0  0
    4.1500    5.5013   -0.0357 H   0  0  0  0  0  0  0  0  0  0  0  0
  1  2  2  0  0  0  0
  1  3  1  0  0  0  0
  1  7  1  0  0  0  0
  3  4  1  0  0  0  0
  3  5  1  0  0  0  0
  3  6  1  0  0  0  0
  7  8  1  0  0  0  0
  7 12  1  0  0  0  0
  8  9  1  0  0  0  0
  8 11  1  0  0  0  0
  8 13  1  0  0  0  0
  9 10  2  0  0  0  0
  9 17  1  0  0  0  0
 11 14  1  0  0  0  0
 11 15  1  0  0  0  0
 11 16  1  0  0  0  0
 17 18  1  0  0  0  0
 17 25  1  0  0  0  0
 18 19  1  0  0  0  0
 18 21  1  0  0  0  0
 18 26  1  0  0  0  0
 19 20  2  0  0  0  0
 19 29  1  0  0  0  0
 21 22  1  0  0  0  0
 21 27  1  0  0  0  0
 21 28  1  0  0  0  0
 22 23  1  0  0  0  0
 22 24  2  0  0  0  0
 29 30  1  0  0  0  0
 29 34  1  0  0  0  0
 30 31  1  0  0  0  0
 30 33  1  0  0  0  0
 30 35  1  0  0  0  0
 31 32  2  0  0  0  0
 31 39  1  0  0  0  0
 33 36  1  0  0  0  0
 33 37  1  0  0  0  0
 33 38  1  0  0  0  0
 39 40  1  0  0  0  0
 39 41  1  0  0  0  0
 40 42  1  0  0  0  0
 40 43  1  0  0  0  0
 40 44  1  0  0  0  0
M  CHG  1  23  -1
M  END
$$$$

  -OEChem-05262215553D

 44 43  0     1  0  0  0  0  0999 V2000
   -4.7641   -0.5604   -3.5876 C   0  0  0  0  0  0  0  0  0  0  0  0
   -5.0089   -1.6928   -3.2011 O   0  0  0  0  0  0  0  0  0  0  0  0
   -5.8495    0.2560   -4.2655 C   0  0  0  0  0  0  0  0  0  0  0  0
   -5.5293    0.5428   -5.2701 H   0  0  0  0  0  0  0  0  0  0  0  0
   -6.7711   -0.3279   -4.3412 H   0  0  0  0  0  0  0  0  0  0  0  0
   -6.0518    1.1586   -3.6835 H   0  0  0  0  0  0  0  0  0  0  0  0
   -3.5090   -0.0138   -3.4269 N   0  0  0  0  0  0  0  0  0  0  0  0
   -2.4418   -0.5880   -2.5971 C   0  0  2  0  0  0  0  0  0  0  0  0
   -1.4081    0.4948   -2.2191 C   0  0  0  0  0  0  0  0  0  0  0  0
   -1.3886    1.5756   -2.8122 O   0  0  0  0  0  0  0  0  0  0  0  0
   -1.7573   -1.7267   -3.3634 C   0  0  0  0  0  0  0  0  0  0  0  0
   -3.3945    0.9678   -3.6779 H   0  0  0  0  0  0  0  0  0  0  0  0
   -2.8718   -0.9757   -1.6660 H   0  0  0  0  0  0  0  0  0  0  0  0
   -1.3247   -1.3517   -4.2962 H   0  0  0  0  0  0  0  0  0  0  0  0
   -0.9588   -2.1697   -2.7608 H   0  0  0  0  0  0  0  0  0  0  0  0
   -2.4773   -2.5142   -3.6049 H   0  0  0  0  0  0  0  0  0  0  0  0
   -0.4000    0.2390   -1.3123 N   0  0  0  0  0  0  0  0  0  0  0  0
    0.0950    1.3406   -0.4794 C   0  0  2  0  0  0  0  0  0  0  0  0
    1.4658    1.8015   -1.0105 C   0  0  0  0  0  0  0  0  0  0  0  0
    2.5352    1.5799   -0.4485 O   0  0  0  0  0  0  0  0  0  0  0  0
    0.1635    0.7842    0.9550 C   0  0  0  0  0  0  0  0  0  0  0  0
   -1.2203    0.5207    1.5404 C   0  0  0  0  0  0  0  0  0  0  0  0
   -2.1837    1.2227    1.1476 O   0  5  0  0  0  0  0  0  0  0  0  0
   -1.3285   -0.4881    2.2748 O   0  0  0  0  0  0  0  0  0  0  0  0
   -0.5103   -0.6427   -0.8167 H   0  0  0  0  0  0  0  0  0  0  0  0
   -0.5786    2.2062   -0.4937 H   0  0  0  0  0  0  0  0  0  0  0  0
    0.6603    1.5144    1.5990 H   0  0  0  0  0  0  0  0  0  0  0  0
    0.7549   -0.1361    0.9754 H   0  0  0  0  0  0  0  0  0  0  0  0
    1.4649    2.5494   -2.1716 N   0  0  0  0  0  0  0  0  0  0  0  0
    2.6696    2.9109   -2.9324 C   0  0  2  0  0  0  0  0  0  0  0  0
    3.4130    4.1407   -2.3511 C   0  0  0  0  0  0  0  0  0  0  0  0
    3.7533    5.0865   -3.0559 O   0  0  0  0  0  0  0  0  0  0  0  0
    2.2288    3.1127   -4.3873 C   0  0  0  0  0  0  0  0  0  0  0  0
    0.5568    2.5998   -2.6410 H   0  0  0  0  0  0  0  0  0  0  0  0
    3.3736    2.0728   -2.9077 H   0  0  0  0  0  0  0  0  0  0  0  0
    1.5398    3.9601   -4.4643 H   0  0  0  0  0  0  0  0  0  0  0  0
    3.0963    3.3102   -5.0246 H   0  0  0  0  0  0  0  0  0  0  0  0
    1.7238    2.2162   -4.7602 H   0  0  0  0  0  0  0  0  0  0  0  0
    3.7453    4.1549   -1.0109 N   0  0  0  0  0  0  0  0  0  0  0  0
    4.4307    5.2500   -0.3424 C   0  0  0  0  0  0  0  0  0  0  0  0
    3.4558    3.3339   -0.4708 H   0  0  0  0  0  0  0  0  0  0  0  0
    4.5710    5.0129    0.7165 H   0  0  0  0  0  0  0  0  0  0  0  0
    5.4136    5.4186   -0.7937 H   0  0  0  0  0  0  0  0  0  0  0  0
    3.8433    6.1707   -0.4169 H   0  0  0  0  0  0  0  0  0  0  0  0
  1  2  2  0  0  0  0
  1  3  1  0  0  0  0
  1  7  1  0  0  0  0
  3  4  1  0  0  0  0
  3  5  1  0  0  0  0
  3  6  1  0  0  0  0
  7  8  1  0  0  0  0
  7 12  1  0  0  0  0
  8  9  1  0  0  0  0
  8 11  1  0  0  0  0
  8 13  1  0  0  0  0
  9 10  2  0  0  0  0
  9 17  1  0  0  0  0
 11 14  1  0  0  0  0
 11 15  1  0  0  0  0
 11 16  1  0  0  0  0
 17 18  1  0  0  0  0
 17 25  1  0  0  0  0
 18 19  1  0  0  0  0
 18 21  1  0  0  0  0
 18 26  1  0  0  0  0
 19 20  2  0  0  0  0
 19 29  1  0  0  0  0
 21 22  1  0  0  0  0
 21 27  1  0  0  0  0
 21 28  1  0  0  0  0
 22 23  1  0  0  0  0
 22 24  2  0  0  0  0
 29 30  1  0  0  0  0
 29 34  1  0  0  0  0
 30 31  1  0  0  0  0
 30 33  1  0  0  0  0
 30 35  1  0  0  0  0
 31 32  2  0  0  0  0
 31 39  1  0  0  0  0
 33 36  1  0  0  0  0
 33 37  1  0  0  0  0
 33 38  1  0  0  0  0
 39 40  1  0  0  0  0
 39 41  1  0  0  0  0
 40 42  1  0  0  0  0
 40 43  1  0  0  0  0
 40 44  1  0  0  0  0
M  CHG  1  23  -1
M  END
$$$$

  -OEChem-05262215553D

 44 43  0     1  0  0  0  0  0999 V2000
   -4.7807   -0.0249   -3.6515 C   0  0  0  0  0  0  0  0  0  0  0  0
   -5.0021   -1.2213   -3.7601 O   0  0  0  0  0  0  0  0  0  0  0  0
   -5.8887    0.9757   -3.9245 C   0  0  0  0  0  0  0  0  0  0  0  0
   -5.6049    1.6290   -4.7531 H   0  0  0  0  0  0  0  0  0  0  0  0
   -6.8137    0.4543   -4.1855 H   0  0  0  0  0  0  0  0  0  0  0  0
   -6.0667    1.5845   -3.0344 H   0  0  0  0  0  0  0  0  0  0  0  0
   -3.5298    0.4343   -3.3012 N   0  0  0  0  0  0  0  0  0  0  0  0
   -2.4315   -0.4039   -2.8035 C   0  0  2  0  0  0  0  0  0  0  0  0
   -1.4081    0.4533   -2.0274 C   0  0  0  0  0  0  0  0  0  0  0  0
   -1.4441    1.6814   -2.1100 O   0  0  0  0  0  0  0  0  0  0  0  0
   -1.7461   -1.1009   -3.9854 C   0  0  0  0  0  0  0  0  0  0  0  0
   -3.4329    1.4348   -3.1273 H   0  0  0  0  0  0  0  0  0  0  0  0
   -2.8293   -1.1550   -2.1112 H   0  0  0  0  0  0  0  0  0  0  0  0
   -1.3398   -0.3593   -4.6803 H   0  0  0  0  0  0  0  0  0  0  0  0
   -0.9274   -1.7361   -3.6341 H   0  0  0  0  0  0  0  0  0  0  0  0
   -2.4587   -1.7312   -4.5255 H   0  0  0  0  0  0  0  0  0  0  0  0
   -0.3737   -0.1334   -1.3268 N   0  0  0  0  0  0  0  0  0  0  0  0
    0.2172    0.5657   -0.1814 C   0  0  2  0  0  0  0  0  0  0  0  0
    1.5896    1.1498   -0.5741 C   0  0  0  0  0  0  0  0  0  0  0  0
    2.6420    0.5292   -0.4459 O   0  0  0  0  0  0  0  0  0  0  0  0
    0.3330   -0.4796    0.9456 C   0  0  0  0  0  0  0  0  0  0  0  0
   -1.0235   -0.9094    1.4952 C   0  0  0  0  0  0  0  0  0  0  0  0
   -1.9768   -0.0943    1.4581 O   0  5  0  0  0  0  0  0  0  0  0  0
   -1.1261   -2.1076    1.8476 O   0  0  0  0  0  0  0  0  0  0  0  0
   -0.4555   -1.1408   -1.2187 H   0  0  0  0  0  0  0  0  0  0  0  0
   -0.4156    1.3907    0.1670 H   0  0  0  0  0  0  0  0  0  0  0  0
    0.9024   -0.0484    1.7731 H   0  0  0  0  0  0  0  0  0  0  0  0
    0.8780   -1.3588    0.5890 H   0  0  0  0  0  0  0  0  0  0  0  0
    1.6334    2.4297   -1.0941 N   0  0  0  0  0  0  0  0  0  0  0  0
    2.8480    3.0820   -1.5968 C   0  0  2  0  0  0  0  0  0  0  0  0
    2.8144    4.6165   -1.4434 C   0  0  0  0  0  0  0  0  0  0  0  0
    1.7794    5.2493   -1.6184 O   0  0  0  0  0  0  0  0  0  0  0  0
    3.0234    2.6994   -3.0687 C   0  0  0  0  0  0  0  0  0  0  0  0
    0.7309    2.8610   -1.3046 H   0  0  0  0  0  0  0  0  0  0  0  0
    3.7124    2.7205   -1.0310 H   0  0  0  0  0  0  0  0  0  0  0  0
    2.1673    3.0445   -3.6573 H   0  0  0  0  0  0  0  0  0  0  0  0
    3.9326    3.1514   -3.4758 H   0  0  0  0  0  0  0  0  0  0  0  0
    3.1013    1.6124   -3.1712 H   0  0  0  0  0  0  0  0  0  0  0  0
    3.9800    5.3027   -1.1507 N   0  0  0  0  0  0  0  0  0  0  0  0
    4.0305    6.7448   -0.9517 C   0  0  0  0  0  0  0  0  0  0  0  0
    4.8077    4.7481   -0.9542 H   0  0  0  0  0  0  0  0  0  0  0  0
    3.6840    7.2673   -1.8495 H   0  0  0  0  0  0  0  0  0  0  0  0
    3.3984    7.0364   -0.1065 H   0  0  0  0  0  0  0  0  0  0  0  0
    5.0569    7.0605   -0.7425 H   0  0  0  0  0  0  0  0  0  0  0  0
  1  2  2  0  0  0  0
  1  3  1  0  0  0  0
  1  7  1  0  0  0  0
  3  4  1  0  0  0  0
  3  5  1  0  0  0  0
  3  6  1  0  0  0  0
  7  8  1  0  0  0  0
  7 12  1  0  0  0  0
  8  9  1  0  0  0  0
  8 11  1  0  0  0  0
  8 13  1  0  0  0  0
  9 10  2  0  0  0  0
  9 17  1  0  0  0  0
 11 14  1  0  0  0  0
 11 15  1  0  0  0  0
 11 16  1  0  0  0  0
 17 18  1  0  0  0  0
 17 25  1  0  0  0  0
 18 19  1  0  0  0  0
 18 21  1  0  0  0  0
 18 26  1  0  0  0  0
 19 20  2  0  0  0  0
 19 29  1  0  0  0  0
 21 22  1  0  0  0  0
 21 27  1  0  0  0  0
 21 28  1  0  0  0  0
 22 23  1  0  0  0  0
 22 24  2  0  0  0  0
 29 30  1  0  0  0  0
 29 34  1  0  0  0  0
 30 31  1  0  0  0  0
 30 33  1  0  0  0  0
 30 35  1  0  0  0  0
 31 32  2  0  0  0  0
 31 39  1  0  0  0  0
 33 36  1  0  0  0  0
 33 37  1  0  0  0  0
 33 38  1  0  0  0  0
 39 40  1  0  0  0  0
 39 41  1  0  0  0  0
 40 42  1  0  0  0  0
 40 43  1  0  0  0  0
 40 44  1  0  0  0  0
M  CHG  1  23  -1
M  END
$$$$

  -OEChem-05262215553D

 44 43  0     1  0  0  0  0  0999 V2000
   -4.7938   -0.0503   -3.6581 C   0  0  0  0  0  0  0  0  0  0  0  0
   -4.9777   -1.2500   -3.7968 O   0  0  0  0  0  0  0  0  0  0  0  0
   -5.9396    0.9196   -3.8818 C   0  0  0  0  0  0  0  0  0  0  0  0
   -5.7096    1.5807   -4.7208 H   0  0  0  0  0  0  0  0  0  0  0  0
   -6.8602    0.3726   -4.1031 H   0  0  0  0  0  0  0  0  0  0  0  0
   -6.0958    1.5228   -2.9840 H   0  0  0  0  0  0  0  0  0  0  0  0
   -3.5513    0.4398   -3.3197 N   0  0  0  0  0  0  0  0  0  0  0  0
   -2.4222   -0.3779   -2.8586 C   0  0  2  0  0  0  0  0  0  0  0  0
   -1.4222    0.4818   -2.0548 C   0  0  0  0  0  0  0  0  0  0  0  0
   -1.4933    1.7096   -2.0978 O   0  0  0  0  0  0  0  0  0  0  0  0
   -1.7254   -1.0115   -4.0684 C   0  0  0  0  0  0  0  0  0  0  0  0
   -3.4856    1.4362   -3.1117 H   0  0  0  0  0  0  0  0  0  0  0  0
   -2.7908   -1.1664   -2.1926 H   0  0  0  0  0  0  0  0  0  0  0  0
   -1.3499   -0.2352   -4.7426 H   0  0  0  0  0  0  0  0  0  0  0  0
   -0.8835   -1.6307   -3.7447 H   0  0  0  0  0  0  0  0  0  0  0  0
   -2.4233   -1.6468   -4.6220 H   0  0  0  0  0  0  0  0  0  0  0  0
   -0.3964   -0.1091   -1.3456 N   0  0  0  0  0  0  0  0  0  0  0  0
    0.2069    0.5683   -0.1933 C   0  0  2  0  0  0  0  0  0  0  0  0
    1.5925    1.1409   -0.5584 C   0  0  0  0  0  0  0  0  0  0  0  0
    2.5794    0.4218   -0.6957 O   0  0  0  0  0  0  0  0  0  0  0  0
    0.3166   -0.4862    0.9251 C   0  0  0  0  0  0  0  0  0  0  0  0
   -1.0391   -0.9094    1.4821 C   0  0  0  0  0  0  0  0  0  0  0  0
   -1.9867   -0.0871    1.4588 O   0  5  0  0  0  0  0  0  0  0  0  0
   -1.1427   -2.1045    1.8451 O   0  0  0  0  0  0  0  0  0  0  0  0
   -0.4525   -1.1208   -1.2731 H   0  0  0  0  0  0  0  0  0  0  0  0
   -0.4209    1.3942    0.1613 H   0  0  0  0  0  0  0  0  0  0  0  0
    0.8965   -0.0679    1.7518 H   0  0  0  0  0  0  0  0  0  0  0  0
    0.8495   -1.3679    0.5572 H   0  0  0  0  0  0  0  0  0  0  0  0
    1.7380    2.5017   -0.7563 N   0  0  0  0  0  0  0  0  0  0  0  0
    2.9898    3.1560   -1.1572 C   0  0  2  0  0  0  0  0  0  0  0  0
    3.1075    4.6062   -0.6436 C   0  0  0  0  0  0  0  0  0  0  0  0
    2.1105    5.2891   -0.4384 O   0  0  0  0  0  0  0  0  0  0  0  0
    3.0782    3.1276   -2.6859 C   0  0  0  0  0  0  0  0  0  0  0  0
    0.8899    3.0673   -0.7158 H   0  0  0  0  0  0  0  0  0  0  0  0
    3.8353    2.5991   -0.7404 H   0  0  0  0  0  0  0  0  0  0  0  0
    2.2419    3.6795   -3.1269 H   0  0  0  0  0  0  0  0  0  0  0  0
    4.0143    3.5815   -3.0238 H   0  0  0  0  0  0  0  0  0  0  0  0
    3.0439    2.0954   -3.0485 H   0  0  0  0  0  0  0  0  0  0  0  0
    4.3580    5.1639   -0.4402 N   0  0  0  0  0  0  0  0  0  0  0  0
    4.5588    6.5093    0.0812 C   0  0  0  0  0  0  0  0  0  0  0  0
    5.1632    4.5579   -0.5653 H   0  0  0  0  0  0  0  0  0  0  0  0
    4.0339    7.2434   -0.5391 H   0  0  0  0  0  0  0  0  0  0  0  0
    4.1838    6.5810    1.1074 H   0  0  0  0  0  0  0  0  0  0  0  0
    5.6240    6.7591    0.0821 H   0  0  0  0  0  0  0  0  0  0  0  0
  1  2  2  0  0  0  0
  1  3  1  0  0  0  0
  1  7  1  0  0  0  0
  3  4  1  0  0  0  0
  3  5  1  0  0  0  0
  3  6  1  0  0  0  0
  7  8  1  0  0  0  0
  7 12  1  0  0  0  0
  8  9  1  0  0  0  0
  8 11  1  0  0  0  0
  8 13  1  0  0  0  0
  9 10  2  0  0  0  0
  9 17  1  0  0  0  0
 11 14  1  0  0  0  0
 11 15  1  0  0  0  0
 11 16  1  0  0  0  0
 17 18  1  0  0  0  0
 17 25  1  0  0  0  0
 18 19  1  0  0  0  0
 18 21  1  0  0  0  0
 18 26  1  0  0  0  0
 19 20  2  0  0  0  0
 19 29  1  0  0  0  0
 21 22  1  0  0  0  0
 21 27  1  0  0  0  0
 21 28  1  0  0  0  0
 22 23  1  0  0  0  0
 22 24  2  0  0  0  0
 29 30  1  0  0  0  0
 29 34  1  0  0  0  0
 30 31  1  0  0  0  0
 30 33  1  0  0  0  0
 30 35  1  0  0  0  0
 31 32  2  0  0  0  0
 31 39  1  0  0  0  0
 33 36  1  0  0  0  0
 33 37  1  0  0  0  0
 33 38  1  0  0  0  0
 39 40  1  0  0  0  0
 39 41  1  0  0  0  0
 40 42  1  0  0  0  0
 40 43  1  0  0  0  0
 40 44  1  0  0  0  0
M  CHG  1  23  -1
M  END
$$$$

  -OEChem-05262215553D

 44 43  0     1  0  0  0  0  0999 V2000
   -4.7763   -0.0615   -3.7066 C   0  0  0  0  0  0  0  0  0  0  0  0
   -4.9112   -1.2587   -3.9095 O   0  0  0  0  0  0  0  0  0  0  0  0
   -5.9542    0.8757   -3.9011 C   0  0  0  0  0  0  0  0  0  0  0  0
   -5.7246    1.6049   -4.6816 H   0  0  0  0  0  0  0  0  0  0  0  0
   -6.8436    0.3109   -4.1940 H   0  0  0  0  0  0  0  0  0  0  0  0
   -6.1651    1.4051   -2.9686 H   0  0  0  0  0  0  0  0  0  0  0  0
   -3.5602    0.4564   -3.3181 N   0  0  0  0  0  0  0  0  0  0  0  0
   -2.4055   -0.3394   -2.8837 C   0  0  2  0  0  0  0  0  0  0  0  0
   -1.4598    0.5109   -2.0080 C   0  0  0  0  0  0  0  0  0  0  0  0
   -1.5706    1.7362   -2.0008 O   0  0  0  0  0  0  0  0  0  0  0  0
   -1.6562   -0.8606   -4.1157 C   0  0  0  0  0  0  0  0  0  0  0  0
   -3.5338    1.4436   -3.0629 H   0  0  0  0  0  0  0  0  0  0  0  0
   -2.7509   -1.1843   -2.2774 H   0  0  0  0  0  0  0  0  0  0  0  0
   -1.3022   -0.0248   -4.7275 H   0  0  0  0  0  0  0  0  0  0  0  0
   -0.7930   -1.4616   -3.8138 H   0  0  0  0  0  0  0  0  0  0  0  0
   -2.3131   -1.4869   -4.7266 H   0  0  0  0  0  0  0  0  0  0  0  0
   -0.4332   -0.0851   -1.3046 N   0  0  0  0  0  0  0  0  0  0  0  0
    0.2020    0.5722   -0.1577 C   0  0  2  0  0  0  0  0  0  0  0  0
    1.5930    1.1219   -0.5348 C   0  0  0  0  0  0  0  0  0  0  0  0
    2.4813    0.3867   -0.9603 O   0  0  0  0  0  0  0  0  0  0  0  0
    0.3279   -0.4875    0.9524 C   0  0  0  0  0  0  0  0  0  0  0  0
   -1.0169   -0.9027    1.5408 C   0  0  0  0  0  0  0  0  0  0  0  0
   -1.9586   -0.0735    1.5452 O   0  5  0  0  0  0  0  0  0  0  0  0
   -1.1163   -2.0949    1.9149 O   0  0  0  0  0  0  0  0  0  0  0  0
   -0.4513   -1.1000   -1.2774 H   0  0  0  0  0  0  0  0  0  0  0  0
   -0.4096    1.4040    0.2111 H   0  0  0  0  0  0  0  0  0  0  0  0
    0.9297   -0.0781    1.7677 H   0  0  0  0  0  0  0  0  0  0  0  0
    0.8457   -1.3712    0.5678 H   0  0  0  0  0  0  0  0  0  0  0  0
    1.8561    2.4749   -0.4231 N   0  0  0  0  0  0  0  0  0  0  0  0
    3.1262    3.1105   -0.7927 C   0  0  2  0  0  0  0  0  0  0  0  0
    3.4339    4.3698    0.0437 C   0  0  0  0  0  0  0  0  0  0  0  0
    2.5340    5.0240    0.5584 O   0  0  0  0  0  0  0  0  0  0  0  0
    3.0713    3.4644   -2.2819 C   0  0  0  0  0  0  0  0  0  0  0  0
    1.1026    3.0715   -0.0834 H   0  0  0  0  0  0  0  0  0  0  0  0
    3.9451    2.4044   -0.6228 H   0  0  0  0  0  0  0  0  0  0  0  0
    2.2572    4.1700   -2.4770 H   0  0  0  0  0  0  0  0  0  0  0  0
    4.0131    3.9189   -2.6029 H   0  0  0  0  0  0  0  0  0  0  0  0
    2.9012    2.5630   -2.8794 H   0  0  0  0  0  0  0  0  0  0  0  0
    4.7439    4.7880    0.1980 N   0  0  0  0  0  0  0  0  0  0  0  0
    5.1287    5.9426    0.9984 C   0  0  0  0  0  0  0  0  0  0  0  0
    5.4692    4.2010   -0.2025 H   0  0  0  0  0  0  0  0  0  0  0  0
    4.6421    6.8488    0.6230 H   0  0  0  0  0  0  0  0  0  0  0  0
    4.8421    5.7946    2.0447 H   0  0  0  0  0  0  0  0  0  0  0  0
    6.2120    6.0885    0.9525 H   0  0  0  0  0  0  0  0  0  0  0  0
  1  2  2  0  0  0  0
  1  3  1  0  0  0  0
  1  7  1  0  0  0  0
  3  4  1  0  0  0  0
  3  5  1  0  0  0  0
  3  6  1  0  0  0  0
  7  8  1  0  0  0  0
  7 12  1  0  0  0  0
  8  9  1  0  0  0  0
  8 11  1  0  0  0  0
  8 13  1  0  0  0  0
  9 10  2  0  0  0  0
  9 17  1  0  0  0  0
 11 14  1  0  0  0  0
 11 15  1  0  0  0  0
 11 16  1  0  0  0  0
 17 18  1  0  0  0  0
 17 25  1  0  0  0  0
 18 19  1  0  0  0  0
 18 21  1  0  0  0  0
 18 26  1  0  0  0  0
 19 20  2  0  0  0  0
 19 29  1  0  0  0  0
 21 22  1  0  0  0  0
 21 27  1  0  0  0  0
 21 28  1  0  0  0  0
 22 23  1  0  0  0  0
 22 24  2  0  0  0  0
 29 30  1  0  0  0  0
 29 34  1  0  0  0  0
 30 31  1  0  0  0  0
 30 33  1  0  0  0  0
 30 35  1  0  0  0  0
 31 32  2  0  0  0  0
 31 39  1  0  0  0  0
 33 36  1  0  0  0  0
 33 37  1  0  0  0  0
 33 38  1  0  0  0  0
 39 40  1  0  0  0  0
 39 41  1  0  0  0  0
 40 42  1  0  0  0  0
 40 43  1  0  0  0  0
 40 44  1  0  0  0  0
M  CHG  1  23  -1
M  END
$$$$

  -OEChem-05262215553D

 44 43  0     1  0  0  0  0  0999 V2000
   -4.8001   -0.0479   -3.6979 C   0  0  0  0  0  0  0  0  0  0  0  0
   -4.9358   -1.2453   -3.8986 O   0  0  0  0  0  0  0  0  0  0  0  0
   -5.9817    0.8871   -3.8799 C   0  0  0  0  0  0  0  0  0  0  0  0
   -5.7629    1.6147   -4.6649 H   0  0  0  0  0  0  0  0  0  0  0  0
   -6.8733    0.3203   -4.1619 H   0  0  0  0  0  0  0  0  0  0  0  0
   -6.1820    1.4180   -2.9457 H   0  0  0  0  0  0  0  0  0  0  0  0
   -3.5811    0.4715   -3.3212 N   0  0  0  0  0  0  0  0  0  0  0  0
   -2.4255   -0.3237   -2.8881 C   0  0  2  0  0  0  0  0  0  0  0  0
   -1.4806    0.5270   -2.0110 C   0  0  0  0  0  0  0  0  0  0  0  0
   -1.6129    1.7497   -1.9794 O   0  0  0  0  0  0  0  0  0  0  0  0
   -1.6774   -0.8453   -4.1206 C   0  0  0  0  0  0  0  0  0  0  0  0
   -3.5550    1.4578   -3.0618 H   0  0  0  0  0  0  0  0  0  0  0  0
   -2.7696   -1.1688   -2.2813 H   0  0  0  0  0  0  0  0  0  0  0  0
   -1.3252   -0.0095   -4.7333 H   0  0  0  0  0  0  0  0  0  0  0  0
   -0.8135   -1.4454   -3.8195 H   0  0  0  0  0  0  0  0  0  0  0  0
   -2.3341   -1.4732   -4.7301 H   0  0  0  0  0  0  0  0  0  0  0  0
   -0.4421   -0.0685   -1.3246 N   0  0  0  0  0  0  0  0  0  0  0  0
    0.2239    0.5807   -0.1900 C   0  0  2  0  0  0  0  0  0  0  0  0
    1.6137    1.1272   -0.5795 C   0  0  0  0  0  0  0  0  0  0  0  0
    2.4052    0.4548   -1.2371 O   0  0  0  0  0  0  0  0  0  0  0  0
    0.3763   -0.4853    0.9104 C   0  0  0  0  0  0  0  0  0  0  0  0
   -0.9512   -0.9039    1.5334 C   0  0  0  0  0  0  0  0  0  0  0  0
   -1.8921   -0.0748    1.5688 O   0  5  0  0  0  0  0  0  0  0  0  0
   -1.0373   -2.0969    1.9088 O   0  0  0  0  0  0  0  0  0  0  0  0
   -0.4359   -1.0836   -1.3243 H   0  0  0  0  0  0  0  0  0  0  0  0
   -0.3786    1.4123    0.1934 H   0  0  0  0  0  0  0  0  0  0  0  0
    0.9982   -0.0806    1.7131 H   0  0  0  0  0  0  0  0  0  0  0  0
    0.8835   -1.3670    0.5070 H   0  0  0  0  0  0  0  0  0  0  0  0
    2.0005    2.3946   -0.1823 N   0  0  0  0  0  0  0  0  0  0  0  0
    3.3098    2.9943   -0.4669 C   0  0  2  0  0  0  0  0  0  0  0  0
    3.7669    3.9791    0.6286 C   0  0  0  0  0  0  0  0  0  0  0  0
    2.9528    4.5413    1.3525 O   0  0  0  0  0  0  0  0  0  0  0  0
    3.2298    3.7076   -1.8197 C   0  0  0  0  0  0  0  0  0  0  0  0
    1.3515    2.9217    0.4007 H   0  0  0  0  0  0  0  0  0  0  0  0
    4.0654    2.2039   -0.5229 H   0  0  0  0  0  0  0  0  0  0  0  0
    2.4800    4.5047   -1.7878 H   0  0  0  0  0  0  0  0  0  0  0  0
    4.1973    4.1475   -2.0789 H   0  0  0  0  0  0  0  0  0  0  0  0
    2.9508    2.9985   -2.6055 H   0  0  0  0  0  0  0  0  0  0  0  0
    5.1138    4.2521    0.7887 N   0  0  0  0  0  0  0  0  0  0  0  0
    5.6338    5.1404    1.8192 C   0  0  0  0  0  0  0  0  0  0  0  0
    5.7660    3.7378    0.2043 H   0  0  0  0  0  0  0  0  0  0  0  0
    5.2146    6.1454    1.7045 H   0  0  0  0  0  0  0  0  0  0  0  0
    5.3788    4.7628    2.8148 H   0  0  0  0  0  0  0  0  0  0  0  0
    6.7230    5.2096    1.7427 H   0  0  0  0  0  0  0  0  0  0  0  0
  1  2  2  0  0  0  0
  1  3  1  0  0  0  0
  1  7  1  0  0  0  0
  3  4  1  0  0  0  0
  3  5  1  0  0  0  0
  3  6  1  0  0  0  0
  7  8  1  0  0  0  0
  7 12  1  0  0  0  0
  8  9  1  0  0  0  0
  8 11  1  0  0  0  0
  8 13  1  0  0  0  0
  9 10  2  0  0  0  0
  9 17  1  0  0  0  0
 11 14  1  0  0  0  0
 11 15  1  0  0  0  0
 11 16  1  0  0  0  0
 17 18  1  0  0  0  0
 17 25  1  0  0  0  0
 18 19  1  0  0  0  0
 18 21  1  0  0  0  0
 18 26  1  0  0  0  0
 19 20  2  0  0  0  0
 19 29  1  0  0  0  0
 21 22  1  0  0  0  0
 21 27  1  0  0  0  0
 21 28  1  0  0  0  0
 22 23  1  0  0  0  0
 22 24  2  0  0  0  0
 29 30  1  0  0  0  0
 29 34  1  0  0  0  0
 30 31  1  0  0  0  0
 30 33  1  0  0  0  0
 30 35  1  0  0  0  0
 31 32  2  0  0  0  0
 31 39  1  0  0  0  0
 33 36  1  0  0  0  0
 33 37  1  0  0  0  0
 33 38  1  0  0  0  0
 39 40  1  0  0  0  0
 39 41  1  0  0  0  0
 40 42  1  0  0  0  0
 40 43  1  0  0  0  0
 40 44  1  0  0  0  0
M  CHG  1  23  -1
M  END
$$$$

  -OEChem-05262215553D

 44 43  0     1  0  0  0  0  0999 V2000
   -4.8161   -0.0331   -3.6648 C   0  0  0  0  0  0  0  0  0  0  0  0
   -4.9556   -1.2314   -3.8588 O   0  0  0  0  0  0  0  0  0  0  0  0
   -5.9962    0.9042   -3.8451 C   0  0  0  0  0  0  0  0  0  0  0  0
   -5.7775    1.6315   -4.6307 H   0  0  0  0  0  0  0  0  0  0  0  0
   -6.8892    0.3386   -4.1245 H   0  0  0  0  0  0  0  0  0  0  0  0
   -6.1938    1.4364   -2.9112 H   0  0  0  0  0  0  0  0  0  0  0  0
   -3.5935    0.4867   -3.3002 N   0  0  0  0  0  0  0  0  0  0  0  0
   -2.4311   -0.3084   -2.8855 C   0  0  2  0  0  0  0  0  0  0  0  0
   -1.4736    0.5404   -2.0208 C   0  0  0  0  0  0  0  0  0  0  0  0
   -1.6149    1.7616   -1.9742 O   0  0  0  0  0  0  0  0  0  0  0  0
   -1.7028   -0.8290   -4.1305 C   0  0  0  0  0  0  0  0  0  0  0  0
   -3.5648    1.4727   -3.0397 H   0  0  0  0  0  0  0  0  0  0  0  0
   -2.7655   -1.1545   -2.2746 H   0  0  0  0  0  0  0  0  0  0  0  0
   -1.3651    0.0063   -4.7520 H   0  0  0  0  0  0  0  0  0  0  0  0
   -0.8309   -1.4245   -3.8435 H   0  0  0  0  0  0  0  0  0  0  0  0
   -2.3678   -1.4610   -4.7266 H   0  0  0  0  0  0  0  0  0  0  0  0
   -0.4255   -0.0582   -1.3521 N   0  0  0  0  0  0  0  0  0  0  0  0
    0.2564    0.5854   -0.2232 C   0  0  2  0  0  0  0  0  0  0  0  0
    1.6432    1.1400   -0.6140 C   0  0  0  0  0  0  0  0  0  0  0  0
    2.3408    0.5938   -1.4662 O   0  0  0  0  0  0  0  0  0  0  0  0
    0.4321   -0.4929    0.8621 C   0  0  0  0  0  0  0  0  0  0  0  0
   -0.8816   -0.9270    1.5034 C   0  0  0  0  0  0  0  0  0  0  0  0
   -1.8272   -0.1052    1.5660 O   0  5  0  0  0  0  0  0  0  0  0  0
   -0.9500   -2.1235    1.8708 O   0  0  0  0  0  0  0  0  0  0  0  0
   -0.4144   -1.0729   -1.3637 H   0  0  0  0  0  0  0  0  0  0  0  0
   -0.3440    1.4111    0.1760 H   0  0  0  0  0  0  0  0  0  0  0  0
    1.0671   -0.0973    1.6589 H   0  0  0  0  0  0  0  0  0  0  0  0
    0.9355   -1.3671    0.4381 H   0  0  0  0  0  0  0  0  0  0  0  0
    2.1514    2.2508    0.0352 N   0  0  0  0  0  0  0  0  0  0  0  0
    3.4894    2.8096   -0.1930 C   0  0  2  0  0  0  0  0  0  0  0  0
    4.0813    3.4631    1.0725 C   0  0  0  0  0  0  0  0  0  0  0  0
    3.3516    3.9125    1.9492 O   0  0  0  0  0  0  0  0  0  0  0  0
    3.3978    3.8349   -1.3269 C   0  0  0  0  0  0  0  0  0  0  0  0
    1.5938    2.6462    0.7915 H   0  0  0  0  0  0  0  0  0  0  0  0
    4.1722    2.0072   -0.4905 H   0  0  0  0  0  0  0  0  0  0  0  0
    2.7212    4.6499   -1.0508 H   0  0  0  0  0  0  0  0  0  0  0  0
    4.3836    4.2571   -1.5432 H   0  0  0  0  0  0  0  0  0  0  0  0
    3.0181    3.3605   -2.2375 H   0  0  0  0  0  0  0  0  0  0  0  0
    5.4537    3.5641    1.2177 N   0  0  0  0  0  0  0  0  0  0  0  0
    6.0944    4.1206    2.4017 C   0  0  0  0  0  0  0  0  0  0  0  0
    6.0302    3.1275    0.5046 H   0  0  0  0  0  0  0  0  0  0  0  0
    5.7587    5.1490    2.5714 H   0  0  0  0  0  0  0  0  0  0  0  0
    5.8539    3.5194    3.2846 H   0  0  0  0  0  0  0  0  0  0  0  0
    7.1809    4.1294    2.2732 H   0  0  0  0  0  0  0  0  0  0  0  0
  1  2  2  0  0  0  0
  1  3  1  0  0  0  0
  1  7  1  0  0  0  0
  3  4  1  0  0  0  0
  3  5  1  0  0  0  0
  3  6  1  0  0  0  0
  7  8  1  0  0  0  0
  7 12  1  0  0  0  0
  8  9  1  0  0  0  0
  8 11  1  0  0  0  0
  8 13  1  0  0  0  0
  9 10  2  0  0  0  0
  9 17  1  0  0  0  0
 11 14  1  0  0  0  0
 11 15  1  0  0  0  0
 11 16  1  0  0  0  0
 17 18  1  0  0  0  0
 17 25  1  0  0  0  0
 18 19  1  0  0  0  0
 18 21  1  0  0  0  0
 18 26  1  0  0  0  0
 19 20  2  0  0  0  0
 19 29  1  0  0  0  0
 21 22  1  0  0  0  0
 21 27  1  0  0  0  0
 21 28  1  0  0  0  0
 22 23  1  0  0  0  0
 22 24  2  0  0  0  0
 29 30  1  0  0  0  0
 29 34  1  0  0  0  0
 30 31  1  0  0  0  0
 30 33  1  0  0  0  0
 30 35  1  0  0  0  0
 31 32  2  0  0  0  0
 31 39  1  0  0  0  0
 33 36  1  0  0  0  0
 33 37  1  0  0  0  0
 33 38  1  0  0  0  0
 39 40  1  0  0  0  0
 39 41  1  0  0  0  0
 40 42  1  0  0  0  0
 40 43  1  0  0  0  0
 40 44  1  0  0  0  0
M  CHG  1  23  -1
M  END
$$$$

  -OEChem-05262215553D

 44 43  0     1  0  0  0  0  0999 V2000
   -4.8003   -0.0514   -3.6971 C   0  0  0  0  0  0  0  0  0  0  0  0
   -4.8985   -1.2448   -3.9400 O   0  0  0  0  0  0  0  0  0  0  0  0
   -6.0114    0.8508   -3.8492 C   0  0  0  0  0  0  0  0  0  0  0  0
   -5.7851    1.6664   -4.5402 H   0  0  0  0  0  0  0  0  0  0  0  0
   -6.8602    0.2823   -4.2397 H   0  0  0  0  0  0  0  0  0  0  0  0
   -6.2843    1.2709   -2.8779 H   0  0  0  0  0  0  0  0  0  0  0  0
   -3.5992    0.4916   -3.2966 N   0  0  0  0  0  0  0  0  0  0  0  0
   -2.4165   -0.2824   -2.9001 C   0  0  2  0  0  0  0  0  0  0  0  0
   -1.4923    0.5616   -1.9953 C   0  0  0  0  0  0  0  0  0  0  0  0
   -1.6636    1.7771   -1.9149 O   0  0  0  0  0  0  0  0  0  0  0  0
   -1.6593   -0.7339   -4.1548 C   0  0  0  0  0  0  0  0  0  0  0  0
   -3.6029    1.4679   -3.0005 H   0  0  0  0  0  0  0  0  0  0  0  0
   -2.7306   -1.1606   -2.3252 H   0  0  0  0  0  0  0  0  0  0  0  0
   -1.3424    0.1344   -4.7413 H   0  0  0  0  0  0  0  0  0  0  0  0
   -0.7713   -1.3117   -3.8803 H   0  0  0  0  0  0  0  0  0  0  0  0
   -2.2977   -1.3643   -4.7811 H   0  0  0  0  0  0  0  0  0  0  0  0
   -0.4428   -0.0367   -1.3281 N   0  0  0  0  0  0  0  0  0  0  0  0
    0.2478    0.6001   -0.1998 C   0  0  2  0  0  0  0  0  0  0  0  0
    1.6376    1.1526   -0.5887 C   0  0  0  0  0  0  0  0  0  0  0  0
    2.2245    0.7808   -1.6029 O   0  0  0  0  0  0  0  0  0  0  0  0
    0.4246   -0.4922    0.8726 C   0  0  0  0  0  0  0  0  0  0  0  0
   -0.8870   -0.9296    1.5159 C   0  0  0  0  0  0  0  0  0  0  0  0
   -1.8300   -0.1062    1.5939 O   0  5  0  0  0  0  0  0  0  0  0  0
   -0.9559   -2.1303    1.8694 O   0  0  0  0  0  0  0  0  0  0  0  0
   -0.4118   -1.0501   -1.3645 H   0  0  0  0  0  0  0  0  0  0  0  0
   -0.3467    1.4265    0.2077 H   0  0  0  0  0  0  0  0  0  0  0  0
    1.0631   -0.1113    1.6736 H   0  0  0  0  0  0  0  0  0  0  0  0
    0.9229   -1.3628    0.4358 H   0  0  0  0  0  0  0  0  0  0  0  0
    2.2843    2.0437    0.2494 N   0  0  0  0  0  0  0  0  0  0  0  0
    3.6481    2.5452    0.0388 C   0  0  2  0  0  0  0  0  0  0  0  0
    4.3994    2.7974    1.3619 C   0  0  0  0  0  0  0  0  0  0  0  0
    3.7886    3.0508    2.3940 O   0  0  0  0  0  0  0  0  0  0  0  0
    3.5647    3.8360   -0.7803 C   0  0  0  0  0  0  0  0  0  0  0  0
    1.8298    2.2624    1.1354 H   0  0  0  0  0  0  0  0  0  0  0  0
    4.2267    1.8043   -0.5221 H   0  0  0  0  0  0  0  0  0  0  0  0
    2.9898    4.5950   -0.2399 H   0  0  0  0  0  0  0  0  0  0  0  0
    4.5660    4.2301   -0.9774 H   0  0  0  0  0  0  0  0  0  0  0  0
    3.0741    3.6434   -1.7399 H   0  0  0  0  0  0  0  0  0  0  0  0
    5.7823    2.7600    1.3860 N   0  0  0  0  0  0  0  0  0  0  0  0
    6.5683    2.9454    2.5986 C   0  0  0  0  0  0  0  0  0  0  0  0
    6.2550    2.4924    0.5280 H   0  0  0  0  0  0  0  0  0  0  0  0
    6.3586    3.9228    3.0454 H   0  0  0  0  0  0  0  0  0  0  0  0
    6.3342    2.1646    3.3297 H   0  0  0  0  0  0  0  0  0  0  0  0
    7.6365    2.8947    2.3672 H   0  0  0  0  0  0  0  0  0  0  0  0
  1  2  2  0  0  0  0
  1  3  1  0  0  0  0
  1  7  1  0  0  0  0
  3  4  1  0  0  0  0
  3  5  1  0  0  0  0
  3  6  1  0  0  0  0
  7  8  1  0  0  0  0
  7 12  1  0  0  0  0
  8  9  1  0  0  0  0
  8 11  1  0  0  0  0
  8 13  1  0  0  0  0
  9 10  2  0  0  0  0
  9 17  1  0  0  0  0
 11 14  1  0  0  0  0
 11 15  1  0  0  0  0
 11 16  1  0  0  0  0
 17 18  1  0  0  0  0
 17 25  1  0  0  0  0
 18 19  1  0  0  0  0
 18 21  1  0  0  0  0
 18 26  1  0  0  0  0
 19 20  2  0  0  0  0
 19 29  1  0  0  0  0
 21 22  1  0  0  0  0
 21 27  1  0  0  0  0
 21 28  1  0  0  0  0
 22 23  1  0  0  0  0
 22 24  2  0  0  0  0
 29 30  1  0  0  0  0
 29 34  1  0  0  0  0
 30 31  1  0  0  0  0
 30 33  1  0  0  0  0
 30 35  1  0  0  0  0
 31 32  2  0  0  0  0
 31 39  1  0  0  0  0
 33 36  1  0  0  0  0
 33 37  1  0  0  0  0
 33 38  1  0  0  0  0
 39 40  1  0  0  0  0
 39 41  1  0  0  0  0
 40 42  1  0  0  0  0
 40 43  1  0  0  0  0
 40 44  1  0  0  0  0
M  CHG  1  23  -1
M  END
$$$$

  -OEChem-05262215553D

 44 43  0     1  0  0  0  0  0999 V2000
   -4.7446   -0.1009   -3.7864 C   0  0  0  0  0  0  0  0  0  0  0  0
   -4.7845   -1.2853   -4.0831 O   0  0  0  0  0  0  0  0  0  0  0  0
   -5.9815    0.7623   -3.9567 C   0  0  0  0  0  0  0  0  0  0  0  0
   -5.7399    1.6490   -4.5477 H   0  0  0  0  0  0  0  0  0  0  0  0
   -6.7673    0.2005   -4.4689 H   0  0  0  0  0  0  0  0  0  0  0  0
   -6.3515    1.0756   -2.9773 H   0  0  0  0  0  0  0  0  0  0  0  0
   -3.5870    0.4657   -3.3001 N   0  0  0  0  0  0  0  0  0  0  0  0
   -2.3899   -0.2793   -2.8911 C   0  0  2  0  0  0  0  0  0  0  0  0
   -1.5544    0.5431   -1.8855 C   0  0  0  0  0  0  0  0  0  0  0  0
   -1.8351    1.7240   -1.6848 O   0  0  0  0  0  0  0  0  0  0  0  0
   -1.5504   -0.6075   -4.1314 C   0  0  0  0  0  0  0  0  0  0  0  0
   -3.6417    1.4261   -2.9606 H   0  0  0  0  0  0  0  0  0  0  0  0
   -2.6883   -1.2088   -2.3939 H   0  0  0  0  0  0  0  0  0  0  0  0
   -1.2341    0.3133   -4.6315 H   0  0  0  0  0  0  0  0  0  0  0  0
   -0.6579   -1.1752   -3.8512 H   0  0  0  0  0  0  0  0  0  0  0  0
   -2.1308   -1.2077   -4.8385 H   0  0  0  0  0  0  0  0  0  0  0  0
   -0.4876   -0.0402   -1.2327 N   0  0  0  0  0  0  0  0  0  0  0  0
    0.2145    0.6045   -0.1170 C   0  0  2  0  0  0  0  0  0  0  0  0
    1.4025    1.4856   -0.5755 C   0  0  0  0  0  0  0  0  0  0  0  0
    1.7654    1.5377   -1.7488 O   0  0  0  0  0  0  0  0  0  0  0  0
    0.7297   -0.5430    0.7756 C   0  0  0  0  0  0  0  0  0  0  0  0
   -0.3843   -1.2980    1.4929 C   0  0  0  0  0  0  0  0  0  0  0  0
   -1.4425   -0.6898    1.7809 O   0  5  0  0  0  0  0  0  0  0  0  0
   -0.1905   -2.5219    1.6803 O   0  0  0  0  0  0  0  0  0  0  0  0
   -0.3956   -1.0470   -1.3196 H   0  0  0  0  0  0  0  0  0  0  0  0
   -0.4731    1.2386    0.4553 H   0  0  0  0  0  0  0  0  0  0  0  0
    1.3862   -0.1384    1.5498 H   0  0  0  0  0  0  0  0  0  0  0  0
    1.3167   -1.2434    0.1741 H   0  0  0  0  0  0  0  0  0  0  0  0
    2.1613    2.1609    0.3649 N   0  0  0  0  0  0  0  0  0  0  0  0
    3.4033    2.8872    0.0722 C   0  0  2  0  0  0  0  0  0  0  0  0
    4.4265    2.7856    1.2218 C   0  0  0  0  0  0  0  0  0  0  0  0
    4.0565    2.6124    2.3776 O   0  0  0  0  0  0  0  0  0  0  0  0
    3.0495    4.3513   -0.1997 C   0  0  0  0  0  0  0  0  0  0  0  0
    1.9260    2.0057    1.3447 H   0  0  0  0  0  0  0  0  0  0  0  0
    3.8765    2.4626   -0.8189 H   0  0  0  0  0  0  0  0  0  0  0  0
    2.5810    4.8010    0.6815 H   0  0  0  0  0  0  0  0  0  0  0  0
    3.9479    4.9233   -0.4488 H   0  0  0  0  0  0  0  0  0  0  0  0
    2.3512    4.4210   -1.0398 H   0  0  0  0  0  0  0  0  0  0  0  0
    5.7793    2.9061    0.9570 N   0  0  0  0  0  0  0  0  0  0  0  0
    6.8091    2.7493    1.9758 C   0  0  0  0  0  0  0  0  0  0  0  0
    6.0573    2.9833   -0.0166 H   0  0  0  0  0  0  0  0  0  0  0  0
    6.6806    3.4937    2.7685 H   0  0  0  0  0  0  0  0  0  0  0  0
    6.7595    1.7491    2.4190 H   0  0  0  0  0  0  0  0  0  0  0  0
    7.8009    2.8834    1.5337 H   0  0  0  0  0  0  0  0  0  0  0  0
  1  2  2  0  0  0  0
  1  3  1  0  0  0  0
  1  7  1  0  0  0  0
  3  4  1  0  0  0  0
  3  5  1  0  0  0  0
  3  6  1  0  0  0  0
  7  8  1  0  0  0  0
  7 12  1  0  0  0  0
  8  9  1  0  0  0  0
  8 11  1  0  0  0  0
  8 13  1  0  0  0  0
  9 10  2  0  0  0  0
  9 17  1  0  0  0  0
 11 14  1  0  0  0  0
 11 15  1  0  0  0  0
 11 16  1  0  0  0  0
 17 18  1  0  0  0  0
 17 25  1  0  0  0  0
 18 19  1  0  0  0  0
 18 21  1  0  0  0  0
 18 26  1  0  0  0  0
 19 20  2  0  0  0  0
 19 29  1  0  0  0  0
 21 22  1  0  0  0  0
 21 27  1  0  0  0  0
 21 28  1  0  0  0  0
 22 23  1  0  0  0  0
 22 24  2  0  0  0  0
 29 30  1  0  0  0  0
 29 34  1  0  0  0  0
 30 31  1  0  0  0  0
 30 33  1  0  0  0  0
 30 35  1  0  0  0  0
 31 32  2  0  0  0  0
 31 39  1  0  0  0  0
 33 36  1  0  0  0  0
 33 37  1  0  0  0  0
 33 38  1  0  0  0  0
 39 40  1  0  0  0  0
 39 41  1  0  0  0  0
 40 42  1  0  0  0  0
 40 43  1  0  0  0  0
 40 44  1  0  0  0  0
M  CHG  1  23  -1
M  END
$$$$

  -OEChem-05262215553D

 44 43  0     1  0  0  0  0  0999 V2000
   -4.7082   -0.0852   -3.8236 C   0  0  0  0  0  0  0  0  0  0  0  0
   -4.7171   -1.2587   -4.1637 O   0  0  0  0  0  0  0  0  0  0  0  0
   -5.9611    0.7561   -3.9856 C   0  0  0  0  0  0  0  0  0  0  0  0
   -5.7374    1.6512   -4.5709 H   0  0  0  0  0  0  0  0  0  0  0  0
   -6.7373    0.1827   -4.4999 H   0  0  0  0  0  0  0  0  0  0  0  0
   -6.3358    1.0554   -3.0036 H   0  0  0  0  0  0  0  0  0  0  0  0
   -3.5718    0.4875   -3.2958 N   0  0  0  0  0  0  0  0  0  0  0  0
   -2.3674   -0.2480   -2.8907 C   0  0  2  0  0  0  0  0  0  0  0  0
   -1.5659    0.5499   -1.8382 C   0  0  0  0  0  0  0  0  0  0  0  0
   -1.8738    1.7166   -1.5988 O   0  0  0  0  0  0  0  0  0  0  0  0
   -1.5012   -0.5132   -4.1275 C   0  0  0  0  0  0  0  0  0  0  0  0
   -3.6504    1.4359   -2.9280 H   0  0  0  0  0  0  0  0  0  0  0  0
   -2.6562   -1.2010   -2.4341 H   0  0  0  0  0  0  0  0  0  0  0  0
   -1.1973    0.4317   -4.5889 H   0  0  0  0  0  0  0  0  0  0  0  0
   -0.6016   -1.0721   -3.8529 H   0  0  0  0  0  0  0  0  0  0  0  0
   -2.0568   -1.0994   -4.8653 H   0  0  0  0  0  0  0  0  0  0  0  0
   -0.5041   -0.0446   -1.1855 N   0  0  0  0  0  0  0  0  0  0  0  0
    0.1956    0.5799   -0.0560 C   0  0  2  0  0  0  0  0  0  0  0  0
    1.3911    1.4619   -0.5043 C   0  0  0  0  0  0  0  0  0  0  0  0
    1.6011    1.7253   -1.6861 O   0  0  0  0  0  0  0  0  0  0  0  0
    0.6881   -0.5939    0.8197 C   0  0  0  0  0  0  0  0  0  0  0  0
   -0.4413   -1.3486    1.5138 C   0  0  0  0  0  0  0  0  0  0  0  0
   -1.4945   -0.7345    1.8068 O   0  5  0  0  0  0  0  0  0  0  0  0
   -0.2625   -2.5783    1.6773 O   0  0  0  0  0  0  0  0  0  0  0  0
   -0.4033   -1.0476   -1.2999 H   0  0  0  0  0  0  0  0  0  0  0  0
   -0.4888    1.2113    0.5228 H   0  0  0  0  0  0  0  0  0  0  0  0
    1.3394   -0.2183    1.6121 H   0  0  0  0  0  0  0  0  0  0  0  0
    1.2733   -1.2895    0.2112 H   0  0  0  0  0  0  0  0  0  0  0  0
    2.3411    1.8750    0.4149 N   0  0  0  0  0  0  0  0  0  0  0  0
    3.6009    2.5476    0.0732 C   0  0  2  0  0  0  0  0  0  0  0  0
    4.7546    2.1407    1.0120 C   0  0  0  0  0  0  0  0  0  0  0  0
    4.5319    1.8067    2.1702 O   0  0  0  0  0  0  0  0  0  0  0  0
    3.3723    4.0596    0.1340 C   0  0  0  0  0  0  0  0  0  0  0  0
    2.2300    1.5435    1.3725 H   0  0  0  0  0  0  0  0  0  0  0  0
    3.9012    2.2720   -0.9428 H   0  0  0  0  0  0  0  0  0  0  0  0
    3.0747    4.3605    1.1435 H   0  0  0  0  0  0  0  0  0  0  0  0
    4.2867    4.5958   -0.1358 H   0  0  0  0  0  0  0  0  0  0  0  0
    2.5811    4.3502   -0.5644 H   0  0  0  0  0  0  0  0  0  0  0  0
    6.0600    2.1631    0.5538 N   0  0  0  0  0  0  0  0  0  0  0  0
    7.1934    1.7177    1.3534 C   0  0  0  0  0  0  0  0  0  0  0  0
    6.2035    2.3764   -0.4287 H   0  0  0  0  0  0  0  0  0  0  0  0
    7.2660    2.3029    2.2757 H   0  0  0  0  0  0  0  0  0  0  0  0
    7.0849    0.6598    1.6140 H   0  0  0  0  0  0  0  0  0  0  0  0
    8.1235    1.8435    0.7916 H   0  0  0  0  0  0  0  0  0  0  0  0
  1  2  2  0  0  0  0
  1  3  1  0  0  0  0
  1  7  1  0  0  0  0
  3  4  1  0  0  0  0
  3  5  1  0  0  0  0
  3  6  1  0  0  0  0
  7  8  1  0  0  0  0
  7 12  1  0  0  0  0
  8  9  1  0  0  0  0
  8 11  1  0  0  0  0
  8 13  1  0  0  0  0
  9 10  2  0  0  0  0
  9 17  1  0  0  0  0
 11 14  1  0  0  0  0
 11 15  1  0  0  0  0
 11 16  1  0  0  0  0
 17 18  1  0  0  0  0
 17 25  1  0  0  0  0
 18 19  1  0  0  0  0
 18 21  1  0  0  0  0
 18 26  1  0  0  0  0
 19 20  2  0  0  0  0
 19 29  1  0  0  0  0
 21 22  1  0  0  0  0
 21 27  1  0  0  0  0
 21 28  1  0  0  0  0
 22 23  1  0  0  0  0
 22 24  2  0  0  0  0
 29 30  1  0  0  0  0
 29 34  1  0  0  0  0
 30 31  1  0  0  0  0
 30 33  1  0  0  0  0
 30 35  1  0  0  0  0
 31 32  2  0  0  0  0
 31 39  1  0  0  0  0
 33 36  1  0  0  0  0
 33 37  1  0  0  0  0
 33 38  1  0  0  0  0
 39 40  1  0  0  0  0
 39 41  1  0  0  0  0
 40 42  1  0  0  0  0
 40 43  1  0  0  0  0
 40 44  1  0  0  0  0
M  CHG  1  23  -1
M  END
$$$$

  -OEChem-05262215553D

 44 43  0     1  0  0  0  0  0999 V2000
   -4.6778   -0.0693   -3.8377 C   0  0  0  0  0  0  0  0  0  0  0  0
   -4.6780   -1.2384   -4.1930 O   0  0  0  0  0  0  0  0  0  0  0  0
   -5.9331    0.7689   -3.9970 C   0  0  0  0  0  0  0  0  0  0  0  0
   -5.7093    1.6703   -4.5725 H   0  0  0  0  0  0  0  0  0  0  0  0
   -6.7050    0.1985   -4.5209 H   0  0  0  0  0  0  0  0  0  0  0  0
   -6.3129    1.0579   -3.0138 H   0  0  0  0  0  0  0  0  0  0  0  0
   -3.5468    0.5033   -3.2989 N   0  0  0  0  0  0  0  0  0  0  0  0
   -2.3428   -0.2326   -2.8942 C   0  0  2  0  0  0  0  0  0  0  0  0
   -1.5561    0.5517   -1.8212 C   0  0  0  0  0  0  0  0  0  0  0  0
   -1.8721    1.7131   -1.5697 O   0  0  0  0  0  0  0  0  0  0  0  0
   -1.4622   -0.4733   -4.1260 C   0  0  0  0  0  0  0  0  0  0  0  0
   -3.6348    1.4441   -2.9134 H   0  0  0  0  0  0  0  0  0  0  0  0
   -2.6318   -1.1940   -2.4559 H   0  0  0  0  0  0  0  0  0  0  0  0
   -1.1618    0.4805   -4.5713 H   0  0  0  0  0  0  0  0  0  0  0  0
   -0.5602   -1.0283   -3.8509 H   0  0  0  0  0  0  0  0  0  0  0  0
   -2.0061   -1.0536   -4.8775 H   0  0  0  0  0  0  0  0  0  0  0  0
   -0.5098   -0.0568   -1.1556 N   0  0  0  0  0  0  0  0  0  0  0  0
    0.1822    0.5526   -0.0129 C   0  0  2  0  0  0  0  0  0  0  0  0
    1.3947    1.4215   -0.4496 C   0  0  0  0  0  0  0  0  0  0  0  0
    1.4786    1.8989   -1.5782 O   0  0  0  0  0  0  0  0  0  0  0  0
    0.6283   -0.6374    0.8683 C   0  0  0  0  0  0  0  0  0  0  0  0
   -0.5316   -1.3673    1.5379 C   0  0  0  0  0  0  0  0  0  0  0  0
   -1.5756   -0.7310    1.8142 O   0  5  0  0  0  0  0  0  0  0  0  0
   -0.3834   -2.6012    1.6988 O   0  0  0  0  0  0  0  0  0  0  0  0
   -0.4213   -1.0606   -1.2731 H   0  0  0  0  0  0  0  0  0  0  0  0
   -0.4983    1.1957    0.5571 H   0  0  0  0  0  0  0  0  0  0  0  0
    1.2656   -0.2803    1.6796 H   0  0  0  0  0  0  0  0  0  0  0  0
    1.2111   -1.3446    0.2704 H   0  0  0  0  0  0  0  0  0  0  0  0
    2.4974    1.5718    0.3754 N   0  0  0  0  0  0  0  0  0  0  0  0
    3.7662    2.1947   -0.0223 C   0  0  2  0  0  0  0  0  0  0  0  0
    4.9821    1.5084    0.6329 C   0  0  0  0  0  0  0  0  0  0  0  0
    4.8785    0.9591    1.7240 O   0  0  0  0  0  0  0  0  0  0  0  0
    3.7161    3.6761    0.3595 C   0  0  0  0  0  0  0  0  0  0  0  0
    2.4833    1.0598    1.2565 H   0  0  0  0  0  0  0  0  0  0  0  0
    3.8951    2.1101   -1.1061 H   0  0  0  0  0  0  0  0  0  0  0  0
    3.5953    3.7881    1.4417 H   0  0  0  0  0  0  0  0  0  0  0  0
    4.6377    4.1811    0.0559 H   0  0  0  0  0  0  0  0  0  0  0  0
    2.8731    4.1657   -0.1385 H   0  0  0  0  0  0  0  0  0  0  0  0
    6.2085    1.5130   -0.0079 N   0  0  0  0  0  0  0  0  0  0  0  0
    7.3788    0.8127    0.5050 C   0  0  0  0  0  0  0  0  0  0  0  0
    6.2428    1.9106   -0.9419 H   0  0  0  0  0  0  0  0  0  0  0  0
    7.6369    1.1773    1.5046 H   0  0  0  0  0  0  0  0  0  0  0  0
    7.1859   -0.2637    0.5604 H   0  0  0  0  0  0  0  0  0  0  0  0
    8.2363    0.9786   -0.1537 H   0  0  0  0  0  0  0  0  0  0  0  0
  1  2  2  0  0  0  0
  1  3  1  0  0  0  0
  1  7  1  0  0  0  0
  3  4  1  0  0  0  0
  3  5  1  0  0  0  0
  3  6  1  0  0  0  0
  7  8  1  0  0  0  0
  7 12  1  0  0  0  0
  8  9  1  0  0  0  0
  8 11  1  0  0  0  0
  8 13  1  0  0  0  0
  9 10  2  0  0  0  0
  9 17  1  0  0  0  0
 11 14  1  0  0  0  0
 11 15  1  0  0  0  0
 11 16  1  0  0  0  0
 17 18  1  0  0  0  0
 17 25  1  0  0  0  0
 18 19  1  0  0  0  0
 18 21  1  0  0  0  0
 18 26  1  0  0  0  0
 19 20  2  0  0  0  0
 19 29  1  0  0  0  0
 21 22  1  0  0  0  0
 21 27  1  0  0  0  0
 21 28  1  0  0  0  0
 22 23  1  0  0  0  0
 22 24  2  0  0  0  0
 29 30  1  0  0  0  0
 29 34  1  0  0  0  0
 30 31  1  0  0  0  0
 30 33  1  0  0  0  0
 30 35  1  0  0  0  0
 31 32  2  0  0  0  0
 31 39  1  0  0  0  0
 33 36  1  0  0  0  0
 33 37  1  0  0  0  0
 33 38  1  0  0  0  0
 39 40  1  0  0  0  0
 39 41  1  0  0  0  0
 40 42  1  0  0  0  0
 40 43  1  0  0  0  0
 40 44  1  0  0  0  0
M  CHG  1  23  -1
M  END
$$$$

  -OEChem-05262215553D

 44 43  0     1  0  0  0  0  0999 V2000
   -4.6492   -0.0634   -3.8653 C   0  0  0  0  0  0  0  0  0  0  0  0
   -4.6316   -1.2267   -4.2388 O   0  0  0  0  0  0  0  0  0  0  0  0
   -5.9119    0.7628   -4.0303 C   0  0  0  0  0  0  0  0  0  0  0  0
   -5.6991    1.6566   -4.6219 H   0  0  0  0  0  0  0  0  0  0  0  0
   -6.6823    0.1770   -4.5395 H   0  0  0  0  0  0  0  0  0  0  0  0
   -6.2884    1.0653   -3.0498 H   0  0  0  0  0  0  0  0  0  0  0  0
   -3.5321    0.5106   -3.2997 N   0  0  0  0  0  0  0  0  0  0  0  0
   -2.3258   -0.2199   -2.8931 C   0  0  2  0  0  0  0  0  0  0  0  0
   -1.5548    0.5561   -1.8029 C   0  0  0  0  0  0  0  0  0  0  0  0
   -1.8680    1.7188   -1.5572 O   0  0  0  0  0  0  0  0  0  0  0  0
   -1.4305   -0.4347   -4.1188 C   0  0  0  0  0  0  0  0  0  0  0  0
   -3.6321    1.4460   -2.9043 H   0  0  0  0  0  0  0  0  0  0  0  0
   -2.6105   -1.1901   -2.4716 H   0  0  0  0  0  0  0  0  0  0  0  0
   -1.1401    0.5280   -4.5514 H   0  0  0  0  0  0  0  0  0  0  0  0
   -0.5231   -0.9784   -3.8398 H   0  0  0  0  0  0  0  0  0  0  0  0
   -1.9580   -1.0157   -4.8811 H   0  0  0  0  0  0  0  0  0  0  0  0
   -0.5299   -0.0676   -1.1172 N   0  0  0  0  0  0  0  0  0  0  0  0
    0.1658    0.5334    0.0275 C   0  0  2  0  0  0  0  0  0  0  0  0
    1.4030    1.3654   -0.4128 C   0  0  0  0  0  0  0  0  0  0  0  0
    1.3898    2.0589   -1.4251 O   0  0  0  0  0  0  0  0  0  0  0  0
    0.5626   -0.6540    0.9357 C   0  0  0  0  0  0  0  0  0  0  0  0
   -0.6268   -1.3376    1.6023 C   0  0  0  0  0  0  0  0  0  0  0  0
   -1.6557   -0.6678    1.8543 O   0  5  0  0  0  0  0  0  0  0  0  0
   -0.5140   -2.5717    1.7891 O   0  0  0  0  0  0  0  0  0  0  0  0
   -0.4646   -1.0744   -1.2247 H   0  0  0  0  0  0  0  0  0  0  0  0
   -0.5023    1.2054    0.5791 H   0  0  0  0  0  0  0  0  0  0  0  0
    1.1962   -0.2972    1.7508 H   0  0  0  0  0  0  0  0  0  0  0  0
    1.1334   -1.3894    0.3606 H   0  0  0  0  0  0  0  0  0  0  0  0
    2.6143    1.2569    0.2512 N   0  0  0  0  0  0  0  0  0  0  0  0
    3.8823    1.8339   -0.2135 C   0  0  2  0  0  0  0  0  0  0  0  0
    5.0840    0.9148    0.0862 C   0  0  0  0  0  0  0  0  0  0  0  0
    5.0521    0.1279    1.0256 O   0  0  0  0  0  0  0  0  0  0  0  0
    4.0669    3.1945    0.4621 C   0  0  0  0  0  0  0  0  0  0  0  0
    2.6631    0.5641    0.9975 H   0  0  0  0  0  0  0  0  0  0  0  0
    3.8497    1.9763   -1.2984 H   0  0  0  0  0  0  0  0  0  0  0  0
    4.1145    3.0780    1.5496 H   0  0  0  0  0  0  0  0  0  0  0  0
    4.9908    3.6700    0.1202 H   0  0  0  0  0  0  0  0  0  0  0  0
    3.2275    3.8534    0.2181 H   0  0  0  0  0  0  0  0  0  0  0  0
    6.2185    0.9777   -0.7035 N   0  0  0  0  0  0  0  0  0  0  0  0
    7.3667    0.0988   -0.5243 C   0  0  0  0  0  0  0  0  0  0  0  0
    6.1910    1.5953   -1.5092 H   0  0  0  0  0  0  0  0  0  0  0  0
    7.8075    0.2417    0.4678 H   0  0  0  0  0  0  0  0  0  0  0  0
    7.0665   -0.9491   -0.6303 H   0  0  0  0  0  0  0  0  0  0  0  0
    8.1303    0.3180   -1.2766 H   0  0  0  0  0  0  0  0  0  0  0  0
  1  2  2  0  0  0  0
  1  3  1  0  0  0  0
  1  7  1  0  0  0  0
  3  4  1  0  0  0  0
  3  5  1  0  0  0  0
  3  6  1  0  0  0  0
  7  8  1  0  0  0  0
  7 12  1  0  0  0  0
  8  9  1  0  0  0  0
  8 11  1  0  0  0  0
  8 13  1  0  0  0  0
  9 10  2  0  0  0  0
  9 17  1  0  0  0  0
 11 14  1  0  0  0  0
 11 15  1  0  0  0  0
 11 16  1  0  0  0  0
 17 18  1  0  0  0  0
 17 25  1  0  0  0  0
 18 19  1  0  0  0  0
 18 21  1  0  0  0  0
 18 26  1  0  0  0  0
 19 20  2  0  0  0  0
 19 29  1  0  0  0  0
 21 22  1  0  0  0  0
 21 27  1  0  0  0  0
 21 28  1  0  0  0  0
 22 23  1  0  0  0  0
 22 24  2  0  0  0  0
 29 30  1  0  0  0  0
 29 34  1  0  0  0  0
 30 31  1  0  0  0  0
 30 33  1  0  0  0  0
 30 35  1  0  0  0  0
 31 32  2  0  0  0  0
 31 39  1  0  0  0  0
 33 36  1  0  0  0  0
 33 37  1  0  0  0  0
 33 38  1  0  0  0  0
 39 40  1  0  0  0  0
 39 41  1  0  0  0  0
 40 42  1  0  0  0  0
 40 43  1  0  0  0  0
 40 44  1  0  0  0  0
M  CHG  1  23  -1
M  END
$$$$

  -OEChem-05262215553D

 44 43  0     1  0  0  0  0  0999 V2000
   -4.6868   -0.0205   -3.8338 C   0  0  0  0  0  0  0  0  0  0  0  0
   -4.7580   -1.2048   -4.1260 O   0  0  0  0  0  0  0  0  0  0  0  0
   -5.8946    0.8796   -4.0216 C   0  0  0  0  0  0  0  0  0  0  0  0
   -5.6522    1.6883   -4.7152 H   0  0  0  0  0  0  0  0  0  0  0  0
   -6.7341    0.3068   -4.4248 H   0  0  0  0  0  0  0  0  0  0  0  0
   -6.1900    1.3100   -3.0613 H   0  0  0  0  0  0  0  0  0  0  0  0
   -3.5174    0.5140   -3.3402 N   0  0  0  0  0  0  0  0  0  0  0  0
   -2.3589   -0.2680   -2.8920 C   0  0  2  0  0  0  0  0  0  0  0  0
   -1.5320    0.5278   -1.8573 C   0  0  0  0  0  0  0  0  0  0  0  0
   -1.7847    1.7161   -1.6770 O   0  0  0  0  0  0  0  0  0  0  0  0
   -1.4923   -0.6238   -4.1053 C   0  0  0  0  0  0  0  0  0  0  0  0
   -3.5498    1.4764   -3.0015 H   0  0  0  0  0  0  0  0  0  0  0  0
   -2.7042   -1.1867   -2.4055 H   0  0  0  0  0  0  0  0  0  0  0  0
   -1.1249    0.2860   -4.5907 H   0  0  0  0  0  0  0  0  0  0  0  0
   -0.6323   -1.2264   -3.7981 H   0  0  0  0  0  0  0  0  0  0  0  0
   -2.0718   -1.1990   -4.8340 H   0  0  0  0  0  0  0  0  0  0  0  0
   -0.5342   -0.1079   -1.1424 N   0  0  0  0  0  0  0  0  0  0  0  0
    0.1714    0.5059   -0.0095 C   0  0  2  0  0  0  0  0  0  0  0  0
    1.4391    1.2823   -0.4593 C   0  0  0  0  0  0  0  0  0  0  0  0
    1.3868    2.1813   -1.2911 O   0  0  0  0  0  0  0  0  0  0  0  0
    0.5174   -0.6571    0.9480 C   0  0  0  0  0  0  0  0  0  0  0  0
   -0.7022   -1.2725    1.6264 C   0  0  0  0  0  0  0  0  0  0  0  0
   -1.7099   -0.5589    1.8401 O   0  5  0  0  0  0  0  0  0  0  0  0
   -0.6375   -2.5031    1.8532 O   0  0  0  0  0  0  0  0  0  0  0  0
   -0.5387   -1.1223   -1.1840 H   0  0  0  0  0  0  0  0  0  0  0  0
   -0.4789    1.2196    0.5100 H   0  0  0  0  0  0  0  0  0  0  0  0
    1.1564   -0.2845    1.7527 H   0  0  0  0  0  0  0  0  0  0  0  0
    1.0677   -1.4347    0.4097 H   0  0  0  0  0  0  0  0  0  0  0  0
    2.6963    0.9353    0.0095 N   0  0  0  0  0  0  0  0  0  0  0  0
    3.9609    1.5169   -0.4590 C   0  0  2  0  0  0  0  0  0  0  0  0
    5.0885    0.4700   -0.5625 C   0  0  0  0  0  0  0  0  0  0  0  0
    5.0842   -0.5302    0.1463 O   0  0  0  0  0  0  0  0  0  0  0  0
    4.3559    2.6339    0.5094 C   0  0  0  0  0  0  0  0  0  0  0  0
    2.7498    0.1063    0.6005 H   0  0  0  0  0  0  0  0  0  0  0  0
    3.8272    1.9421   -1.4589 H   0  0  0  0  0  0  0  0  0  0  0  0
    4.4992    2.2325    1.5178 H   0  0  0  0  0  0  0  0  0  0  0  0
    5.2866    3.1097    0.1866 H   0  0  0  0  0  0  0  0  0  0  0  0
    3.5712    3.3963    0.5457 H   0  0  0  0  0  0  0  0  0  0  0  0
    6.1324    0.6639   -1.4498 N   0  0  0  0  0  0  0  0  0  0  0  0
    7.2123   -0.2960   -1.6352 C   0  0  0  0  0  0  0  0  0  0  0  0
    6.0793    1.4723   -2.0623 H   0  0  0  0  0  0  0  0  0  0  0  0
    7.7565   -0.4458   -0.6971 H   0  0  0  0  0  0  0  0  0  0  0  0
    6.8145   -1.2595   -1.9707 H   0  0  0  0  0  0  0  0  0  0  0  0
    7.9171    0.0694   -2.3880 H   0  0  0  0  0  0  0  0  0  0  0  0
  1  2  2  0  0  0  0
  1  3  1  0  0  0  0
  1  7  1  0  0  0  0
  3  4  1  0  0  0  0
  3  5  1  0  0  0  0
  3  6  1  0  0  0  0
  7  8  1  0  0  0  0
  7 12  1  0  0  0  0
  8  9  1  0  0  0  0
  8 11  1  0  0  0  0
  8 13  1  0  0  0  0
  9 10  2  0  0  0  0
  9 17  1  0  0  0  0
 11 14  1  0  0  0  0
 11 15  1  0  0  0  0
 11 16  1  0  0  0  0
 17 18  1  0  0  0  0
 17 25  1  0  0  0  0
 18 19  1  0  0  0  0
 18 21  1  0  0  0  0
 18 26  1  0  0  0  0
 19 20  2  0  0  0  0
 19 29  1  0  0  0  0
 21 22  1  0  0  0  0
 21 27  1  0  0  0  0
 21 28  1  0  0  0  0
 22 23  1  0  0  0  0
 22 24  2  0  0  0  0
 29 30  1  0  0  0  0
 29 34  1  0  0  0  0
 30 31  1  0  0  0  0
 30 33  1  0  0  0  0
 30 35  1  0  0  0  0
 31 32  2  0  0  0  0
 31 39  1  0  0  0  0
 33 36  1  0  0  0  0
 33 37  1  0  0  0  0
 33 38  1  0  0  0  0
 39 40  1  0  0  0  0
 39 41  1  0  0  0  0
 40 42  1  0  0  0  0
 40 43  1  0  0  0  0
 40 44  1  0  0  0  0
M  CHG  1  23  -1
M  END
$$$$

  -OEChem-05262215553D

 44 43  0     1  0  0  0  0  0999 V2000
   -4.7327    0.0013   -3.7833 C   0  0  0  0  0  0  0  0  0  0  0  0
   -4.8933   -1.1962   -3.9642 O   0  0  0  0  0  0  0  0  0  0  0  0
   -5.8853    0.9619   -4.0124 C   0  0  0  0  0  0  0  0  0  0  0  0
   -5.6184    1.6884   -4.7835 H   0  0  0  0  0  0  0  0  0  0  0  0
   -6.7757    0.4150   -4.3342 H   0  0  0  0  0  0  0  0  0  0  0  0
   -6.1147    1.4937   -3.0855 H   0  0  0  0  0  0  0  0  0  0  0  0
   -3.5130    0.4947   -3.3761 N   0  0  0  0  0  0  0  0  0  0  0  0
   -2.4018   -0.3250   -2.8776 C   0  0  2  0  0  0  0  0  0  0  0  0
   -1.4929    0.5033   -1.9414 C   0  0  0  0  0  0  0  0  0  0  0  0
   -1.6597    1.7171   -1.8691 O   0  0  0  0  0  0  0  0  0  0  0  0
   -1.5987   -0.8626   -4.0675 C   0  0  0  0  0  0  0  0  0  0  0  0
   -3.4711    1.4827   -3.1235 H   0  0  0  0  0  0  0  0  0  0  0  0
   -2.7991   -1.1640   -2.2961 H   0  0  0  0  0  0  0  0  0  0  0  0
   -1.1858   -0.0356   -4.6539 H   0  0  0  0  0  0  0  0  0  0  0  0
   -0.7729   -1.4906   -3.7202 H   0  0  0  0  0  0  0  0  0  0  0  0
   -2.2387   -1.4663   -4.7182 H   0  0  0  0  0  0  0  0  0  0  0  0
   -0.5193   -0.1293   -1.1916 N   0  0  0  0  0  0  0  0  0  0  0  0
    0.1797    0.5141   -0.0706 C   0  0  2  0  0  0  0  0  0  0  0  0
    1.4681    1.2530   -0.5181 C   0  0  0  0  0  0  0  0  0  0  0  0
    1.4292    2.3279   -1.1050 O   0  0  0  0  0  0  0  0  0  0  0  0
    0.4982   -0.6183    0.9299 C   0  0  0  0  0  0  0  0  0  0  0  0
   -0.7380   -1.1939    1.6119 C   0  0  0  0  0  0  0  0  0  0  0  0
   -1.7391   -0.4608    1.7868 O   0  5  0  0  0  0  0  0  0  0  0  0
   -0.6956   -2.4188    1.8723 O   0  0  0  0  0  0  0  0  0  0  0  0
   -0.6028   -1.1405   -1.1456 H   0  0  0  0  0  0  0  0  0  0  0  0
   -0.4684    1.2547    0.4135 H   0  0  0  0  0  0  0  0  0  0  0  0
    1.1388   -0.2251    1.7235 H   0  0  0  0  0  0  0  0  0  0  0  0
    1.0394   -1.4240    0.4246 H   0  0  0  0  0  0  0  0  0  0  0  0
    2.7196    0.7159   -0.2613 N   0  0  0  0  0  0  0  0  0  0  0  0
    3.9919    1.2800   -0.7292 C   0  0  2  0  0  0  0  0  0  0  0  0
    4.9532    0.1998   -1.2658 C   0  0  0  0  0  0  0  0  0  0  0  0
    4.8982   -0.9529   -0.8516 O   0  0  0  0  0  0  0  0  0  0  0  0
    4.6304    2.0329    0.4398 C   0  0  0  0  0  0  0  0  0  0  0  0
    2.7378   -0.2227    0.1354 H   0  0  0  0  0  0  0  0  0  0  0  0
    3.8111    1.9830   -1.5484 H   0  0  0  0  0  0  0  0  0  0  0  0
    4.8281    1.3498    1.2723 H   0  0  0  0  0  0  0  0  0  0  0  0
    5.5748    2.4904    0.1306 H   0  0  0  0  0  0  0  0  0  0  0  0
    3.9598    2.8244    0.7895 H   0  0  0  0  0  0  0  0  0  0  0  0
    5.9090    0.5328   -2.2094 N   0  0  0  0  0  0  0  0  0  0  0  0
    6.8283   -0.4345   -2.7939 C   0  0  0  0  0  0  0  0  0  0  0  0
    5.8922    1.4807   -2.5739 H   0  0  0  0  0  0  0  0  0  0  0  0
    7.4406   -0.9005   -2.0148 H   0  0  0  0  0  0  0  0  0  0  0  0
    6.2748   -1.2169   -3.3237 H   0  0  0  0  0  0  0  0  0  0  0  0
    7.4948    0.0619   -3.5054 H   0  0  0  0  0  0  0  0  0  0  0  0
  1  2  2  0  0  0  0
  1  3  1  0  0  0  0
  1  7  1  0  0  0  0
  3  4  1  0  0  0  0
  3  5  1  0  0  0  0
  3  6  1  0  0  0  0
  7  8  1  0  0  0  0
  7 12  1  0  0  0  0
  8  9  1  0  0  0  0
  8 11  1  0  0  0  0
  8 13  1  0  0  0  0
  9 10  2  0  0  0  0
  9 17  1  0  0  0  0
 11 14  1  0  0  0  0
 11 15  1  0  0  0  0
 11 16  1  0  0  0  0
 17 18  1  0  0  0  0
 17 25  1  0  0  0  0
 18 19  1  0  0  0  0
 18 21  1  0  0  0  0
 18 26  1  0  0  0  0
 19 20  2  0  0  0  0
 19 29  1  0  0  0  0
 21 22  1  0  0  0  0
 21 27  1  0  0  0  0
 21 28  1  0  0  0  0
 22 23  1  0  0  0  0
 22 24  2  0  0  0  0
 29 30  1  0  0  0  0
 29 34  1  0  0  0  0
 30 31  1  0  0  0  0
 30 33  1  0  0  0  0
 30 35  1  0  0  0  0
 31 32  2  0  0  0  0
 31 39  1  0  0  0  0
 33 36  1  0  0  0  0
 33 37  1  0  0  0  0
 33 38  1  0  0  0  0
 39 40  1  0  0  0  0
 39 41  1  0  0  0  0
 40 42  1  0  0  0  0
 40 43  1  0  0  0  0
 40 44  1  0  0  0  0
M  CHG  1  23  -1
M  END
$$$$

  -OEChem-05262215553D

 44 43  0     1  0  0  0  0  0999 V2000
   -4.7596   -0.0004   -3.7451 C   0  0  0  0  0  0  0  0  0  0  0  0
   -4.9672   -1.1983   -3.8648 O   0  0  0  0  0  0  0  0  0  0  0  0
   -5.8791    0.9910   -4.0064 C   0  0  0  0  0  0  0  0  0  0  0  0
   -5.6002    1.6632   -4.8213 H   0  0  0  0  0  0  0  0  0  0  0  0
   -6.7958    0.4626   -4.2819 H   0  0  0  0  0  0  0  0  0  0  0  0
   -6.0697    1.5811   -3.1064 H   0  0  0  0  0  0  0  0  0  0  0  0
   -3.5163    0.4655   -3.3783 N   0  0  0  0  0  0  0  0  0  0  0  0
   -2.4263   -0.3693   -2.8583 C   0  0  2  0  0  0  0  0  0  0  0  0
   -1.4664    0.4736   -1.9898 C   0  0  0  0  0  0  0  0  0  0  0  0
   -1.5601    1.6970   -2.0087 O   0  0  0  0  0  0  0  0  0  0  0  0
   -1.6686   -0.9995   -4.0324 C   0  0  0  0  0  0  0  0  0  0  0  0
   -3.4321    1.4634   -3.1816 H   0  0  0  0  0  0  0  0  0  0  0  0
   -2.8414   -1.1595   -2.2227 H   0  0  0  0  0  0  0  0  0  0  0  0
   -1.2457   -0.2209   -4.6748 H   0  0  0  0  0  0  0  0  0  0  0  0
   -0.8539   -1.6322   -3.6678 H   0  0  0  0  0  0  0  0  0  0  0  0
   -2.3417   -1.6192   -4.6323 H   0  0  0  0  0  0  0  0  0  0  0  0
   -0.5107   -0.1514   -1.2123 N   0  0  0  0  0  0  0  0  0  0  0  0
    0.1778    0.5236   -0.1035 C   0  0  2  0  0  0  0  0  0  0  0  0
    1.4746    1.2339   -0.5634 C   0  0  0  0  0  0  0  0  0  0  0  0
    1.4845    2.4161   -0.8861 O   0  0  0  0  0  0  0  0  0  0  0  0
    0.4870   -0.5751    0.9358 C   0  0  0  0  0  0  0  0  0  0  0  0
   -0.7581   -1.1263    1.6218 C   0  0  0  0  0  0  0  0  0  0  0  0
   -1.7595   -0.3859    1.7604 O   0  5  0  0  0  0  0  0  0  0  0  0
   -0.7259   -2.3452    1.9102 O   0  0  0  0  0  0  0  0  0  0  0  0
   -0.6500   -1.1517   -1.0989 H   0  0  0  0  0  0  0  0  0  0  0  0
   -0.4709    1.2841    0.3490 H   0  0  0  0  0  0  0  0  0  0  0  0
    1.1253   -0.1547    1.7178 H   0  0  0  0  0  0  0  0  0  0  0  0
    1.0294   -1.3995    0.4636 H   0  0  0  0  0  0  0  0  0  0  0  0
    2.6847    0.5598   -0.5546 N   0  0  0  0  0  0  0  0  0  0  0  0
    3.9497    1.0997   -1.0677 C   0  0  2  0  0  0  0  0  0  0  0  0
    4.6911    0.0964   -1.9750 C   0  0  0  0  0  0  0  0  0  0  0  0
    4.5407   -1.1121   -1.8302 O   0  0  0  0  0  0  0  0  0  0  0  0
    4.8165    1.4804    0.1340 C   0  0  0  0  0  0  0  0  0  0  0  0
    2.6412   -0.4412   -0.3710 H   0  0  0  0  0  0  0  0  0  0  0  0
    3.7608    1.9957   -1.6675 H   0  0  0  0  0  0  0  0  0  0  0  0
    5.0311    0.5980    0.7456 H   0  0  0  0  0  0  0  0  0  0  0  0
    5.7639    1.9143   -0.1991 H   0  0  0  0  0  0  0  0  0  0  0  0
    4.2965    2.2172    0.7548 H   0  0  0  0  0  0  0  0  0  0  0  0
    5.5579    0.5561   -2.9506 N   0  0  0  0  0  0  0  0  0  0  0  0
    6.2652   -0.3236   -3.8717 C   0  0  0  0  0  0  0  0  0  0  0  0
    5.6145    1.5611   -3.0864 H   0  0  0  0  0  0  0  0  0  0  0  0
    6.9187   -1.0085   -3.3214 H   0  0  0  0  0  0  0  0  0  0  0  0
    5.5543   -0.9110   -4.4621 H   0  0  0  0  0  0  0  0  0  0  0  0
    6.8814    0.2656   -4.5574 H   0  0  0  0  0  0  0  0  0  0  0  0
  1  2  2  0  0  0  0
  1  3  1  0  0  0  0
  1  7  1  0  0  0  0
  3  4  1  0  0  0  0
  3  5  1  0  0  0  0
  3  6  1  0  0  0  0
  7  8  1  0  0  0  0
  7 12  1  0  0  0  0
  8  9  1  0  0  0  0
  8 11  1  0  0  0  0
  8 13  1  0  0  0  0
  9 10  2  0  0  0  0
  9 17  1  0  0  0  0
 11 14  1  0  0  0  0
 11 15  1  0  0  0  0
 11 16  1  0  0  0  0
 17 18  1  0  0  0  0
 17 25  1  0  0  0  0
 18 19  1  0  0  0  0
 18 21  1  0  0  0  0
 18 26  1  0  0  0  0
 19 20  2  0  0  0  0
 19 29  1  0  0  0  0
 21 22  1  0  0  0  0
 21 27  1  0  0  0  0
 21 28  1  0  0  0  0
 22 23  1  0  0  0  0
 22 24  2  0  0  0  0
 29 30  1  0  0  0  0
 29 34  1  0  0  0  0
 30 31  1  0  0  0  0
 30 33  1  0  0  0  0
 30 35  1  0  0  0  0
 31 32  2  0  0  0  0
 31 39  1  0  0  0  0
 33 36  1  0  0  0  0
 33 37  1  0  0  0  0
 33 38  1  0  0  0  0
 39 40  1  0  0  0  0
 39 41  1  0  0  0  0
 40 42  1  0  0  0  0
 40 43  1  0  0  0  0
 40 44  1  0  0  0  0
M  CHG  1  23  -1
M  END
$$$$

  -OEChem-05262215553D

 44 43  0     1  0  0  0  0  0999 V2000
   -4.7844    0.0042   -3.7125 C   0  0  0  0  0  0  0  0  0  0  0  0
   -5.0456   -1.1880   -3.7627 O   0  0  0  0  0  0  0  0  0  0  0  0
   -5.8619    1.0286   -4.0181 C   0  0  0  0  0  0  0  0  0  0  0  0
   -5.5691    1.6311   -4.8814 H   0  0  0  0  0  0  0  0  0  0  0  0
   -6.8085    0.5278   -4.2400 H   0  0  0  0  0  0  0  0  0  0  0  0
   -6.0043    1.6852   -3.1558 H   0  0  0  0  0  0  0  0  0  0  0  0
   -3.5182    0.4348   -3.3837 N   0  0  0  0  0  0  0  0  0  0  0  0
   -2.4570   -0.4169   -2.8325 C   0  0  2  0  0  0  0  0  0  0  0  0
   -1.4467    0.4314   -2.0286 C   0  0  0  0  0  0  0  0  0  0  0  0
   -1.4796    1.6548   -2.1222 O   0  0  0  0  0  0  0  0  0  0  0  0
   -1.7474   -1.1451   -3.9795 C   0  0  0  0  0  0  0  0  0  0  0  0
   -3.3886    1.4377   -3.2467 H   0  0  0  0  0  0  0  0  0  0  0  0
   -2.8950   -1.1507   -2.1465 H   0  0  0  0  0  0  0  0  0  0  0  0
   -1.3021   -0.4229   -4.6711 H   0  0  0  0  0  0  0  0  0  0  0  0
   -0.9547   -1.7918   -3.5913 H   0  0  0  0  0  0  0  0  0  0  0  0
   -2.4567   -1.7676   -4.5335 H   0  0  0  0  0  0  0  0  0  0  0  0
   -0.4987   -0.1830   -1.2340 N   0  0  0  0  0  0  0  0  0  0  0  0
    0.1728    0.5246   -0.1349 C   0  0  2  0  0  0  0  0  0  0  0  0
    1.4670    1.2283   -0.6036 C   0  0  0  0  0  0  0  0  0  0  0  0
    1.5537    2.4496   -0.6637 O   0  0  0  0  0  0  0  0  0  0  0  0
    0.4987   -0.5449    0.9274 C   0  0  0  0  0  0  0  0  0  0  0  0
   -0.7397   -1.1043    1.6187 C   0  0  0  0  0  0  0  0  0  0  0  0
   -1.7553   -0.3792    1.7363 O   0  5  0  0  0  0  0  0  0  0  0  0
   -0.6909   -2.3190    1.9228 O   0  0  0  0  0  0  0  0  0  0  0  0
   -0.6707   -1.1721   -1.0722 H   0  0  0  0  0  0  0  0  0  0  0  0
   -0.4865    1.2877    0.2977 H   0  0  0  0  0  0  0  0  0  0  0  0
    1.1268   -0.0951    1.7011 H   0  0  0  0  0  0  0  0  0  0  0  0
    1.0598   -1.3685    0.4761 H   0  0  0  0  0  0  0  0  0  0  0  0
    2.6035    0.4804   -0.8598 N   0  0  0  0  0  0  0  0  0  0  0  0
    3.8461    1.0144   -1.4290 C   0  0  2  0  0  0  0  0  0  0  0  0
    4.3447    0.1734   -2.6218 C   0  0  0  0  0  0  0  0  0  0  0  0
    4.0974   -1.0260   -2.6913 O   0  0  0  0  0  0  0  0  0  0  0  0
    4.8969    1.0469   -0.3175 C   0  0  0  0  0  0  0  0  0  0  0  0
    2.4741   -0.5291   -0.8883 H   0  0  0  0  0  0  0  0  0  0  0  0
    3.6866    2.0333   -1.7958 H   0  0  0  0  0  0  0  0  0  0  0  0
    5.0807    0.0380    0.0657 H   0  0  0  0  0  0  0  0  0  0  0  0
    5.8395    1.4551   -0.6937 H   0  0  0  0  0  0  0  0  0  0  0  0
    4.5514    1.6762    0.5089 H   0  0  0  0  0  0  0  0  0  0  0  0
    5.1031    0.7653   -3.6159 N   0  0  0  0  0  0  0  0  0  0  0  0
    5.5691    0.0523   -4.7974 C   0  0  0  0  0  0  0  0  0  0  0  0
    5.2252    1.7725   -3.5680 H   0  0  0  0  0  0  0  0  0  0  0  0
    6.1983   -0.7963   -4.5093 H   0  0  0  0  0  0  0  0  0  0  0  0
    4.7195   -0.3191   -5.3798 H   0  0  0  0  0  0  0  0  0  0  0  0
    6.1595    0.7199   -5.4319 H   0  0  0  0  0  0  0  0  0  0  0  0
  1  2  2  0  0  0  0
  1  3  1  0  0  0  0
  1  7  1  0  0  0  0
  3  4  1  0  0  0  0
  3  5  1  0  0  0  0
  3  6  1  0  0  0  0
  7  8  1  0  0  0  0
  7 12  1  0  0  0  0
  8  9  1  0  0  0  0
  8 11  1  0  0  0  0
  8 13  1  0  0  0  0
  9 10  2  0  0  0  0
  9 17  1  0  0  0  0
 11 14  1  0  0  0  0
 11 15  1  0  0  0  0
 11 16  1  0  0  0  0
 17 18  1  0  0  0  0
 17 25  1  0  0  0  0
 18 19  1  0  0  0  0
 18 21  1  0  0  0  0
 18 26  1  0  0  0  0
 19 20  2  0  0  0  0
 19 29  1  0  0  0  0
 21 22  1  0  0  0  0
 21 27  1  0  0  0  0
 21 28  1  0  0  0  0
 22 23  1  0  0  0  0
 22 24  2  0  0  0  0
 29 30  1  0  0  0  0
 29 34  1  0  0  0  0
 30 31  1  0  0  0  0
 30 33  1  0  0  0  0
 30 35  1  0  0  0  0
 31 32  2  0  0  0  0
 31 39  1  0  0  0  0
 33 36  1  0  0  0  0
 33 37  1  0  0  0  0
 33 38  1  0  0  0  0
 39 40  1  0  0  0  0
 39 41  1  0  0  0  0
 40 42  1  0  0  0  0
 40 43  1  0  0  0  0
 40 44  1  0  0  0  0
M  CHG  1  23  -1
M  END
$$$$

  -OEChem-05262215553D

 44 43  0     1  0  0  0  0  0999 V2000
   -4.7995    0.0049   -3.6939 C   0  0  0  0  0  0  0  0  0  0  0  0
   -5.1108   -1.1760   -3.6691 O   0  0  0  0  0  0  0  0  0  0  0  0
   -5.8356    1.0525   -4.0586 C   0  0  0  0  0  0  0  0  0  0  0  0
   -5.5541    1.5472   -4.9912 H   0  0  0  0  0  0  0  0  0  0  0  0
   -6.8164    0.5863   -4.1862 H   0  0  0  0  0  0  0  0  0  0  0  0
   -5.9036    1.8000   -3.2641 H   0  0  0  0  0  0  0  0  0  0  0  0
   -3.5133    0.4013   -3.4000 N   0  0  0  0  0  0  0  0  0  0  0  0
   -2.4866   -0.4599   -2.7996 C   0  0  2  0  0  0  0  0  0  0  0  0
   -1.4388    0.3912   -2.0489 C   0  0  0  0  0  0  0  0  0  0  0  0
   -1.4274    1.6095   -2.2016 O   0  0  0  0  0  0  0  0  0  0  0  0
   -1.8144   -1.2881   -3.9009 C   0  0  0  0  0  0  0  0  0  0  0  0
   -3.3410    1.4043   -3.3252 H   0  0  0  0  0  0  0  0  0  0  0  0
   -2.9522   -1.1311   -2.0690 H   0  0  0  0  0  0  0  0  0  0  0  0
   -1.3405   -0.6310   -4.6369 H   0  0  0  0  0  0  0  0  0  0  0  0
   -1.0489   -1.9441   -3.4755 H   0  0  0  0  0  0  0  0  0  0  0  0
   -2.5530   -1.9115   -4.4138 H   0  0  0  0  0  0  0  0  0  0  0  0
   -0.4944   -0.2127   -1.2426 N   0  0  0  0  0  0  0  0  0  0  0  0
    0.1688    0.5251   -0.1582 C   0  0  2  0  0  0  0  0  0  0  0  0
    1.4591    1.2196   -0.6439 C   0  0  0  0  0  0  0  0  0  0  0  0
    1.6480    2.4189   -0.4718 O   0  0  0  0  0  0  0  0  0  0  0  0
    0.5111   -0.5203    0.9198 C   0  0  0  0  0  0  0  0  0  0  0  0
   -0.7222   -1.0819    1.6185 C   0  0  0  0  0  0  0  0  0  0  0  0
   -1.7458   -0.3656    1.7215 O   0  5  0  0  0  0  0  0  0  0  0  0
   -0.6687   -2.2960    1.9239 O   0  0  0  0  0  0  0  0  0  0  0  0
   -0.6996   -1.1870   -1.0330 H   0  0  0  0  0  0  0  0  0  0  0  0
   -0.4945    1.2921    0.2607 H   0  0  0  0  0  0  0  0  0  0  0  0
    1.1341   -0.0492    1.6848 H   0  0  0  0  0  0  0  0  0  0  0  0
    1.0848   -1.3419    0.4811 H   0  0  0  0  0  0  0  0  0  0  0  0
    2.4871    0.4584   -1.1722 N   0  0  0  0  0  0  0  0  0  0  0  0
    3.6949    1.0112   -1.7952 C   0  0  2  0  0  0  0  0  0  0  0  0
    3.9505    0.4077   -3.1912 C   0  0  0  0  0  0  0  0  0  0  0  0
    3.6349   -0.7514   -3.4403 O   0  0  0  0  0  0  0  0  0  0  0  0
    4.8752    0.7316   -0.8634 C   0  0  0  0  0  0  0  0  0  0  0  0
    2.2525   -0.5081   -1.3891 H   0  0  0  0  0  0  0  0  0  0  0  0
    3.5943    2.0939   -1.9225 H   0  0  0  0  0  0  0  0  0  0  0  0
    5.0075   -0.3462   -0.7257 H   0  0  0  0  0  0  0  0  0  0  0  0
    5.7976    1.1472   -1.2796 H   0  0  0  0  0  0  0  0  0  0  0  0
    4.6982    1.1891    0.1150 H   0  0  0  0  0  0  0  0  0  0  0  0
    4.5692    1.1651   -4.1696 N   0  0  0  0  0  0  0  0  0  0  0  0
    4.7935    0.6860   -5.5267 C   0  0  0  0  0  0  0  0  0  0  0  0
    4.7378    2.1444   -3.9590 H   0  0  0  0  0  0  0  0  0  0  0  0
    5.4243   -0.2089   -5.5171 H   0  0  0  0  0  0  0  0  0  0  0  0
    3.8412    0.4419   -6.0092 H   0  0  0  0  0  0  0  0  0  0  0  0
    5.2961    1.4556   -6.1200 H   0  0  0  0  0  0  0  0  0  0  0  0
  1  2  2  0  0  0  0
  1  3  1  0  0  0  0
  1  7  1  0  0  0  0
  3  4  1  0  0  0  0
  3  5  1  0  0  0  0
  3  6  1  0  0  0  0
  7  8  1  0  0  0  0
  7 12  1  0  0  0  0
  8  9  1  0  0  0  0
  8 11  1  0  0  0  0
  8 13  1  0  0  0  0
  9 10  2  0  0  0  0
  9 17  1  0  0  0  0
 11 14  1  0  0  0  0
 11 15  1  0  0  0  0
 11 16  1  0  0  0  0
 17 18  1  0  0  0  0
 17 25  1  0  0  0  0
 18 19  1  0  0  0  0
 18 21  1  0  0  0  0
 18 26  1  0  0  0  0
 19 20  2  0  0  0  0
 19 29  1  0  0  0  0
 21 22  1  0  0  0  0
 21 27  1  0  0  0  0
 21 28  1  0  0  0  0
 22 23  1  0  0  0  0
 22 24  2  0  0  0  0
 29 30  1  0  0  0  0
 29 34  1  0  0  0  0
 30 31  1  0  0  0  0
 30 33  1  0  0  0  0
 30 35  1  0  0  0  0
 31 32  2  0  0  0  0
 31 39  1  0  0  0  0
 33 36  1  0  0  0  0
 33 37  1  0  0  0  0
 33 38  1  0  0  0  0
 39 40  1  0  0  0  0
 39 41  1  0  0  0  0
 40 42  1  0  0  0  0
 40 43  1  0  0  0  0
 40 44  1  0  0  0  0
M  CHG  1  23  -1
M  END
$$$$

  -OEChem-05262215553D

 44 43  0     1  0  0  0  0  0999 V2000
   -4.7936   -0.0043   -3.7095 C   0  0  0  0  0  0  0  0  0  0  0  0
   -5.1182   -1.1807   -3.6623 O   0  0  0  0  0  0  0  0  0  0  0  0
   -5.8071    1.0433   -4.1323 C   0  0  0  0  0  0  0  0  0  0  0  0
   -5.4637    1.5498   -5.0376 H   0  0  0  0  0  0  0  0  0  0  0  0
   -6.7744    0.5746   -4.3337 H   0  0  0  0  0  0  0  0  0  0  0  0
   -5.9321    1.7814   -3.3359 H   0  0  0  0  0  0  0  0  0  0  0  0
   -3.5120    0.3880   -3.3912 N   0  0  0  0  0  0  0  0  0  0  0  0
   -2.4987   -0.4720   -2.7674 C   0  0  2  0  0  0  0  0  0  0  0  0
   -1.4571    0.3808   -2.0102 C   0  0  0  0  0  0  0  0  0  0  0  0
   -1.4407    1.5993   -2.1647 O   0  0  0  0  0  0  0  0  0  0  0  0
   -1.8141   -1.3109   -3.8529 C   0  0  0  0  0  0  0  0  0  0  0  0
   -3.3308    1.3905   -3.3365 H   0  0  0  0  0  0  0  0  0  0  0  0
   -2.9778   -1.1352   -2.0382 H   0  0  0  0  0  0  0  0  0  0  0  0
   -1.3191   -0.6615   -4.5821 H   0  0  0  0  0  0  0  0  0  0  0  0
   -1.0642   -1.9736   -3.4107 H   0  0  0  0  0  0  0  0  0  0  0  0
   -2.5489   -1.9289   -4.3780 H   0  0  0  0  0  0  0  0  0  0  0  0
   -0.5040   -0.2221   -1.2138 N   0  0  0  0  0  0  0  0  0  0  0  0
    0.1687    0.5194   -0.1372 C   0  0  2  0  0  0  0  0  0  0  0  0
    1.4501    1.2132   -0.6430 C   0  0  0  0  0  0  0  0  0  0  0  0
    1.7662    2.3360   -0.2635 O   0  0  0  0  0  0  0  0  0  0  0  0
    0.5383   -0.5239    0.9323 C   0  0  0  0  0  0  0  0  0  0  0  0
   -0.6784   -1.0990    1.6484 C   0  0  0  0  0  0  0  0  0  0  0  0
   -1.7068   -0.3921    1.7679 O   0  5  0  0  0  0  0  0  0  0  0  0
   -0.6108   -2.3139    1.9479 O   0  0  0  0  0  0  0  0  0  0  0  0
   -0.7094   -1.1950   -0.9968 H   0  0  0  0  0  0  0  0  0  0  0  0
   -0.4911    1.2843    0.2912 H   0  0  0  0  0  0  0  0  0  0  0  0
    1.1679   -0.0476    1.6885 H   0  0  0  0  0  0  0  0  0  0  0  0
    1.1151   -1.3370    0.4814 H   0  0  0  0  0  0  0  0  0  0  0  0
    2.3255    0.5130   -1.4537 N   0  0  0  0  0  0  0  0  0  0  0  0
    3.4597    1.1198   -2.1581 C   0  0  2  0  0  0  0  0  0  0  0  0
    3.4643    0.7559   -3.6571 C   0  0  0  0  0  0  0  0  0  0  0  0
    3.0153   -0.3190   -4.0425 O   0  0  0  0  0  0  0  0  0  0  0  0
    4.7463    0.6429   -1.4820 C   0  0  0  0  0  0  0  0  0  0  0  0
    1.9598   -0.3579   -1.8337 H   0  0  0  0  0  0  0  0  0  0  0  0
    3.4074    2.2111   -2.0887 H   0  0  0  0  0  0  0  0  0  0  0  0
    4.8311   -0.4467   -1.5452 H   0  0  0  0  0  0  0  0  0  0  0  0
    5.6203    1.0911   -1.9640 H   0  0  0  0  0  0  0  0  0  0  0  0
    4.7457    0.9319   -0.4260 H   0  0  0  0  0  0  0  0  0  0  0  0
    4.0004    1.6356   -4.5805 N   0  0  0  0  0  0  0  0  0  0  0  0
    3.9773    1.3975   -6.0174 C   0  0  0  0  0  0  0  0  0  0  0  0
    4.2771    2.5511   -4.2385 H   0  0  0  0  0  0  0  0  0  0  0  0
    4.5100    0.4726   -6.2615 H   0  0  0  0  0  0  0  0  0  0  0  0
    2.9458    1.3167   -6.3756 H   0  0  0  0  0  0  0  0  0  0  0  0
    4.4636    2.2243   -6.5434 H   0  0  0  0  0  0  0  0  0  0  0  0
  1  2  2  0  0  0  0
  1  3  1  0  0  0  0
  1  7  1  0  0  0  0
  3  4  1  0  0  0  0
  3  5  1  0  0  0  0
  3  6  1  0  0  0  0
  7  8  1  0  0  0  0
  7 12  1  0  0  0  0
  8  9  1  0  0  0  0
  8 11  1  0  0  0  0
  8 13  1  0  0  0  0
  9 10  2  0  0  0  0
  9 17  1  0  0  0  0
 11 14  1  0  0  0  0
 11 15  1  0  0  0  0
 11 16  1  0  0  0  0
 17 18  1  0  0  0  0
 17 25  1  0  0  0  0
 18 19  1  0  0  0  0
 18 21  1  0  0  0  0
 18 26  1  0  0  0  0
 19 20  2  0  0  0  0
 19 29  1  0  0  0  0
 21 22  1  0  0  0  0
 21 27  1  0  0  0  0
 21 28  1  0  0  0  0
 22 23  1  0  0  0  0
 22 24  2  0  0  0  0
 29 30  1  0  0  0  0
 29 34  1  0  0  0  0
 30 31  1  0  0  0  0
 30 33  1  0  0  0  0
 30 35  1  0  0  0  0
 31 32  2  0  0  0  0
 31 39  1  0  0  0  0
 33 36  1  0  0  0  0
 33 37  1  0  0  0  0
 33 38  1  0  0  0  0
 39 40  1  0  0  0  0
 39 41  1  0  0  0  0
 40 42  1  0  0  0  0
 40 43  1  0  0  0  0
 40 44  1  0  0  0  0
M  CHG  1  23  -1
M  END
$$$$

  -OEChem-05262215553D

 44 43  0     1  0  0  0  0  0999 V2000
   -4.8385   -0.0015   -3.6747 C   0  0  0  0  0  0  0  0  0  0  0  0
   -5.1369   -1.1859   -3.6684 O   0  0  0  0  0  0  0  0  0  0  0  0
   -5.8769    1.0382   -4.0551 C   0  0  0  0  0  0  0  0  0  0  0  0
   -5.5999    1.5121   -4.9999 H   0  0  0  0  0  0  0  0  0  0  0  0
   -6.8582    0.5690   -4.1675 H   0  0  0  0  0  0  0  0  0  0  0  0
   -5.9400    1.8031   -3.2771 H   0  0  0  0  0  0  0  0  0  0  0  0
   -3.5622    0.4055   -3.3533 N   0  0  0  0  0  0  0  0  0  0  0  0
   -2.5217   -0.4580   -2.7806 C   0  0  2  0  0  0  0  0  0  0  0  0
   -1.4886    0.3820   -1.9983 C   0  0  0  0  0  0  0  0  0  0  0  0
   -1.4801    1.6045   -2.1204 O   0  0  0  0  0  0  0  0  0  0  0  0
   -1.8301   -1.2268   -3.9125 C   0  0  0  0  0  0  0  0  0  0  0  0
   -3.3986    1.4087   -3.2687 H   0  0  0  0  0  0  0  0  0  0  0  0
   -2.9767   -1.1661   -2.0788 H   0  0  0  0  0  0  0  0  0  0  0  0
   -1.3562   -0.5318   -4.6134 H   0  0  0  0  0  0  0  0  0  0  0  0
   -1.0611   -1.8932   -3.5104 H   0  0  0  0  0  0  0  0  0  0  0  0
   -2.5568   -1.8337   -4.4608 H   0  0  0  0  0  0  0  0  0  0  0  0
   -0.5211   -0.2326   -1.2284 N   0  0  0  0  0  0  0  0  0  0  0  0
    0.1622    0.4950   -0.1472 C   0  0  2  0  0  0  0  0  0  0  0  0
    1.4320    1.2070   -0.6578 C   0  0  0  0  0  0  0  0  0  0  0  0
    1.8766    2.2080   -0.1053 O   0  0  0  0  0  0  0  0  0  0  0  0
    0.5570   -0.5694    0.8907 C   0  0  0  0  0  0  0  0  0  0  0  0
   -0.6450   -1.1709    1.6105 C   0  0  0  0  0  0  0  0  0  0  0  0
   -1.6771   -0.4747    1.7615 O   0  5  0  0  0  0  0  0  0  0  0  0
   -0.5668   -2.3937    1.8738 O   0  0  0  0  0  0  0  0  0  0  0  0
   -0.7161   -1.2113   -1.0272 H   0  0  0  0  0  0  0  0  0  0  0  0
   -0.4955    1.2456    0.3086 H   0  0  0  0  0  0  0  0  0  0  0  0
    1.1934   -0.1060    1.6493 H   0  0  0  0  0  0  0  0  0  0  0  0
    1.1350   -1.3648    0.4108 H   0  0  0  0  0  0  0  0  0  0  0  0
    2.1332    0.6648   -1.7191 N   0  0  0  0  0  0  0  0  0  0  0  0
    3.1924    1.3654   -2.4500 C   0  0  2  0  0  0  0  0  0  0  0  0
    3.0431    1.1848   -3.9748 C   0  0  0  0  0  0  0  0  0  0  0  0
    2.5168    0.1776   -4.4382 O   0  0  0  0  0  0  0  0  0  0  0  0
    4.5405    0.8253   -1.9696 C   0  0  0  0  0  0  0  0  0  0  0  0
    1.6528   -0.0856   -2.2129 H   0  0  0  0  0  0  0  0  0  0  0  0
    3.1418    2.4393   -2.2422 H   0  0  0  0  0  0  0  0  0  0  0  0
    4.6157   -0.2485   -2.1692 H   0  0  0  0  0  0  0  0  0  0  0  0
    5.3619    1.3358   -2.4806 H   0  0  0  0  0  0  0  0  0  0  0  0
    4.6481    0.9877   -0.8925 H   0  0  0  0  0  0  0  0  0  0  0  0
    3.5142    2.1580   -4.8376 N   0  0  0  0  0  0  0  0  0  0  0  0
    3.3321    2.0982   -6.2818 C   0  0  0  0  0  0  0  0  0  0  0  0
    3.8641    3.0156   -4.4208 H   0  0  0  0  0  0  0  0  0  0  0  0
    3.8185    1.2073   -6.6923 H   0  0  0  0  0  0  0  0  0  0  0  0
    2.2665    2.0666   -6.5325 H   0  0  0  0  0  0  0  0  0  0  0  0
    3.7732    2.9808   -6.7544 H   0  0  0  0  0  0  0  0  0  0  0  0
  1  2  2  0  0  0  0
  1  3  1  0  0  0  0
  1  7  1  0  0  0  0
  3  4  1  0  0  0  0
  3  5  1  0  0  0  0
  3  6  1  0  0  0  0
  7  8  1  0  0  0  0
  7 12  1  0  0  0  0
  8  9  1  0  0  0  0
  8 11  1  0  0  0  0
  8 13  1  0  0  0  0
  9 10  2  0  0  0  0
  9 17  1  0  0  0  0
 11 14  1  0  0  0  0
 11 15  1  0  0  0  0
 11 16  1  0  0  0  0
 17 18  1  0  0  0  0
 17 25  1  0  0  0  0
 18 19  1  0  0  0  0
 18 21  1  0  0  0  0
 18 26  1  0  0  0  0
 19 20  2  0  0  0  0
 19 29  1  0  0  0  0
 21 22  1  0  0  0  0
 21 27  1  0  0  0  0
 21 28  1  0  0  0  0
 22 23  1  0  0  0  0
 22 24  2  0  0  0  0
 29 30  1  0  0  0  0
 29 34  1  0  0  0  0
 30 31  1  0  0  0  0
 30 33  1  0  0  0  0
 30 35  1  0  0  0  0
 31 32  2  0  0  0  0
 31 39  1  0  0  0  0
 33 36  1  0  0  0  0
 33 37  1  0  0  0  0
 33 38  1  0  0  0  0
 39 40  1  0  0  0  0
 39 41  1  0  0  0  0
 40 42  1  0  0  0  0
 40 43  1  0  0  0  0
 40 44  1  0  0  0  0
M  CHG  1  23  -1
M  END
$$$$

  -OEChem-05262215553D

 44 43  0     1  0  0  0  0  0999 V2000
   -4.9047   -0.0327   -3.6299 C   0  0  0  0  0  0  0  0  0  0  0  0
   -5.1731   -1.2239   -3.6592 O   0  0  0  0  0  0  0  0  0  0  0  0
   -5.9770    0.9918   -3.9531 C   0  0  0  0  0  0  0  0  0  0  0  0
   -5.7035    1.5453   -4.8546 H   0  0  0  0  0  0  0  0  0  0  0  0
   -6.9365    0.4947   -4.1197 H   0  0  0  0  0  0  0  0  0  0  0  0
   -6.0845    1.6932   -3.1218 H   0  0  0  0  0  0  0  0  0  0  0  0
   -3.6342    0.3952   -3.3123 N   0  0  0  0  0  0  0  0  0  0  0  0
   -2.5673   -0.4598   -2.7771 C   0  0  2  0  0  0  0  0  0  0  0  0
   -1.5468    0.3808   -1.9804 C   0  0  0  0  0  0  0  0  0  0  0  0
   -1.5617    1.6061   -2.0703 O   0  0  0  0  0  0  0  0  0  0  0  0
   -1.8688   -1.1785   -3.9379 C   0  0  0  0  0  0  0  0  0  0  0  0
   -3.4920    1.3991   -3.2017 H   0  0  0  0  0  0  0  0  0  0  0  0
   -2.9969   -1.1993   -2.0918 H   0  0  0  0  0  0  0  0  0  0  0  0
   -1.4205   -0.4518   -4.6233 H   0  0  0  0  0  0  0  0  0  0  0  0
   -1.0785   -1.8363   -3.5636 H   0  0  0  0  0  0  0  0  0  0  0  0
   -2.5857   -1.7884   -4.4961 H   0  0  0  0  0  0  0  0  0  0  0  0
   -0.5512   -0.2329   -1.2466 N   0  0  0  0  0  0  0  0  0  0  0  0
    0.1514    0.4873   -0.1724 C   0  0  2  0  0  0  0  0  0  0  0  0
    1.4008    1.2271   -0.6991 C   0  0  0  0  0  0  0  0  0  0  0  0
    1.9862    2.0673   -0.0232 O   0  0  0  0  0  0  0  0  0  0  0  0
    0.5747   -0.5926    0.8384 C   0  0  0  0  0  0  0  0  0  0  0  0
   -0.6100   -1.2111    1.5733 C   0  0  0  0  0  0  0  0  0  0  0  0
   -1.6412   -0.5212    1.7574 O   0  5  0  0  0  0  0  0  0  0  0  0
   -0.5236   -2.4384    1.8125 O   0  0  0  0  0  0  0  0  0  0  0  0
   -0.7196   -1.2199   -1.0622 H   0  0  0  0  0  0  0  0  0  0  0  0
   -0.5035    1.2226    0.3104 H   0  0  0  0  0  0  0  0  0  0  0  0
    1.2259   -0.1406    1.5913 H   0  0  0  0  0  0  0  0  0  0  0  0
    1.1450   -1.3771    0.3321 H   0  0  0  0  0  0  0  0  0  0  0  0
    1.9041    0.9118   -1.9478 N   0  0  0  0  0  0  0  0  0  0  0  0
    2.9253    1.6905   -2.6518 C   0  0  2  0  0  0  0  0  0  0  0  0
    2.6493    1.7502   -4.1685 C   0  0  0  0  0  0  0  0  0  0  0  0
    2.0275    0.8532   -4.7297 O   0  0  0  0  0  0  0  0  0  0  0  0
    4.2903    1.0552   -2.3778 C   0  0  0  0  0  0  0  0  0  0  0  0
    1.3039    0.3160   -2.5159 H   0  0  0  0  0  0  0  0  0  0  0  0
    2.9251    2.7196   -2.2777 H   0  0  0  0  0  0  0  0  0  0  0  0
    4.3118    0.0241   -2.7447 H   0  0  0  0  0  0  0  0  0  0  0  0
    5.0831    1.6213   -2.8756 H   0  0  0  0  0  0  0  0  0  0  0  0
    4.4934    1.0468   -1.3020 H   0  0  0  0  0  0  0  0  0  0  0  0
    3.1183    2.8160   -4.9155 N   0  0  0  0  0  0  0  0  0  0  0  0
    2.8409    2.9786   -6.3363 C   0  0  0  0  0  0  0  0  0  0  0  0
    3.5651    3.5754   -4.4104 H   0  0  0  0  0  0  0  0  0  0  0  0
    3.2784    2.1537   -6.9082 H   0  0  0  0  0  0  0  0  0  0  0  0
    1.7607    2.9995   -6.5155 H   0  0  0  0  0  0  0  0  0  0  0  0
    3.2698    3.9174   -6.6996 H   0  0  0  0  0  0  0  0  0  0  0  0
  1  2  2  0  0  0  0
  1  3  1  0  0  0  0
  1  7  1  0  0  0  0
  3  4  1  0  0  0  0
  3  5  1  0  0  0  0
  3  6  1  0  0  0  0
  7  8  1  0  0  0  0
  7 12  1  0  0  0  0
  8  9  1  0  0  0  0
  8 11  1  0  0  0  0
  8 13  1  0  0  0  0
  9 10  2  0  0  0  0
  9 17  1  0  0  0  0
 11 14  1  0  0  0  0
 11 15  1  0  0  0  0
 11 16  1  0  0  0  0
 17 18  1  0  0  0  0
 17 25  1  0  0  0  0
 18 19  1  0  0  0  0
 18 21  1  0  0  0  0
 18 26  1  0  0  0  0
 19 20  2  0  0  0  0
 19 29  1  0  0  0  0
 21 22  1  0  0  0  0
 21 27  1  0  0  0  0
 21 28  1  0  0  0  0
 22 23  1  0  0  0  0
 22 24  2  0  0  0  0
 29 30  1  0  0  0  0
 29 34  1  0  0  0  0
 30 31  1  0  0  0  0
 30 33  1  0  0  0  0
 30 35  1  0  0  0  0
 31 32  2  0  0  0  0
 31 39  1  0  0  0  0
 33 36  1  0  0  0  0
 33 37  1  0  0  0  0
 33 38  1  0  0  0  0
 39 40  1  0  0  0  0
 39 41  1  0  0  0  0
 40 42  1  0  0  0  0
 40 43  1  0  0  0  0
 40 44  1  0  0  0  0
M  CHG  1  23  -1
M  END
$$$$

  -OEChem-05262215553D

 44 43  0     1  0  0  0  0  0999 V2000
   -4.9822   -0.0965   -3.5737 C   0  0  0  0  0  0  0  0  0  0  0  0
   -5.2365   -1.2908   -3.5976 O   0  0  0  0  0  0  0  0  0  0  0  0
   -6.0689    0.9139   -3.8939 C   0  0  0  0  0  0  0  0  0  0  0  0
   -5.7841    1.5034   -4.7689 H   0  0  0  0  0  0  0  0  0  0  0  0
   -7.0115    0.4012   -4.1047 H   0  0  0  0  0  0  0  0  0  0  0  0
   -6.2154    1.5847   -3.0434 H   0  0  0  0  0  0  0  0  0  0  0  0
   -3.7157    0.3483   -3.2636 N   0  0  0  0  0  0  0  0  0  0  0  0
   -2.6275   -0.4925   -2.7487 C   0  0  2  0  0  0  0  0  0  0  0  0
   -1.5932    0.3638   -1.9865 C   0  0  0  0  0  0  0  0  0  0  0  0
   -1.6267    1.5887   -2.0757 O   0  0  0  0  0  0  0  0  0  0  0  0
   -1.9530   -1.2142   -3.9217 C   0  0  0  0  0  0  0  0  0  0  0  0
   -3.5834    1.3547   -3.1629 H   0  0  0  0  0  0  0  0  0  0  0  0
   -3.0329   -1.2293   -2.0461 H   0  0  0  0  0  0  0  0  0  0  0  0
   -1.5358   -0.4879   -4.6271 H   0  0  0  0  0  0  0  0  0  0  0  0
   -1.1437   -1.8576   -3.5634 H   0  0  0  0  0  0  0  0  0  0  0  0
   -2.6769   -1.8399   -4.4525 H   0  0  0  0  0  0  0  0  0  0  0  0
   -0.5610   -0.2297   -1.2875 N   0  0  0  0  0  0  0  0  0  0  0  0
    0.1440    0.4948   -0.2170 C   0  0  2  0  0  0  0  0  0  0  0  0
    1.3608    1.2890   -0.7481 C   0  0  0  0  0  0  0  0  0  0  0  0
    2.0841    1.9392    0.0006 O   0  0  0  0  0  0  0  0  0  0  0  0
    0.6051   -0.5965    0.7661 C   0  0  0  0  0  0  0  0  0  0  0  0
   -0.5566   -1.2502    1.5074 C   0  0  0  0  0  0  0  0  0  0  0  0
   -1.5967   -0.5819    1.7207 O   0  5  0  0  0  0  0  0  0  0  0  0
   -0.4489   -2.4820    1.7129 O   0  0  0  0  0  0  0  0  0  0  0  0
   -0.6932   -1.2243   -1.1147 H   0  0  0  0  0  0  0  0  0  0  0  0
   -0.5230    1.2022    0.2898 H   0  0  0  0  0  0  0  0  0  0  0  0
    1.2582   -0.1478    1.5192 H   0  0  0  0  0  0  0  0  0  0  0  0
    1.1833   -1.3593    0.2362 H   0  0  0  0  0  0  0  0  0  0  0  0
    1.6706    1.2587   -2.0953 N   0  0  0  0  0  0  0  0  0  0  0  0
    2.6988    2.0813   -2.7369 C   0  0  2  0  0  0  0  0  0  0  0  0
    2.3334    2.4232   -4.1960 C   0  0  0  0  0  0  0  0  0  0  0  0
    1.6552    1.6564   -4.8725 O   0  0  0  0  0  0  0  0  0  0  0  0
    4.0288    1.3245   -2.6841 C   0  0  0  0  0  0  0  0  0  0  0  0
    0.9616    0.8405   -2.6962 H   0  0  0  0  0  0  0  0  0  0  0  0
    2.7992    3.0259   -2.1925 H   0  0  0  0  0  0  0  0  0  0  0  0
    3.9468    0.3718   -3.2166 H   0  0  0  0  0  0  0  0  0  0  0  0
    4.8250    1.9163   -3.1451 H   0  0  0  0  0  0  0  0  0  0  0  0
    4.3064    1.1196   -1.6452 H   0  0  0  0  0  0  0  0  0  0  0  0
    2.7940    3.5972   -4.7650 N   0  0  0  0  0  0  0  0  0  0  0  0
    2.4454    4.0211   -6.1141 C   0  0  0  0  0  0  0  0  0  0  0  0
    3.2950    4.2405   -4.1597 H   0  0  0  0  0  0  0  0  0  0  0  0
    2.8149    3.2983   -6.8488 H   0  0  0  0  0  0  0  0  0  0  0  0
    1.3589    4.1088   -6.2190 H   0  0  0  0  0  0  0  0  0  0  0  0
    2.8940    4.9950   -6.3311 H   0  0  0  0  0  0  0  0  0  0  0  0
  1  2  2  0  0  0  0
  1  3  1  0  0  0  0
  1  7  1  0  0  0  0
  3  4  1  0  0  0  0
  3  5  1  0  0  0  0
  3  6  1  0  0  0  0
  7  8  1  0  0  0  0
  7 12  1  0  0  0  0
  8  9  1  0  0  0  0
  8 11  1  0  0  0  0
  8 13  1  0  0  0  0
  9 10  2  0  0  0  0
  9 17  1  0  0  0  0
 11 14  1  0  0  0  0
 11 15  1  0  0  0  0
 11 16  1  0  0  0  0
 17 18  1  0  0  0  0
 17 25  1  0  0  0  0
 18 19  1  0  0  0  0
 18 21  1  0  0  0  0
 18 26  1  0  0  0  0
 19 20  2  0  0  0  0
 19 29  1  0  0  0  0
 21 22  1  0  0  0  0
 21 27  1  0  0  0  0
 21 28  1  0  0  0  0
 22 23  1  0  0  0  0
 22 24  2  0  0  0  0
 29 30  1  0  0  0  0
 29 34  1  0  0  0  0
 30 31  1  0  0  0  0
 30 33  1  0  0  0  0
 30 35  1  0  0  0  0
 31 32  2  0  0  0  0
 31 39  1  0  0  0  0
 33 36  1  0  0  0  0
 33 37  1  0  0  0  0
 33 38  1  0  0  0  0
 39 40  1  0  0  0  0
 39 41  1  0  0  0  0
 40 42  1  0  0  0  0
 40 43  1  0  0  0  0
 40 44  1  0  0  0  0
M  CHG  1  23  -1
M  END
$$$$

  -OEChem-05262215553D

 44 43  0     1  0  0  0  0  0999 V2000
   -4.9965   -0.1588   -3.5566 C   0  0  0  0  0  0  0  0  0  0  0  0
   -5.2545   -1.3522   -3.5369 O   0  0  0  0  0  0  0  0  0  0  0  0
   -6.0794    0.8424   -3.9161 C   0  0  0  0  0  0  0  0  0  0  0  0
   -5.7742    1.4235   -4.7899 H   0  0  0  0  0  0  0  0  0  0  0  0
   -7.0142    0.3234   -4.1459 H   0  0  0  0  0  0  0  0  0  0  0  0
   -6.2506    1.5219   -3.0773 H   0  0  0  0  0  0  0  0  0  0  0  0
   -3.7285    0.2936   -3.2638 N   0  0  0  0  0  0  0  0  0  0  0  0
   -2.6384   -0.5311   -2.7268 C   0  0  2  0  0  0  0  0  0  0  0  0
   -1.6029    0.3490   -1.9930 C   0  0  0  0  0  0  0  0  0  0  0  0
   -1.6511    1.5726   -2.0949 O   0  0  0  0  0  0  0  0  0  0  0  0
   -1.9689   -1.2882   -3.8800 C   0  0  0  0  0  0  0  0  0  0  0  0
   -3.5937    1.3025   -3.2014 H   0  0  0  0  0  0  0  0  0  0  0  0
   -3.0411   -1.2470   -2.0011 H   0  0  0  0  0  0  0  0  0  0  0  0
   -1.5385   -0.5839   -4.5994 H   0  0  0  0  0  0  0  0  0  0  0  0
   -1.1705   -1.9341   -3.5027 H   0  0  0  0  0  0  0  0  0  0  0  0
   -2.6985   -1.9159   -4.4006 H   0  0  0  0  0  0  0  0  0  0  0  0
   -0.5422   -0.2155   -1.3150 N   0  0  0  0  0  0  0  0  0  0  0  0
    0.1441    0.5124   -0.2345 C   0  0  2  0  0  0  0  0  0  0  0  0
    1.3263    1.3682   -0.7552 C   0  0  0  0  0  0  0  0  0  0  0  0
    2.1912    1.8087   -0.0034 O   0  0  0  0  0  0  0  0  0  0  0  0
    0.6290   -0.5865    0.7314 C   0  0  0  0  0  0  0  0  0  0  0  0
   -0.5194   -1.2777    1.4591 C   0  0  0  0  0  0  0  0  0  0  0  0
   -1.5735   -0.6342    1.6812 O   0  5  0  0  0  0  0  0  0  0  0  0
   -0.3872   -2.5101    1.6445 O   0  0  0  0  0  0  0  0  0  0  0  0
   -0.6384   -1.2164   -1.1564 H   0  0  0  0  0  0  0  0  0  0  0  0
   -0.5464    1.1878    0.2841 H   0  0  0  0  0  0  0  0  0  0  0  0
    1.2702   -0.1398    1.4955 H   0  0  0  0  0  0  0  0  0  0  0  0
    1.2249   -1.3265    0.1892 H   0  0  0  0  0  0  0  0  0  0  0  0
    1.4437    1.6365   -2.1070 N   0  0  0  0  0  0  0  0  0  0  0  0
    2.4744    2.4903   -2.7060 C   0  0  2  0  0  0  0  0  0  0  0  0
    2.0066    3.1392   -4.0251 C   0  0  0  0  0  0  0  0  0  0  0  0
    1.2360    2.5552   -4.7794 O   0  0  0  0  0  0  0  0  0  0  0  0
    3.7256    1.6424   -2.9553 C   0  0  0  0  0  0  0  0  0  0  0  0
    0.6136    1.4285   -2.6649 H   0  0  0  0  0  0  0  0  0  0  0  0
    2.7197    3.2993   -2.0104 H   0  0  0  0  0  0  0  0  0  0  0  0
    3.4984    0.8212   -3.6427 H   0  0  0  0  0  0  0  0  0  0  0  0
    4.5215    2.2536   -3.3907 H   0  0  0  0  0  0  0  0  0  0  0  0
    4.0913    1.2180   -2.0150 H   0  0  0  0  0  0  0  0  0  0  0  0
    2.4952    4.3808   -4.3924 N   0  0  0  0  0  0  0  0  0  0  0  0
    2.0834    5.0757   -5.6045 C   0  0  0  0  0  0  0  0  0  0  0  0
    3.0857    4.8645   -3.7227 H   0  0  0  0  0  0  0  0  0  0  0  0
    2.3200    4.4752   -6.4890 H   0  0  0  0  0  0  0  0  0  0  0  0
    1.0060    5.2698   -5.5863 H   0  0  0  0  0  0  0  0  0  0  0  0
    2.6071    6.0327   -5.6869 H   0  0  0  0  0  0  0  0  0  0  0  0
  1  2  2  0  0  0  0
  1  3  1  0  0  0  0
  1  7  1  0  0  0  0
  3  4  1  0  0  0  0
  3  5  1  0  0  0  0
  3  6  1  0  0  0  0
  7  8  1  0  0  0  0
  7 12  1  0  0  0  0
  8  9  1  0  0  0  0
  8 11  1  0  0  0  0
  8 13  1  0  0  0  0
  9 10  2  0  0  0  0
  9 17  1  0  0  0  0
 11 14  1  0  0  0  0
 11 15  1  0  0  0  0
 11 16  1  0  0  0  0
 17 18  1  0  0  0  0
 17 25  1  0  0  0  0
 18 19  1  0  0  0  0
 18 21  1  0  0  0  0
 18 26  1  0  0  0  0
 19 20  2  0  0  0  0
 19 29  1  0  0  0  0
 21 22  1  0  0  0  0
 21 27  1  0  0  0  0
 21 28  1  0  0  0  0
 22 23  1  0  0  0  0
 22 24  2  0  0  0  0
 29 30  1  0  0  0  0
 29 34  1  0  0  0  0
 30 31  1  0  0  0  0
 30 33  1  0  0  0  0
 30 35  1  0  0  0  0
 31 32  2  0  0  0  0
 31 39  1  0  0  0  0
 33 36  1  0  0  0  0
 33 37  1  0  0  0  0
 33 38  1  0  0  0  0
 39 40  1  0  0  0  0
 39 41  1  0  0  0  0
 40 42  1  0  0  0  0
 40 43  1  0  0  0  0
 40 44  1  0  0  0  0
M  CHG  1  23  -1
M  END
$$$$

  -OEChem-05262215553D

 44 43  0     1  0  0  0  0  0999 V2000
   -4.9357   -0.1701   -3.6099 C   0  0  0  0  0  0  0  0  0  0  0  0
   -5.1924   -1.3638   -3.5796 O   0  0  0  0  0  0  0  0  0  0  0  0
   -6.0218    0.8279   -3.9685 C   0  0  0  0  0  0  0  0  0  0  0  0
   -5.7267    1.3987   -4.8521 H   0  0  0  0  0  0  0  0  0  0  0  0
   -6.9593    0.3068   -4.1811 H   0  0  0  0  0  0  0  0  0  0  0  0
   -6.1823    1.5171   -3.1355 H   0  0  0  0  0  0  0  0  0  0  0  0
   -3.6676    0.2858   -3.3233 N   0  0  0  0  0  0  0  0  0  0  0  0
   -2.5898   -0.5301   -2.7496 C   0  0  2  0  0  0  0  0  0  0  0  0
   -1.5768    0.3619   -1.9993 C   0  0  0  0  0  0  0  0  0  0  0  0
   -1.6525    1.5862   -2.0833 O   0  0  0  0  0  0  0  0  0  0  0  0
   -1.8921   -1.3013   -3.8763 C   0  0  0  0  0  0  0  0  0  0  0  0
   -3.5388    1.2958   -3.2598 H   0  0  0  0  0  0  0  0  0  0  0  0
   -3.0080   -1.2382   -2.0247 H   0  0  0  0  0  0  0  0  0  0  0  0
   -1.4475   -0.6065   -4.5960 H   0  0  0  0  0  0  0  0  0  0  0  0
   -1.1009   -1.9399   -3.4718 H   0  0  0  0  0  0  0  0  0  0  0  0
   -2.6087   -1.9381   -4.4038 H   0  0  0  0  0  0  0  0  0  0  0  0
   -0.5101   -0.1873   -1.3181 N   0  0  0  0  0  0  0  0  0  0  0  0
    0.1518    0.5393   -0.2223 C   0  0  2  0  0  0  0  0  0  0  0  0
    1.3193    1.4236   -0.7324 C   0  0  0  0  0  0  0  0  0  0  0  0
    2.3137    1.6596   -0.0518 O   0  0  0  0  0  0  0  0  0  0  0  0
    0.6322   -0.5603    0.7464 C   0  0  0  0  0  0  0  0  0  0  0  0
   -0.5214   -1.2663    1.4513 C   0  0  0  0  0  0  0  0  0  0  0  0
   -1.5849   -0.6331    1.6586 O   0  5  0  0  0  0  0  0  0  0  0  0
   -0.3796   -2.4974    1.6384 O   0  0  0  0  0  0  0  0  0  0  0  0
   -0.5811   -1.1930   -1.1782 H   0  0  0  0  0  0  0  0  0  0  0  0
   -0.5552    1.2005    0.2922 H   0  0  0  0  0  0  0  0  0  0  0  0
    1.2527   -0.1100    1.5254 H   0  0  0  0  0  0  0  0  0  0  0  0
    1.2465   -1.2905    0.2114 H   0  0  0  0  0  0  0  0  0  0  0  0
    1.2684    1.9608   -2.0062 N   0  0  0  0  0  0  0  0  0  0  0  0
    2.2938    2.8293   -2.5945 C   0  0  2  0  0  0  0  0  0  0  0  0
    1.7278    3.7767   -3.6724 C   0  0  0  0  0  0  0  0  0  0  0  0
    0.8674    3.4000   -4.4600 O   0  0  0  0  0  0  0  0  0  0  0  0
    3.3902    1.9467   -3.1990 C   0  0  0  0  0  0  0  0  0  0  0  0
    0.3592    1.8950   -2.4743 H   0  0  0  0  0  0  0  0  0  0  0  0
    2.7295    3.4526   -1.8071 H   0  0  0  0  0  0  0  0  0  0  0  0
    2.9739    1.3041   -3.9812 H   0  0  0  0  0  0  0  0  0  0  0  0
    4.1801    2.5638   -3.6370 H   0  0  0  0  0  0  0  0  0  0  0  0
    3.8357    1.3114   -2.4272 H   0  0  0  0  0  0  0  0  0  0  0  0
    2.2400    5.0559   -3.7994 N   0  0  0  0  0  0  0  0  0  0  0  0
    1.7541    6.0187   -4.7784 C   0  0  0  0  0  0  0  0  0  0  0  0
    2.9108    5.3587   -3.0998 H   0  0  0  0  0  0  0  0  0  0  0  0
    1.8526    5.6163   -5.7920 H   0  0  0  0  0  0  0  0  0  0  0  0
    0.7014    6.2552   -4.5922 H   0  0  0  0  0  0  0  0  0  0  0  0
    2.3345    6.9439   -4.7174 H   0  0  0  0  0  0  0  0  0  0  0  0
  1  2  2  0  0  0  0
  1  3  1  0  0  0  0
  1  7  1  0  0  0  0
  3  4  1  0  0  0  0
  3  5  1  0  0  0  0
  3  6  1  0  0  0  0
  7  8  1  0  0  0  0
  7 12  1  0  0  0  0
  8  9  1  0  0  0  0
  8 11  1  0  0  0  0
  8 13  1  0  0  0  0
  9 10  2  0  0  0  0
  9 17  1  0  0  0  0
 11 14  1  0  0  0  0
 11 15  1  0  0  0  0
 11 16  1  0  0  0  0
 17 18  1  0  0  0  0
 17 25  1  0  0  0  0
 18 19  1  0  0  0  0
 18 21  1  0  0  0  0
 18 26  1  0  0  0  0
 19 20  2  0  0  0  0
 19 29  1  0  0  0  0
 21 22  1  0  0  0  0
 21 27  1  0  0  0  0
 21 28  1  0  0  0  0
 22 23  1  0  0  0  0
 22 24  2  0  0  0  0
 29 30  1  0  0  0  0
 29 34  1  0  0  0  0
 30 31  1  0  0  0  0
 30 33  1  0  0  0  0
 30 35  1  0  0  0  0
 31 32  2  0  0  0  0
 31 39  1  0  0  0  0
 33 36  1  0  0  0  0
 33 37  1  0  0  0  0
 33 38  1  0  0  0  0
 39 40  1  0  0  0  0
 39 41  1  0  0  0  0
 40 42  1  0  0  0  0
 40 43  1  0  0  0  0
 40 44  1  0  0  0  0
M  CHG  1  23  -1
M  END
$$$$

  -OEChem-05262215553D

 44 43  0     1  0  0  0  0  0999 V2000
   -4.8190   -0.7557   -3.7303 C   0  0  0  0  0  0  0  0  0  0  0  0
   -5.0498   -1.8814   -3.3176 O   0  0  0  0  0  0  0  0  0  0  0  0
   -5.8997    0.0184   -4.4630 C   0  0  0  0  0  0  0  0  0  0  0  0
   -5.5462    0.3040   -5.4568 H   0  0  0  0  0  0  0  0  0  0  0  0
   -6.7980   -0.5959   -4.5704 H   0  0  0  0  0  0  0  0  0  0  0  0
   -6.1547    0.9210   -3.9017 H   0  0  0  0  0  0  0  0  0  0  0  0
   -3.5823   -0.1770   -3.5449 N   0  0  0  0  0  0  0  0  0  0  0  0
   -2.5255   -0.7086   -2.6739 C   0  0  2  0  0  0  0  0  0  0  0  0
   -1.5530    0.4166   -2.2584 C   0  0  0  0  0  0  0  0  0  0  0  0
   -1.5984    1.5087   -2.8247 O   0  0  0  0  0  0  0  0  0  0  0  0
   -1.7693   -1.8201   -3.4124 C   0  0  0  0  0  0  0  0  0  0  0  0
   -3.4832    0.8013   -3.8155 H   0  0  0  0  0  0  0  0  0  0  0  0
   -2.9733   -1.1153   -1.7597 H   0  0  0  0  0  0  0  0  0  0  0  0
   -1.3097   -1.4279   -4.3250 H   0  0  0  0  0  0  0  0  0  0  0  0
   -0.9828   -2.2375   -2.7763 H   0  0  0  0  0  0  0  0  0  0  0  0
   -2.4515   -2.6307   -3.6862 H   0  0  0  0  0  0  0  0  0  0  0  0
   -0.5602    0.1912   -1.3263 N   0  0  0  0  0  0  0  0  0  0  0  0
    0.0030    1.2881   -0.5225 C   0  0  2  0  0  0  0  0  0  0  0  0
    1.2212    1.9483   -1.2162 C   0  0  0  0  0  0  0  0  0  0  0  0
    2.2534    2.2494   -0.6229 O   0  0  0  0  0  0  0  0  0  0  0  0
    0.3607    0.6451    0.8320 C   0  0  0  0  0  0  0  0  0  0  0  0
   -0.8771    0.2380    1.6253 C   0  0  0  0  0  0  0  0  0  0  0  0
   -1.9390    0.8869    1.4627 O   0  5  0  0  0  0  0  0  0  0  0  0
   -0.7921   -0.8365    2.2637 O   0  0  0  0  0  0  0  0  0  0  0  0
   -0.6598   -0.6886   -0.8233 H   0  0  0  0  0  0  0  0  0  0  0  0
   -0.7417    2.0777   -0.3663 H   0  0  0  0  0  0  0  0  0  0  0  0
    0.9096    1.3668    1.4423 H   0  0  0  0  0  0  0  0  0  0  0  0
    1.0091   -0.2225    0.6784 H   0  0  0  0  0  0  0  0  0  0  0  0
    1.1459    2.2487   -2.5625 N   0  0  0  0  0  0  0  0  0  0  0  0
    2.2224    2.8345   -3.3735 C   0  0  2  0  0  0  0  0  0  0  0  0
    2.3785    4.3622   -3.1656 C   0  0  0  0  0  0  0  0  0  0  0  0
    2.4272    5.1455   -4.1096 O   0  0  0  0  0  0  0  0  0  0  0  0
    1.9330    2.4566   -4.8310 C   0  0  0  0  0  0  0  0  0  0  0  0
    0.2257    2.0988   -2.9871 H   0  0  0  0  0  0  0  0  0  0  0  0
    3.1743    2.3744   -3.0893 H   0  0  0  0  0  0  0  0  0  0  0  0
    0.9965    2.9138   -5.1666 H   0  0  0  0  0  0  0  0  0  0  0  0
    2.7425    2.8023   -5.4816 H   0  0  0  0  0  0  0  0  0  0  0  0
    1.8483    1.3703   -4.9332 H   0  0  0  0  0  0  0  0  0  0  0  0
    2.5067    4.8549   -1.8822 N   0  0  0  0  0  0  0  0  0  0  0  0
    2.6172    6.2659   -1.5475 C   0  0  0  0  0  0  0  0  0  0  0  0
    2.4735    4.1584   -1.1319 H   0  0  0  0  0  0  0  0  0  0  0  0
    3.5000    6.7045   -2.0234 H   0  0  0  0  0  0  0  0  0  0  0  0
    1.7268    6.8084   -1.8812 H   0  0  0  0  0  0  0  0  0  0  0  0
    2.7112    6.3870   -0.4642 H   0  0  0  0  0  0  0  0  0  0  0  0
  1  2  2  0  0  0  0
  1  3  1  0  0  0  0
  1  7  1  0  0  0  0
  3  4  1  0  0  0  0
  3  5  1  0  0  0  0
  3  6  1  0  0  0  0
  7  8  1  0  0  0  0
  7 12  1  0  0  0  0
  8  9  1  0  0  0  0
  8 11  1  0  0  0  0
  8 13  1  0  0  0  0
  9 10  2  0  0  0  0
  9 17  1  0  0  0  0
 11 14  1  0  0  0  0
 11 15  1  0  0  0  0
 11 16  1  0  0  0  0
 17 18  1  0  0  0  0
 17 25  1  0  0  0  0
 18 19  1  0  0  0  0
 18 21  1  0  0  0  0
 18 26  1  0  0  0  0
 19 20  2  0  0  0  0
 19 29  1  0  0  0  0
 21 22  1  0  0  0  0
 21 27  1  0  0  0  0
 21 28  1  0  0  0  0
 22 23  1  0  0  0  0
 22 24  2  0  0  0  0
 29 30  1  0  0  0  0
 29 34  1  0  0  0  0
 30 31  1  0  0  0  0
 30 33  1  0  0  0  0
 30 35  1  0  0  0  0
 31 32  2  0  0  0  0
 31 39  1  0  0  0  0
 33 36  1  0  0  0  0
 33 37  1  0  0  0  0
 33 38  1  0  0  0  0
 39 40  1  0  0  0  0
 39 41  1  0  0  0  0
 40 42  1  0  0  0  0
 40 43  1  0  0  0  0
 40 44  1  0  0  0  0
M  CHG  1  23  -1
M  END
$$$$

  -OEChem-05262215553D

 44 43  0     1  0  0  0  0  0999 V2000
   -4.7451   -0.8411   -3.7074 C   0  0  0  0  0  0  0  0  0  0  0  0
   -4.8527   -2.0142   -3.3859 O   0  0  0  0  0  0  0  0  0  0  0  0
   -5.9283   -0.1105   -4.3156 C   0  0  0  0  0  0  0  0  0  0  0  0
   -5.6888    0.2036   -5.3343 H   0  0  0  0  0  0  0  0  0  0  0  0
   -6.8035   -0.7653   -4.3432 H   0  0  0  0  0  0  0  0  0  0  0  0
   -6.1684    0.7716   -3.7165 H   0  0  0  0  0  0  0  0  0  0  0  0
   -3.5544   -0.1699   -3.5313 N   0  0  0  0  0  0  0  0  0  0  0  0
   -2.4165   -0.6744   -2.7516 C   0  0  2  0  0  0  0  0  0  0  0  0
   -1.5395    0.4921   -2.2487 C   0  0  0  0  0  0  0  0  0  0  0  0
   -1.6560    1.6111   -2.7495 O   0  0  0  0  0  0  0  0  0  0  0  0
   -1.5858   -1.6221   -3.6242 C   0  0  0  0  0  0  0  0  0  0  0  0
   -3.5539    0.8318   -3.7213 H   0  0  0  0  0  0  0  0  0  0  0  0
   -2.7859   -1.2149   -1.8724 H   0  0  0  0  0  0  0  0  0  0  0  0
   -1.2181   -1.0992   -4.5128 H   0  0  0  0  0  0  0  0  0  0  0  0
   -0.7277   -2.0062   -3.0640 H   0  0  0  0  0  0  0  0  0  0  0  0
   -2.1927   -2.4737   -3.9465 H   0  0  0  0  0  0  0  0  0  0  0  0
   -0.5682    0.2821   -1.2904 N   0  0  0  0  0  0  0  0  0  0  0  0
   -0.0910    1.3741   -0.4293 C   0  0  2  0  0  0  0  0  0  0  0  0
    1.1120    2.1105   -1.0659 C   0  0  0  0  0  0  0  0  0  0  0  0
    2.2105    2.2082   -0.5252 O   0  0  0  0  0  0  0  0  0  0  0  0
    0.2502    0.7115    0.9198 C   0  0  0  0  0  0  0  0  0  0  0  0
   -0.9916    0.2194    1.6566 C   0  0  0  0  0  0  0  0  0  0  0  0
   -2.0789    0.8185    1.4720 O   0  5  0  0  0  0  0  0  0  0  0  0
   -0.8714   -0.8581    2.2841 O   0  0  0  0  0  0  0  0  0  0  0  0
   -0.6222   -0.6260   -0.8334 H   0  0  0  0  0  0  0  0  0  0  0  0
   -0.8784    2.1210   -0.2731 H   0  0  0  0  0  0  0  0  0  0  0  0
    0.7406    1.4437    1.5664 H   0  0  0  0  0  0  0  0  0  0  0  0
    0.9470   -0.1180    0.7673 H   0  0  0  0  0  0  0  0  0  0  0  0
    0.9412    2.7188   -2.2941 N   0  0  0  0  0  0  0  0  0  0  0  0
    2.0143    3.3148   -3.1027 C   0  0  2  0  0  0  0  0  0  0  0  0
    2.4080    4.7404   -2.6398 C   0  0  0  0  0  0  0  0  0  0  0  0
    2.5089    5.6749   -3.4295 O   0  0  0  0  0  0  0  0  0  0  0  0
    1.5474    3.2668   -4.5625 C   0  0  0  0  0  0  0  0  0  0  0  0
    0.0166    2.5858   -2.7158 H   0  0  0  0  0  0  0  0  0  0  0  0
    2.9120    2.6940   -3.0172 H   0  0  0  0  0  0  0  0  0  0  0  0
    0.6606    3.8934   -4.7028 H   0  0  0  0  0  0  0  0  0  0  0  0
    2.3383    3.6282   -5.2269 H   0  0  0  0  0  0  0  0  0  0  0  0
    1.2991    2.2401   -4.8486 H   0  0  0  0  0  0  0  0  0  0  0  0
    2.7010    4.9583   -1.3080 N   0  0  0  0  0  0  0  0  0  0  0  0
    3.0690    6.2477   -0.7443 C   0  0  0  0  0  0  0  0  0  0  0  0
    2.6271    4.1403   -0.6954 H   0  0  0  0  0  0  0  0  0  0  0  0
    3.9673    6.6375   -1.2338 H   0  0  0  0  0  0  0  0  0  0  0  0
    2.2535    6.9663   -0.8731 H   0  0  0  0  0  0  0  0  0  0  0  0
    3.2747    6.1444    0.3254 H   0  0  0  0  0  0  0  0  0  0  0  0
  1  2  2  0  0  0  0
  1  3  1  0  0  0  0
  1  7  1  0  0  0  0
  3  4  1  0  0  0  0
  3  5  1  0  0  0  0
  3  6  1  0  0  0  0
  7  8  1  0  0  0  0
  7 12  1  0  0  0  0
  8  9  1  0  0  0  0
  8 11  1  0  0  0  0
  8 13  1  0  0  0  0
  9 10  2  0  0  0  0
  9 17  1  0  0  0  0
 11 14  1  0  0  0  0
 11 15  1  0  0  0  0
 11 16  1  0  0  0  0
 17 18  1  0  0  0  0
 17 25  1  0  0  0  0
 18 19  1  0  0  0  0
 18 21  1  0  0  0  0
 18 26  1  0  0  0  0
 19 20  2  0  0  0  0
 19 29  1  0  0  0  0
 21 22  1  0  0  0  0
 21 27  1  0  0  0  0
 21 28  1  0  0  0  0
 22 23  1  0  0  0  0
 22 24  2  0  0  0  0
 29 30  1  0  0  0  0
 29 34  1  0  0  0  0
 30 31  1  0  0  0  0
 30 33  1  0  0  0  0
 30 35  1  0  0  0  0
 31 32  2  0  0  0  0
 31 39  1  0  0  0  0
 33 36  1  0  0  0  0
 33 37  1  0  0  0  0
 33 38  1  0  0  0  0
 39 40  1  0  0  0  0
 39 41  1  0  0  0  0
 40 42  1  0  0  0  0
 40 43  1  0  0  0  0
 40 44  1  0  0  0  0
M  CHG  1  23  -1
M  END
$$$$

  -OEChem-05262215553D

 44 43  0     1  0  0  0  0  0999 V2000
   -4.6169   -0.8105   -3.8039 C   0  0  0  0  0  0  0  0  0  0  0  0
   -4.6942   -2.0013   -3.5451 O   0  0  0  0  0  0  0  0  0  0  0  0
   -5.7907   -0.1017   -4.4549 C   0  0  0  0  0  0  0  0  0  0  0  0
   -5.4800    0.3420   -5.4038 H   0  0  0  0  0  0  0  0  0  0  0  0
   -6.6012   -0.8106   -4.6457 H   0  0  0  0  0  0  0  0  0  0  0  0
   -6.1604    0.6874   -3.7952 H   0  0  0  0  0  0  0  0  0  0  0  0
   -3.4700   -0.1013   -3.5189 N   0  0  0  0  0  0  0  0  0  0  0  0
   -2.3511   -0.6041   -2.7107 C   0  0  2  0  0  0  0  0  0  0  0  0
   -1.5258    0.5651   -2.1315 C   0  0  0  0  0  0  0  0  0  0  0  0
   -1.6836    1.7077   -2.5659 O   0  0  0  0  0  0  0  0  0  0  0  0
   -1.4599   -1.4999   -3.5793 C   0  0  0  0  0  0  0  0  0  0  0  0
   -3.4983    0.9078   -3.6616 H   0  0  0  0  0  0  0  0  0  0  0  0
   -2.7422   -1.1843   -1.8669 H   0  0  0  0  0  0  0  0  0  0  0  0
   -1.0562   -0.9324   -4.4236 H   0  0  0  0  0  0  0  0  0  0  0  0
   -0.6252   -1.8947   -2.9922 H   0  0  0  0  0  0  0  0  0  0  0  0
   -2.0322   -2.3465   -3.9703 H   0  0  0  0  0  0  0  0  0  0  0  0
   -0.5520    0.3392   -1.1790 N   0  0  0  0  0  0  0  0  0  0  0  0
   -0.1164    1.4139   -0.2789 C   0  0  2  0  0  0  0  0  0  0  0  0
    1.0624    2.1972   -0.8986 C   0  0  0  0  0  0  0  0  0  0  0  0
    2.2210    2.1087   -0.5001 O   0  0  0  0  0  0  0  0  0  0  0  0
    0.2546    0.7269    1.0494 C   0  0  0  0  0  0  0  0  0  0  0  0
   -0.9635    0.1633    1.7740 C   0  0  0  0  0  0  0  0  0  0  0  0
   -2.0748    0.7230    1.6086 O   0  5  0  0  0  0  0  0  0  0  0  0
   -0.7965   -0.9207    2.3792 O   0  0  0  0  0  0  0  0  0  0  0  0
   -0.5700   -0.5902   -0.7644 H   0  0  0  0  0  0  0  0  0  0  0  0
   -0.9267    2.1296   -0.0955 H   0  0  0  0  0  0  0  0  0  0  0  0
    0.7199    1.4600    1.7134 H   0  0  0  0  0  0  0  0  0  0  0  0
    0.9819   -0.0710    0.8710 H   0  0  0  0  0  0  0  0  0  0  0  0
    0.7871    3.0763   -1.9275 N   0  0  0  0  0  0  0  0  0  0  0  0
    1.8089    3.7295   -2.7587 C   0  0  2  0  0  0  0  0  0  0  0  0
    2.4331    4.9842   -2.0957 C   0  0  0  0  0  0  0  0  0  0  0  0
    2.5635    6.0422   -2.7047 O   0  0  0  0  0  0  0  0  0  0  0  0
    1.1470    4.0363   -4.1074 C   0  0  0  0  0  0  0  0  0  0  0  0
   -0.1611    2.9883   -2.3056 H   0  0  0  0  0  0  0  0  0  0  0  0
    2.6274    3.0248   -2.9383 H   0  0  0  0  0  0  0  0  0  0  0  0
    0.3390    4.7640   -3.9802 H   0  0  0  0  0  0  0  0  0  0  0  0
    1.8807    4.4491   -4.8067 H   0  0  0  0  0  0  0  0  0  0  0  0
    0.7302    3.1231   -4.5438 H   0  0  0  0  0  0  0  0  0  0  0  0
    2.9070    4.8990   -0.8017 N   0  0  0  0  0  0  0  0  0  0  0  0
    3.5396    5.9916   -0.0797 C   0  0  0  0  0  0  0  0  0  0  0  0
    2.8161    3.9822   -0.3536 H   0  0  0  0  0  0  0  0  0  0  0  0
    4.4535    6.3093   -0.5915 H   0  0  0  0  0  0  0  0  0  0  0  0
    2.8592    6.8460   -0.0051 H   0  0  0  0  0  0  0  0  0  0  0  0
    3.8019    5.6688    0.9323 H   0  0  0  0  0  0  0  0  0  0  0  0
  1  2  2  0  0  0  0
  1  3  1  0  0  0  0
  1  7  1  0  0  0  0
  3  4  1  0  0  0  0
  3  5  1  0  0  0  0
  3  6  1  0  0  0  0
  7  8  1  0  0  0  0
  7 12  1  0  0  0  0
  8  9  1  0  0  0  0
  8 11  1  0  0  0  0
  8 13  1  0  0  0  0
  9 10  2  0  0  0  0
  9 17  1  0  0  0  0
 11 14  1  0  0  0  0
 11 15  1  0  0  0  0
 11 16  1  0  0  0  0
 17 18  1  0  0  0  0
 17 25  1  0  0  0  0
 18 19  1  0  0  0  0
 18 21  1  0  0  0  0
 18 26  1  0  0  0  0
 19 20  2  0  0  0  0
 19 29  1  0  0  0  0
 21 22  1  0  0  0  0
 21 27  1  0  0  0  0
 21 28  1  0  0  0  0
 22 23  1  0  0  0  0
 22 24  2  0  0  0  0
 29 30  1  0  0  0  0
 29 34  1  0  0  0  0
 30 31  1  0  0  0  0
 30 33  1  0  0  0  0
 30 35  1  0  0  0  0
 31 32  2  0  0  0  0
 31 39  1  0  0  0  0
 33 36  1  0  0  0  0
 33 37  1  0  0  0  0
 33 38  1  0  0  0  0
 39 40  1  0  0  0  0
 39 41  1  0  0  0  0
 40 42  1  0  0  0  0
 40 43  1  0  0  0  0
 40 44  1  0  0  0  0
M  CHG  1  23  -1
M  END
$$$$

  -OEChem-05262215553D

 44 43  0     1  0  0  0  0  0999 V2000
   -4.5577   -0.7352   -3.7872 C   0  0  0  0  0  0  0  0  0  0  0  0
   -4.6012   -1.9420   -3.6059 O   0  0  0  0  0  0  0  0  0  0  0  0
   -5.7577   -0.0167   -4.3770 C   0  0  0  0  0  0  0  0  0  0  0  0
   -5.4648    0.5155   -5.2854 H   0  0  0  0  0  0  0  0  0  0  0  0
   -6.5434   -0.7355   -4.6263 H   0  0  0  0  0  0  0  0  0  0  0  0
   -6.1537    0.7009   -3.6539 H   0  0  0  0  0  0  0  0  0  0  0  0
   -3.4262   -0.0155   -3.4687 N   0  0  0  0  0  0  0  0  0  0  0  0
   -2.2781   -0.5412   -2.7180 C   0  0  2  0  0  0  0  0  0  0  0  0
   -1.4749    0.6076   -2.0711 C   0  0  0  0  0  0  0  0  0  0  0  0
   -1.6444    1.7697   -2.4471 O   0  0  0  0  0  0  0  0  0  0  0  0
   -1.3764   -1.3423   -3.6646 C   0  0  0  0  0  0  0  0  0  0  0  0
   -3.4801    0.9993   -3.5493 H   0  0  0  0  0  0  0  0  0  0  0  0
   -2.6352   -1.1929   -1.9123 H   0  0  0  0  0  0  0  0  0  0  0  0
   -1.0112   -0.7035   -4.4748 H   0  0  0  0  0  0  0  0  0  0  0  0
   -0.5153   -1.7455   -3.1230 H   0  0  0  0  0  0  0  0  0  0  0  0
   -1.9275   -2.1799   -4.1023 H   0  0  0  0  0  0  0  0  0  0  0  0
   -0.5106    0.3477   -1.1175 N   0  0  0  0  0  0  0  0  0  0  0  0
   -0.0902    1.4032   -0.1918 C   0  0  2  0  0  0  0  0  0  0  0  0
    1.0914    2.1941   -0.7912 C   0  0  0  0  0  0  0  0  0  0  0  0
    2.2682    1.9356   -0.5513 O   0  0  0  0  0  0  0  0  0  0  0  0
    0.2788    0.7005    1.1281 C   0  0  0  0  0  0  0  0  0  0  0  0
   -0.9385    0.1145    1.8367 C   0  0  0  0  0  0  0  0  0  0  0  0
   -2.0540    0.6662    1.6721 O   0  5  0  0  0  0  0  0  0  0  0  0
   -0.7633   -0.9685    2.4413 O   0  0  0  0  0  0  0  0  0  0  0  0
   -0.5265   -0.5934   -0.7311 H   0  0  0  0  0  0  0  0  0  0  0  0
   -0.9046    2.1114    0.0024 H   0  0  0  0  0  0  0  0  0  0  0  0
    0.7358    1.4275    1.8044 H   0  0  0  0  0  0  0  0  0  0  0  0
    1.0124   -0.0899    0.9416 H   0  0  0  0  0  0  0  0  0  0  0  0
    0.8023    3.2970   -1.5709 N   0  0  0  0  0  0  0  0  0  0  0  0
    1.8062    4.0398   -2.3479 C   0  0  2  0  0  0  0  0  0  0  0  0
    2.5912    5.0753   -1.5024 C   0  0  0  0  0  0  0  0  0  0  0  0
    2.7528    6.2323   -1.8798 O   0  0  0  0  0  0  0  0  0  0  0  0
    1.0665    4.6739   -3.5321 C   0  0  0  0  0  0  0  0  0  0  0  0
   -0.1682    3.3287   -1.8912 H   0  0  0  0  0  0  0  0  0  0  0  0
    2.5411    3.3349   -2.7504 H   0  0  0  0  0  0  0  0  0  0  0  0
    0.3410    5.4134   -3.1785 H   0  0  0  0  0  0  0  0  0  0  0  0
    1.7747    5.1727   -4.2010 H   0  0  0  0  0  0  0  0  0  0  0  0
    0.5345    3.9066   -4.1033 H   0  0  0  0  0  0  0  0  0  0  0  0
    3.1678    4.6756   -0.3132 N   0  0  0  0  0  0  0  0  0  0  0  0
    3.9311    5.5447    0.5684 C   0  0  0  0  0  0  0  0  0  0  0  0
    3.0345    3.6914   -0.0622 H   0  0  0  0  0  0  0  0  0  0  0  0
    4.8041    5.9487    0.0460 H   0  0  0  0  0  0  0  0  0  0  0  0
    3.3095    6.3757    0.9169 H   0  0  0  0  0  0  0  0  0  0  0  0
    4.2780    4.9820    1.4403 H   0  0  0  0  0  0  0  0  0  0  0  0
  1  2  2  0  0  0  0
  1  3  1  0  0  0  0
  1  7  1  0  0  0  0
  3  4  1  0  0  0  0
  3  5  1  0  0  0  0
  3  6  1  0  0  0  0
  7  8  1  0  0  0  0
  7 12  1  0  0  0  0
  8  9  1  0  0  0  0
  8 11  1  0  0  0  0
  8 13  1  0  0  0  0
  9 10  2  0  0  0  0
  9 17  1  0  0  0  0
 11 14  1  0  0  0  0
 11 15  1  0  0  0  0
 11 16  1  0  0  0  0
 17 18  1  0  0  0  0
 17 25  1  0  0  0  0
 18 19  1  0  0  0  0
 18 21  1  0  0  0  0
 18 26  1  0  0  0  0
 19 20  2  0  0  0  0
 19 29  1  0  0  0  0
 21 22  1  0  0  0  0
 21 27  1  0  0  0  0
 21 28  1  0  0  0  0
 22 23  1  0  0  0  0
 22 24  2  0  0  0  0
 29 30  1  0  0  0  0
 29 34  1  0  0  0  0
 30 31  1  0  0  0  0
 30 33  1  0  0  0  0
 30 35  1  0  0  0  0
 31 32  2  0  0  0  0
 31 39  1  0  0  0  0
 33 36  1  0  0  0  0
 33 37  1  0  0  0  0
 33 38  1  0  0  0  0
 39 40  1  0  0  0  0
 39 41  1  0  0  0  0
 40 42  1  0  0  0  0
 40 43  1  0  0  0  0
 40 44  1  0  0  0  0
M  CHG  1  23  -1
M  END
$$$$

  -OEChem-05262215553D

 44 43  0     1  0  0  0  0  0999 V2000
   -4.6883   -0.0810   -3.7685 C   0  0  0  0  0  0  0  0  0  0  0  0
   -4.7948   -1.2768   -3.9932 O   0  0  0  0  0  0  0  0  0  0  0  0
   -5.8791    0.8363   -3.9798 C   0  0  0  0  0  0  0  0  0  0  0  0
   -5.6349    1.5997   -4.7226 H   0  0  0  0  0  0  0  0  0  0  0  0
   -6.7410    0.2624   -4.3320 H   0  0  0  0  0  0  0  0  0  0  0  0
   -6.1421    1.3249   -3.0383 H   0  0  0  0  0  0  0  0  0  0  0  0
   -3.4942    0.4492   -3.3309 N   0  0  0  0  0  0  0  0  0  0  0  0
   -2.3396   -0.3384   -2.8800 C   0  0  2  0  0  0  0  0  0  0  0  0
   -1.4436    0.4982   -1.9414 C   0  0  0  0  0  0  0  0  0  0  0  0
   -1.6139    1.7140   -1.8515 O   0  0  0  0  0  0  0  0  0  0  0  0
   -1.5376   -0.8041   -4.1009 C   0  0  0  0  0  0  0  0  0  0  0  0
   -3.4924    1.4315   -3.0562 H   0  0  0  0  0  0  0  0  0  0  0  0
   -2.6882   -1.2103   -2.3151 H   0  0  0  0  0  0  0  0  0  0  0  0
   -1.1794    0.0580   -4.6725 H   0  0  0  0  0  0  0  0  0  0  0  0
   -0.6740   -1.3989   -3.7880 H   0  0  0  0  0  0  0  0  0  0  0  0
   -2.1603   -1.4224   -4.7546 H   0  0  0  0  0  0  0  0  0  0  0  0
   -0.4128   -0.0943   -1.2417 N   0  0  0  0  0  0  0  0  0  0  0  0
    0.1935    0.5603   -0.0793 C   0  0  2  0  0  0  0  0  0  0  0  0
    1.3762    1.4532   -0.5119 C   0  0  0  0  0  0  0  0  0  0  0  0
    2.4585    0.9810   -0.8522 O   0  0  0  0  0  0  0  0  0  0  0  0
    0.6496   -0.5607    0.8738 C   0  0  0  0  0  0  0  0  0  0  0  0
   -0.5175   -1.3102    1.5087 C   0  0  0  0  0  0  0  0  0  0  0  0
   -1.5998   -0.7012    1.6907 O   0  5  0  0  0  0  0  0  0  0  0  0
   -0.3457   -2.5337    1.7190 O   0  0  0  0  0  0  0  0  0  0  0  0
   -0.4109   -1.1105   -1.2322 H   0  0  0  0  0  0  0  0  0  0  0  0
   -0.5373    1.1913    0.4402 H   0  0  0  0  0  0  0  0  0  0  0  0
    1.2389   -0.1217    1.6828 H   0  0  0  0  0  0  0  0  0  0  0  0
    1.2909   -1.2683    0.3397 H   0  0  0  0  0  0  0  0  0  0  0  0
    1.2192    2.8267   -0.5342 N   0  0  0  0  0  0  0  0  0  0  0  0
    2.2221    3.7650   -1.0518 C   0  0  2  0  0  0  0  0  0  0  0  0
    2.1696    5.1479   -0.3702 C   0  0  0  0  0  0  0  0  0  0  0  0
    1.1099    5.6264    0.0183 O   0  0  0  0  0  0  0  0  0  0  0  0
    2.0014    3.9113   -2.5598 C   0  0  0  0  0  0  0  0  0  0  0  0
    0.2720    3.1749   -0.3849 H   0  0  0  0  0  0  0  0  0  0  0  0
    3.2229    3.3580   -0.8753 H   0  0  0  0  0  0  0  0  0  0  0  0
    1.0006    4.3068   -2.7617 H   0  0  0  0  0  0  0  0  0  0  0  0
    2.7409    4.5924   -2.9910 H   0  0  0  0  0  0  0  0  0  0  0  0
    2.0970    2.9388   -3.0532 H   0  0  0  0  0  0  0  0  0  0  0  0
    3.3314    5.8878   -0.2350 N   0  0  0  0  0  0  0  0  0  0  0  0
    3.3840    7.1847    0.4263 C   0  0  0  0  0  0  0  0  0  0  0  0
    4.1995    5.4434   -0.5183 H   0  0  0  0  0  0  0  0  0  0  0  0
    2.7098    7.8938   -0.0653 H   0  0  0  0  0  0  0  0  0  0  0  0
    3.0928    7.0902    1.4776 H   0  0  0  0  0  0  0  0  0  0  0  0
    4.3999    7.5887    0.3824 H   0  0  0  0  0  0  0  0  0  0  0  0
  1  2  2  0  0  0  0
  1  3  1  0  0  0  0
  1  7  1  0  0  0  0
  3  4  1  0  0  0  0
  3  5  1  0  0  0  0
  3  6  1  0  0  0  0
  7  8  1  0  0  0  0
  7 12  1  0  0  0  0
  8  9  1  0  0  0  0
  8 11  1  0  0  0  0
  8 13  1  0  0  0  0
  9 10  2  0  0  0  0
  9 17  1  0  0  0  0
 11 14  1  0  0  0  0
 11 15  1  0  0  0  0
 11 16  1  0  0  0  0
 17 18  1  0  0  0  0
 17 25  1  0  0  0  0
 18 19  1  0  0  0  0
 18 21  1  0  0  0  0
 18 26  1  0  0  0  0
 19 20  2  0  0  0  0
 19 29  1  0  0  0  0
 21 22  1  0  0  0  0
 21 27  1  0  0  0  0
 21 28  1  0  0  0  0
 22 23  1  0  0  0  0
 22 24  2  0  0  0  0
 29 30  1  0  0  0  0
 29 34  1  0  0  0  0
 30 31  1  0  0  0  0
 30 33  1  0  0  0  0
 30 35  1  0  0  0  0
 31 32  2  0  0  0  0
 31 39  1  0  0  0  0
 33 36  1  0  0  0  0
 33 37  1  0  0  0  0
 33 38  1  0  0  0  0
 39 40  1  0  0  0  0
 39 41  1  0  0  0  0
 40 42  1  0  0  0  0
 40 43  1  0  0  0  0
 40 44  1  0  0  0  0
M  CHG  1  23  -1
M  END
$$$$

  -OEChem-05262215553D

 44 43  0     1  0  0  0  0  0999 V2000
   -4.7121   -0.0632   -3.7595 C   0  0  0  0  0  0  0  0  0  0  0  0
   -4.8378   -1.2603   -3.9666 O   0  0  0  0  0  0  0  0  0  0  0  0
   -5.8905    0.8691   -3.9721 C   0  0  0  0  0  0  0  0  0  0  0  0
   -5.6412    1.6192   -4.7264 H   0  0  0  0  0  0  0  0  0  0  0  0
   -6.7635    0.3039   -4.3098 H   0  0  0  0  0  0  0  0  0  0  0  0
   -6.1382    1.3740   -3.0350 H   0  0  0  0  0  0  0  0  0  0  0  0
   -3.5075    0.4581   -3.3415 N   0  0  0  0  0  0  0  0  0  0  0  0
   -2.3609   -0.3366   -2.8846 C   0  0  2  0  0  0  0  0  0  0  0  0
   -1.4588    0.4999   -1.9510 C   0  0  0  0  0  0  0  0  0  0  0  0
   -1.6370    1.7136   -1.8529 O   0  0  0  0  0  0  0  0  0  0  0  0
   -1.5653   -0.8204   -4.1024 C   0  0  0  0  0  0  0  0  0  0  0  0
   -3.4929    1.4424   -3.0748 H   0  0  0  0  0  0  0  0  0  0  0  0
   -2.7177   -1.2012   -2.3134 H   0  0  0  0  0  0  0  0  0  0  0  0
   -1.1951    0.0325   -4.6800 H   0  0  0  0  0  0  0  0  0  0  0  0
   -0.7100   -1.4252   -3.7862 H   0  0  0  0  0  0  0  0  0  0  0  0
   -2.1972   -1.4345   -4.7512 H   0  0  0  0  0  0  0  0  0  0  0  0
   -0.4256   -0.0946   -1.2573 N   0  0  0  0  0  0  0  0  0  0  0  0
    0.2087    0.5560   -0.1072 C   0  0  2  0  0  0  0  0  0  0  0  0
    1.4012    1.4349   -0.5412 C   0  0  0  0  0  0  0  0  0  0  0  0
    2.3702    0.9591   -1.1287 O   0  0  0  0  0  0  0  0  0  0  0  0
    0.6731   -0.5641    0.8415 C   0  0  0  0  0  0  0  0  0  0  0  0
   -0.4864   -1.3018    1.5025 C   0  0  0  0  0  0  0  0  0  0  0  0
   -1.5599   -0.6835    1.7028 O   0  5  0  0  0  0  0  0  0  0  0  0
   -0.3162   -2.5236    1.7241 O   0  0  0  0  0  0  0  0  0  0  0  0
   -0.4108   -1.1103   -1.2624 H   0  0  0  0  0  0  0  0  0  0  0  0
   -0.5110    1.1936    0.4189 H   0  0  0  0  0  0  0  0  0  0  0  0
    1.2820   -0.1279    1.6375 H   0  0  0  0  0  0  0  0  0  0  0  0
    1.2971   -1.2788    0.2965 H   0  0  0  0  0  0  0  0  0  0  0  0
    1.3956    2.7917   -0.2721 N   0  0  0  0  0  0  0  0  0  0  0  0
    2.4395    3.7292   -0.7022 C   0  0  2  0  0  0  0  0  0  0  0  0
    2.6056    4.9277    0.2546 C   0  0  0  0  0  0  0  0  0  0  0  0
    1.6598    5.3528    0.9088 O   0  0  0  0  0  0  0  0  0  0  0  0
    2.0899    4.2200   -2.1100 C   0  0  0  0  0  0  0  0  0  0  0  0
    0.5584    3.1746    0.1650 H   0  0  0  0  0  0  0  0  0  0  0  0
    3.4017    3.2081   -0.7341 H   0  0  0  0  0  0  0  0  0  0  0  0
    1.1270    4.7410   -2.1048 H   0  0  0  0  0  0  0  0  0  0  0  0
    2.8577    4.9068   -2.4777 H   0  0  0  0  0  0  0  0  0  0  0  0
    2.0230    3.3734   -2.8007 H   0  0  0  0  0  0  0  0  0  0  0  0
    3.8327    5.5598    0.3551 N   0  0  0  0  0  0  0  0  0  0  0  0
    4.0902    6.6706    1.2617 C   0  0  0  0  0  0  0  0  0  0  0  0
    4.6080    5.1538   -0.1602 H   0  0  0  0  0  0  0  0  0  0  0  0
    3.4125    7.5040    1.0493 H   0  0  0  0  0  0  0  0  0  0  0  0
    3.9491    6.3561    2.3009 H   0  0  0  0  0  0  0  0  0  0  0  0
    5.1188    7.0240    1.1429 H   0  0  0  0  0  0  0  0  0  0  0  0
  1  2  2  0  0  0  0
  1  3  1  0  0  0  0
  1  7  1  0  0  0  0
  3  4  1  0  0  0  0
  3  5  1  0  0  0  0
  3  6  1  0  0  0  0
  7  8  1  0  0  0  0
  7 12  1  0  0  0  0
  8  9  1  0  0  0  0
  8 11  1  0  0  0  0
  8 13  1  0  0  0  0
  9 10  2  0  0  0  0
  9 17  1  0  0  0  0
 11 14  1  0  0  0  0
 11 15  1  0  0  0  0
 11 16  1  0  0  0  0
 17 18  1  0  0  0  0
 17 25  1  0  0  0  0
 18 19  1  0  0  0  0
 18 21  1  0  0  0  0
 18 26  1  0  0  0  0
 19 20  2  0  0  0  0
 19 29  1  0  0  0  0
 21 22  1  0  0  0  0
 21 27  1  0  0  0  0
 21 28  1  0  0  0  0
 22 23  1  0  0  0  0
 22 24  2  0  0  0  0
 29 30  1  0  0  0  0
 29 34  1  0  0  0  0
 30 31  1  0  0  0  0
 30 33  1  0  0  0  0
 30 35  1  0  0  0  0
 31 32  2  0  0  0  0
 31 39  1  0  0  0  0
 33 36  1  0  0  0  0
 33 37  1  0  0  0  0
 33 38  1  0  0  0  0
 39 40  1  0  0  0  0
 39 41  1  0  0  0  0
 40 42  1  0  0  0  0
 40 43  1  0  0  0  0
 40 44  1  0  0  0  0
M  CHG  1  23  -1
M  END
$$$$

  -OEChem-05262215553D

 44 43  0     1  0  0  0  0  0999 V2000
   -4.7405   -0.0695   -3.7595 C   0  0  0  0  0  0  0  0  0  0  0  0
   -4.8552   -1.2661   -3.9756 O   0  0  0  0  0  0  0  0  0  0  0  0
   -5.9264    0.8540   -3.9703 C   0  0  0  0  0  0  0  0  0  0  0  0
   -5.6819    1.6094   -4.7209 H   0  0  0  0  0  0  0  0  0  0  0  0
   -6.7943    0.2835   -4.3122 H   0  0  0  0  0  0  0  0  0  0  0  0
   -6.1801    1.3527   -3.0315 H   0  0  0  0  0  0  0  0  0  0  0  0
   -3.5420    0.4581   -3.3316 N   0  0  0  0  0  0  0  0  0  0  0  0
   -2.3859   -0.3292   -2.8844 C   0  0  2  0  0  0  0  0  0  0  0  0
   -1.4891    0.5081   -1.9460 C   0  0  0  0  0  0  0  0  0  0  0  0
   -1.6847    1.7176   -1.8328 O   0  0  0  0  0  0  0  0  0  0  0  0
   -1.5891   -0.7941   -4.1088 C   0  0  0  0  0  0  0  0  0  0  0  0
   -3.5347    1.4414   -3.0602 H   0  0  0  0  0  0  0  0  0  0  0  0
   -2.7315   -1.2022   -2.3196 H   0  0  0  0  0  0  0  0  0  0  0  0
   -1.2350    0.0678   -4.6834 H   0  0  0  0  0  0  0  0  0  0  0  0
   -0.7229   -1.3874   -3.8004 H   0  0  0  0  0  0  0  0  0  0  0  0
   -2.2149   -1.4137   -4.7580 H   0  0  0  0  0  0  0  0  0  0  0  0
   -0.4467   -0.0836   -1.2634 N   0  0  0  0  0  0  0  0  0  0  0  0
    0.2189    0.5678   -0.1307 C   0  0  2  0  0  0  0  0  0  0  0  0
    1.4141    1.4355   -0.5811 C   0  0  0  0  0  0  0  0  0  0  0  0
    2.2409    1.0212   -1.3910 O   0  0  0  0  0  0  0  0  0  0  0  0
    0.7035   -0.5491    0.8107 C   0  0  0  0  0  0  0  0  0  0  0  0
   -0.4392   -1.2823    1.5055 C   0  0  0  0  0  0  0  0  0  0  0  0
   -1.5065   -0.6623    1.7321 O   0  5  0  0  0  0  0  0  0  0  0  0
   -0.2611   -2.5019    1.7332 O   0  0  0  0  0  0  0  0  0  0  0  0
   -0.4139   -1.0984   -1.2852 H   0  0  0  0  0  0  0  0  0  0  0  0
   -0.4878    1.2117    0.4056 H   0  0  0  0  0  0  0  0  0  0  0  0
    1.3325   -0.1110    1.5898 H   0  0  0  0  0  0  0  0  0  0  0  0
    1.3130   -1.2666    0.2533 H   0  0  0  0  0  0  0  0  0  0  0  0
    1.5854    2.7047   -0.0582 N   0  0  0  0  0  0  0  0  0  0  0  0
    2.6857    3.6103   -0.4094 C   0  0  2  0  0  0  0  0  0  0  0  0
    3.0864    4.5435    0.7518 C   0  0  0  0  0  0  0  0  0  0  0  0
    2.2759    4.8642    1.6140 O   0  0  0  0  0  0  0  0  0  0  0  0
    2.2600    4.4346   -1.6277 C   0  0  0  0  0  0  0  0  0  0  0  0
    0.9047    3.0236    0.6297 H   0  0  0  0  0  0  0  0  0  0  0  0
    3.5709    3.0206   -0.6682 H   0  0  0  0  0  0  0  0  0  0  0  0
    1.3737    5.0329   -1.3932 H   0  0  0  0  0  0  0  0  0  0  0  0
    3.0654    5.1080   -1.9351 H   0  0  0  0  0  0  0  0  0  0  0  0
    2.0215    3.7741   -2.4675 H   0  0  0  0  0  0  0  0  0  0  0  0
    4.3721    5.0516    0.8127 N   0  0  0  0  0  0  0  0  0  0  0  0
    4.8471    5.9040    1.8942 C   0  0  0  0  0  0  0  0  0  0  0  0
    5.0327    4.7304    0.1114 H   0  0  0  0  0  0  0  0  0  0  0  0
    4.2453    6.8167    1.9552 H   0  0  0  0  0  0  0  0  0  0  0  0
    4.7872    5.3755    2.8514 H   0  0  0  0  0  0  0  0  0  0  0  0
    5.8889    6.1891    1.7199 H   0  0  0  0  0  0  0  0  0  0  0  0
  1  2  2  0  0  0  0
  1  3  1  0  0  0  0
  1  7  1  0  0  0  0
  3  4  1  0  0  0  0
  3  5  1  0  0  0  0
  3  6  1  0  0  0  0
  7  8  1  0  0  0  0
  7 12  1  0  0  0  0
  8  9  1  0  0  0  0
  8 11  1  0  0  0  0
  8 13  1  0  0  0  0
  9 10  2  0  0  0  0
  9 17  1  0  0  0  0
 11 14  1  0  0  0  0
 11 15  1  0  0  0  0
 11 16  1  0  0  0  0
 17 18  1  0  0  0  0
 17 25  1  0  0  0  0
 18 19  1  0  0  0  0
 18 21  1  0  0  0  0
 18 26  1  0  0  0  0
 19 20  2  0  0  0  0
 19 29  1  0  0  0  0
 21 22  1  0  0  0  0
 21 27  1  0  0  0  0
 21 28  1  0  0  0  0
 22 23  1  0  0  0  0
 22 24  2  0  0  0  0
 29 30  1  0  0  0  0
 29 34  1  0  0  0  0
 30 31  1  0  0  0  0
 30 33  1  0  0  0  0
 30 35  1  0  0  0  0
 31 32  2  0  0  0  0
 31 39  1  0  0  0  0
 33 36  1  0  0  0  0
 33 37  1  0  0  0  0
 33 38  1  0  0  0  0
 39 40  1  0  0  0  0
 39 41  1  0  0  0  0
 40 42  1  0  0  0  0
 40 43  1  0  0  0  0
 40 44  1  0  0  0  0
M  CHG  1  23  -1
M  END
$$$$

  -OEChem-05262215553D

 44 43  0     1  0  0  0  0  0999 V2000
   -4.7564   -0.0881   -3.7703 C   0  0  0  0  0  0  0  0  0  0  0  0
   -4.8410   -1.2813   -4.0180 O   0  0  0  0  0  0  0  0  0  0  0  0
   -5.9600    0.8137   -3.9752 C   0  0  0  0  0  0  0  0  0  0  0  0
   -5.7196    1.5958   -4.6993 H   0  0  0  0  0  0  0  0  0  0  0  0
   -6.8083    0.2339   -4.3494 H   0  0  0  0  0  0  0  0  0  0  0  0
   -6.2422    1.2792   -3.0274 H   0  0  0  0  0  0  0  0  0  0  0  0
   -3.5754    0.4563   -3.3157 N   0  0  0  0  0  0  0  0  0  0  0  0
   -2.4009   -0.3133   -2.8866 C   0  0  2  0  0  0  0  0  0  0  0  0
   -1.5274    0.5209   -1.9237 C   0  0  0  0  0  0  0  0  0  0  0  0
   -1.7553    1.7213   -1.7791 O   0  0  0  0  0  0  0  0  0  0  0  0
   -1.5894   -0.7244   -4.1207 C   0  0  0  0  0  0  0  0  0  0  0  0
   -3.5919    1.4330   -3.0215 H   0  0  0  0  0  0  0  0  0  0  0  0
   -2.7258   -1.2098   -2.3472 H   0  0  0  0  0  0  0  0  0  0  0  0
   -1.2580    0.1617   -4.6713 H   0  0  0  0  0  0  0  0  0  0  0  0
   -0.7074   -1.3007   -3.8253 H   0  0  0  0  0  0  0  0  0  0  0  0
   -2.1959   -1.3440   -4.7882 H   0  0  0  0  0  0  0  0  0  0  0  0
   -0.4728   -0.0646   -1.2544 N   0  0  0  0  0  0  0  0  0  0  0  0
    0.2165    0.5863   -0.1349 C   0  0  2  0  0  0  0  0  0  0  0  0
    1.4082    1.4535   -0.5971 C   0  0  0  0  0  0  0  0  0  0  0  0
    2.0823    1.1527   -1.5802 O   0  0  0  0  0  0  0  0  0  0  0  0
    0.7265   -0.5324    0.7912 C   0  0  0  0  0  0  0  0  0  0  0  0
   -0.3940   -1.2745    1.5114 C   0  0  0  0  0  0  0  0  0  0  0  0
   -1.4586   -0.6620    1.7671 O   0  5  0  0  0  0  0  0  0  0  0  0
   -0.1992   -2.4917    1.7379 O   0  0  0  0  0  0  0  0  0  0  0  0
   -0.4046   -1.0760   -1.3091 H   0  0  0  0  0  0  0  0  0  0  0  0
   -0.4791    1.2296    0.4163 H   0  0  0  0  0  0  0  0  0  0  0  0
    1.3716   -0.0953    1.5578 H   0  0  0  0  0  0  0  0  0  0  0  0
    1.3262   -1.2446    0.2163 H   0  0  0  0  0  0  0  0  0  0  0  0
    1.7739    2.5715    0.1314 N   0  0  0  0  0  0  0  0  0  0  0  0
    2.9330    3.4193   -0.1717 C   0  0  2  0  0  0  0  0  0  0  0  0
    3.5738    4.0296    1.0914 C   0  0  0  0  0  0  0  0  0  0  0  0
    2.9122    4.2190    2.1060 O   0  0  0  0  0  0  0  0  0  0  0  0
    2.4777    4.5278   -1.1245 C   0  0  0  0  0  0  0  0  0  0  0  0
    1.2535    2.7636    0.9864 H   0  0  0  0  0  0  0  0  0  0  0  0
    3.7045    2.8182   -0.6636 H   0  0  0  0  0  0  0  0  0  0  0  0
    1.7039    5.1423   -0.6533 H   0  0  0  0  0  0  0  0  0  0  0  0
    3.3200    5.1715   -1.3941 H   0  0  0  0  0  0  0  0  0  0  0  0
    2.0664    4.0932   -2.0412 H   0  0  0  0  0  0  0  0  0  0  0  0
    4.9086    4.3939    1.0773 N   0  0  0  0  0  0  0  0  0  0  0  0
    5.6028    4.9420    2.2345 C   0  0  0  0  0  0  0  0  0  0  0  0
    5.4393    4.1829    0.2377 H   0  0  0  0  0  0  0  0  0  0  0  0
    5.1353    5.8796    2.5526 H   0  0  0  0  0  0  0  0  0  0  0  0
    5.5767    4.2327    3.0682 H   0  0  0  0  0  0  0  0  0  0  0  0
    6.6486    5.1447    1.9852 H   0  0  0  0  0  0  0  0  0  0  0  0
  1  2  2  0  0  0  0
  1  3  1  0  0  0  0
  1  7  1  0  0  0  0
  3  4  1  0  0  0  0
  3  5  1  0  0  0  0
  3  6  1  0  0  0  0
  7  8  1  0  0  0  0
  7 12  1  0  0  0  0
  8  9  1  0  0  0  0
  8 11  1  0  0  0  0
  8 13  1  0  0  0  0
  9 10  2  0  0  0  0
  9 17  1  0  0  0  0
 11 14  1  0  0  0  0
 11 15  1  0  0  0  0
 11 16  1  0  0  0  0
 17 18  1  0  0  0  0
 17 25  1  0  0  0  0
 18 19  1  0  0  0  0
 18 21  1  0  0  0  0
 18 26  1  0  0  0  0
 19 20  2  0  0  0  0
 19 29  1  0  0  0  0
 21 22  1  0  0  0  0
 21 27  1  0  0  0  0
 21 28  1  0  0  0  0
 22 23  1  0  0  0  0
 22 24  2  0  0  0  0
 29 30  1  0  0  0  0
 29 34  1  0  0  0  0
 30 31  1  0  0  0  0
 30 33  1  0  0  0  0
 30 35  1  0  0  0  0
 31 32  2  0  0  0  0
 31 39  1  0  0  0  0
 33 36  1  0  0  0  0
 33 37  1  0  0  0  0
 33 38  1  0  0  0  0
 39 40  1  0  0  0  0
 39 41  1  0  0  0  0
 40 42  1  0  0  0  0
 40 43  1  0  0  0  0
 40 44  1  0  0  0  0
M  CHG  1  23  -1
M  END
$$$$

  -OEChem-05262215553D

 44 43  0     1  0  0  0  0  0999 V2000
   -4.7575   -0.0946   -3.7692 C   0  0  0  0  0  0  0  0  0  0  0  0
   -4.8232   -1.2858   -4.0323 O   0  0  0  0  0  0  0  0  0  0  0  0
   -5.9815    0.7858   -3.9464 C   0  0  0  0  0  0  0  0  0  0  0  0
   -5.7463    1.6233   -4.6073 H   0  0  0  0  0  0  0  0  0  0  0  0
   -6.8008    0.2102   -4.3857 H   0  0  0  0  0  0  0  0  0  0  0  0
   -6.3033    1.1752   -2.9770 H   0  0  0  0  0  0  0  0  0  0  0  0
   -3.5832    0.4634   -3.3135 N   0  0  0  0  0  0  0  0  0  0  0  0
   -2.3981   -0.2943   -2.8922 C   0  0  2  0  0  0  0  0  0  0  0  0
   -1.5342    0.5401   -1.9208 C   0  0  0  0  0  0  0  0  0  0  0  0
   -1.7832    1.7335   -1.7551 O   0  0  0  0  0  0  0  0  0  0  0  0
   -1.5811   -0.6867   -4.1291 C   0  0  0  0  0  0  0  0  0  0  0  0
   -3.6162    1.4342   -3.0018 H   0  0  0  0  0  0  0  0  0  0  0  0
   -2.7122   -1.1989   -2.3601 H   0  0  0  0  0  0  0  0  0  0  0  0
   -1.2564    0.2068   -4.6714 H   0  0  0  0  0  0  0  0  0  0  0  0
   -0.6946   -1.2581   -3.8375 H   0  0  0  0  0  0  0  0  0  0  0  0
   -2.1808   -1.3056   -4.8032 H   0  0  0  0  0  0  0  0  0  0  0  0
   -0.4748   -0.0452   -1.2588 N   0  0  0  0  0  0  0  0  0  0  0  0
    0.2240    0.6030   -0.1434 C   0  0  2  0  0  0  0  0  0  0  0  0
    1.4159    1.4724   -0.6044 C   0  0  0  0  0  0  0  0  0  0  0  0
    1.9358    1.3327   -1.7097 O   0  0  0  0  0  0  0  0  0  0  0  0
    0.7369   -0.5282    0.7680 C   0  0  0  0  0  0  0  0  0  0  0  0
   -0.3804   -1.2736    1.4907 C   0  0  0  0  0  0  0  0  0  0  0  0
   -1.4405   -0.6604    1.7624 O   0  5  0  0  0  0  0  0  0  0  0  0
   -0.1874   -2.4941    1.7013 O   0  0  0  0  0  0  0  0  0  0  0  0
   -0.3979   -1.0549   -1.3267 H   0  0  0  0  0  0  0  0  0  0  0  0
   -0.4658    1.2450    0.4169 H   0  0  0  0  0  0  0  0  0  0  0  0
    1.3900   -0.1059    1.5360 H   0  0  0  0  0  0  0  0  0  0  0  0
    1.3288   -1.2367    0.1810 H   0  0  0  0  0  0  0  0  0  0  0  0
    1.9780    2.3857    0.2701 N   0  0  0  0  0  0  0  0  0  0  0  0
    3.1798    3.1797   -0.0119 C   0  0  2  0  0  0  0  0  0  0  0  0
    4.0281    3.4361    1.2502 C   0  0  0  0  0  0  0  0  0  0  0  0
    3.5100    3.4618    2.3610 O   0  0  0  0  0  0  0  0  0  0  0  0
    2.7406    4.5058   -0.6379 C   0  0  0  0  0  0  0  0  0  0  0  0
    1.6012    2.4162    1.2168 H   0  0  0  0  0  0  0  0  0  0  0  0
    3.8153    2.6417   -0.7226 H   0  0  0  0  0  0  0  0  0  0  0  0
    2.1031    5.0634    0.0558 H   0  0  0  0  0  0  0  0  0  0  0  0
    3.6116    5.1200   -0.8843 H   0  0  0  0  0  0  0  0  0  0  0  0
    2.1761    4.3203   -1.5574 H   0  0  0  0  0  0  0  0  0  0  0  0
    5.3885    3.6610    1.1347 N   0  0  0  0  0  0  0  0  0  0  0  0
    6.2651    3.8591    2.2813 C   0  0  0  0  0  0  0  0  0  0  0  0
    5.7980    3.5748    0.2094 H   0  0  0  0  0  0  0  0  0  0  0  0
    5.9307    4.7161    2.8754 H   0  0  0  0  0  0  0  0  0  0  0  0
    6.2692    2.9681    2.9180 H   0  0  0  0  0  0  0  0  0  0  0  0
    7.2885    4.0508    1.9451 H   0  0  0  0  0  0  0  0  0  0  0  0
  1  2  2  0  0  0  0
  1  3  1  0  0  0  0
  1  7  1  0  0  0  0
  3  4  1  0  0  0  0
  3  5  1  0  0  0  0
  3  6  1  0  0  0  0
  7  8  1  0  0  0  0
  7 12  1  0  0  0  0
  8  9  1  0  0  0  0
  8 11  1  0  0  0  0
  8 13  1  0  0  0  0
  9 10  2  0  0  0  0
  9 17  1  0  0  0  0
 11 14  1  0  0  0  0
 11 15  1  0  0  0  0
 11 16  1  0  0  0  0
 17 18  1  0  0  0  0
 17 25  1  0  0  0  0
 18 19  1  0  0  0  0
 18 21  1  0  0  0  0
 18 26  1  0  0  0  0
 19 20  2  0  0  0  0
 19 29  1  0  0  0  0
 21 22  1  0  0  0  0
 21 27  1  0  0  0  0
 21 28  1  0  0  0  0
 22 23  1  0  0  0  0
 22 24  2  0  0  0  0
 29 30  1  0  0  0  0
 29 34  1  0  0  0  0
 30 31  1  0  0  0  0
 30 33  1  0  0  0  0
 30 35  1  0  0  0  0
 31 32  2  0  0  0  0
 31 39  1  0  0  0  0
 33 36  1  0  0  0  0
 33 37  1  0  0  0  0
 33 38  1  0  0  0  0
 39 40  1  0  0  0  0
 39 41  1  0  0  0  0
 40 42  1  0  0  0  0
 40 43  1  0  0  0  0
 40 44  1  0  0  0  0
M  CHG  1  23  -1
M  END
$$$$

  -OEChem-05262215553D

 44 43  0     1  0  0  0  0  0999 V2000
   -4.6934   -0.1300   -3.8711 C   0  0  0  0  0  0  0  0  0  0  0  0
   -4.6691   -1.2980   -4.2282 O   0  0  0  0  0  0  0  0  0  0  0  0
   -5.9570    0.6906   -4.0552 C   0  0  0  0  0  0  0  0  0  0  0  0
   -5.7302    1.6073   -4.6051 H   0  0  0  0  0  0  0  0  0  0  0  0
   -6.7009    0.1183   -4.6161 H   0  0  0  0  0  0  0  0  0  0  0  0
   -6.3738    0.9532   -3.0796 H   0  0  0  0  0  0  0  0  0  0  0  0
   -3.5841    0.4556   -3.3022 N   0  0  0  0  0  0  0  0  0  0  0  0
   -2.3754   -0.2628   -2.8796 C   0  0  2  0  0  0  0  0  0  0  0  0
   -1.6423    0.5106   -1.7612 C   0  0  0  0  0  0  0  0  0  0  0  0
   -2.0409    1.6271   -1.4324 O   0  0  0  0  0  0  0  0  0  0  0  0
   -1.4551   -0.4482   -4.0914 C   0  0  0  0  0  0  0  0  0  0  0  0
   -3.6956    1.3915   -2.9119 H   0  0  0  0  0  0  0  0  0  0  0  0
   -2.6511   -1.2436   -2.4773 H   0  0  0  0  0  0  0  0  0  0  0  0
   -1.1491    0.5244   -4.4897 H   0  0  0  0  0  0  0  0  0  0  0  0
   -0.5576   -1.0074   -3.8102 H   0  0  0  0  0  0  0  0  0  0  0  0
   -1.9707   -1.0029   -4.8810 H   0  0  0  0  0  0  0  0  0  0  0  0
   -0.5533   -0.0540   -1.1283 N   0  0  0  0  0  0  0  0  0  0  0  0
    0.1758    0.5924   -0.0314 C   0  0  2  0  0  0  0  0  0  0  0  0
    1.0931    1.7493   -0.5032 C   0  0  0  0  0  0  0  0  0  0  0  0
    1.2975    1.9786   -1.6939 O   0  0  0  0  0  0  0  0  0  0  0  0
    1.0284   -0.5138    0.6239 C   0  0  0  0  0  0  0  0  0  0  0  0
    0.2006   -1.5574    1.3663 C   0  0  0  0  0  0  0  0  0  0  0  0
   -0.8982   -1.2174    1.8665 O   0  5  0  0  0  0  0  0  0  0  0  0
    0.6514   -2.7270    1.3606 O   0  0  0  0  0  0  0  0  0  0  0  0
   -0.3478   -1.0280   -1.3262 H   0  0  0  0  0  0  0  0  0  0  0  0
   -0.5321    1.0008    0.6990 H   0  0  0  0  0  0  0  0  0  0  0  0
    1.7046   -0.0684    1.3573 H   0  0  0  0  0  0  0  0  0  0  0  0
    1.6415   -1.0070   -0.1364 H   0  0  0  0  0  0  0  0  0  0  0  0
    1.8423    2.4548    0.4229 N   0  0  0  0  0  0  0  0  0  0  0  0
    2.8864    3.4302    0.0849 C   0  0  2  0  0  0  0  0  0  0  0  0
    4.0310    3.4466    1.1182 C   0  0  0  0  0  0  0  0  0  0  0  0
    3.8269    3.1320    2.2854 O   0  0  0  0  0  0  0  0  0  0  0  0
    2.2387    4.8134   -0.0169 C   0  0  0  0  0  0  0  0  0  0  0  0
    1.7633    2.1667    1.3977 H   0  0  0  0  0  0  0  0  0  0  0  0
    3.3297    3.1713   -0.8820 H   0  0  0  0  0  0  0  0  0  0  0  0
    1.7915    5.0970    0.9413 H   0  0  0  0  0  0  0  0  0  0  0  0
    2.9833    5.5660   -0.2924 H   0  0  0  0  0  0  0  0  0  0  0  0
    1.4541    4.8077   -0.7803 H   0  0  0  0  0  0  0  0  0  0  0  0
    5.3036    3.8299    0.7332 N   0  0  0  0  0  0  0  0  0  0  0  0
    6.4538    3.7858    1.6262 C   0  0  0  0  0  0  0  0  0  0  0  0
    5.4540    4.0099   -0.2548 H   0  0  0  0  0  0  0  0  0  0  0  0
    6.2657    4.3828    2.5248 H   0  0  0  0  0  0  0  0  0  0  0  0
    6.6648    2.7538    1.9252 H   0  0  0  0  0  0  0  0  0  0  0  0
    7.3375    4.1900    1.1235 H   0  0  0  0  0  0  0  0  0  0  0  0
  1  2  2  0  0  0  0
  1  3  1  0  0  0  0
  1  7  1  0  0  0  0
  3  4  1  0  0  0  0
  3  5  1  0  0  0  0
  3  6  1  0  0  0  0
  7  8  1  0  0  0  0
  7 12  1  0  0  0  0
  8  9  1  0  0  0  0
  8 11  1  0  0  0  0
  8 13  1  0  0  0  0
  9 10  2  0  0  0  0
  9 17  1  0  0  0  0
 11 14  1  0  0  0  0
 11 15  1  0  0  0  0
 11 16  1  0  0  0  0
 17 18  1  0  0  0  0
 17 25  1  0  0  0  0
 18 19  1  0  0  0  0
 18 21  1  0  0  0  0
 18 26  1  0  0  0  0
 19 20  2  0  0  0  0
 19 29  1  0  0  0  0
 21 22  1  0  0  0  0
 21 27  1  0  0  0  0
 21 28  1  0  0  0  0
 22 23  1  0  0  0  0
 22 24  2  0  0  0  0
 29 30  1  0  0  0  0
 29 34  1  0  0  0  0
 30 31  1  0  0  0  0
 30 33  1  0  0  0  0
 30 35  1  0  0  0  0
 31 32  2  0  0  0  0
 31 39  1  0  0  0  0
 33 36  1  0  0  0  0
 33 37  1  0  0  0  0
 33 38  1  0  0  0  0
 39 40  1  0  0  0  0
 39 41  1  0  0  0  0
 40 42  1  0  0  0  0
 40 43  1  0  0  0  0
 40 44  1  0  0  0  0
M  CHG  1  23  -1
M  END
$$$$

  -OEChem-05262215553D

 44 43  0     1  0  0  0  0  0999 V2000
   -4.6397   -0.1084   -3.9213 C   0  0  0  0  0  0  0  0  0  0  0  0
   -4.5657   -1.2502   -4.3495 O   0  0  0  0  0  0  0  0  0  0  0  0
   -5.9253    0.6806   -4.0906 C   0  0  0  0  0  0  0  0  0  0  0  0
   -5.7241    1.6103   -4.6283 H   0  0  0  0  0  0  0  0  0  0  0  0
   -6.6560    0.0965   -4.6567 H   0  0  0  0  0  0  0  0  0  0  0  0
   -6.3469    0.9191   -3.1108 H   0  0  0  0  0  0  0  0  0  0  0  0
   -3.5671    0.4755   -3.2844 N   0  0  0  0  0  0  0  0  0  0  0  0
   -2.3438   -0.2269   -2.8772 C   0  0  2  0  0  0  0  0  0  0  0  0
   -1.6642    0.4986   -1.6954 C   0  0  0  0  0  0  0  0  0  0  0  0
   -2.0995    1.5859   -1.3195 O   0  0  0  0  0  0  0  0  0  0  0  0
   -1.3874   -0.3018   -4.0733 C   0  0  0  0  0  0  0  0  0  0  0  0
   -3.7205    1.3813   -2.8405 H   0  0  0  0  0  0  0  0  0  0  0  0
   -2.5937   -1.2399   -2.5441 H   0  0  0  0  0  0  0  0  0  0  0  0
   -1.1138    0.7048   -4.4054 H   0  0  0  0  0  0  0  0  0  0  0  0
   -0.4732   -0.8378   -3.8010 H   0  0  0  0  0  0  0  0  0  0  0  0
   -1.8587   -0.8295   -4.9080 H   0  0  0  0  0  0  0  0  0  0  0  0
   -0.5807   -0.0779   -1.0630 N   0  0  0  0  0  0  0  0  0  0  0  0
    0.1580    0.5561    0.0354 C   0  0  2  0  0  0  0  0  0  0  0  0
    1.0901    1.7046   -0.4383 C   0  0  0  0  0  0  0  0  0  0  0  0
    1.1046    2.0979   -1.6029 O   0  0  0  0  0  0  0  0  0  0  0  0
    0.9807   -0.5787    0.6860 C   0  0  0  0  0  0  0  0  0  0  0  0
    0.1254   -1.6050    1.4219 C   0  0  0  0  0  0  0  0  0  0  0  0
   -0.9643   -1.2409    1.9243 O   0  5  0  0  0  0  0  0  0  0  0  0
    0.5486   -2.7848    1.4116 O   0  0  0  0  0  0  0  0  0  0  0  0
   -0.3424   -1.0326   -1.3108 H   0  0  0  0  0  0  0  0  0  0  0  0
   -0.5411    0.9766    0.7672 H   0  0  0  0  0  0  0  0  0  0  0  0
    1.6679   -0.1633    1.4261 H   0  0  0  0  0  0  0  0  0  0  0  0
    1.5811   -1.0832   -0.0770 H   0  0  0  0  0  0  0  0  0  0  0  0
    2.0730    2.1971    0.4037 N   0  0  0  0  0  0  0  0  0  0  0  0
    3.1350    3.1265   -0.0004 C   0  0  2  0  0  0  0  0  0  0  0  0
    4.4494    2.8816    0.7676 C   0  0  0  0  0  0  0  0  0  0  0  0
    4.4365    2.4134    1.9004 O   0  0  0  0  0  0  0  0  0  0  0  0
    2.6381    4.5558    0.2313 C   0  0  0  0  0  0  0  0  0  0  0  0
    2.1480    1.7682    1.3254 H   0  0  0  0  0  0  0  0  0  0  0  0
    3.3548    2.9925   -1.0644 H   0  0  0  0  0  0  0  0  0  0  0  0
    2.4157    4.7161    1.2911 H   0  0  0  0  0  0  0  0  0  0  0  0
    3.3963    5.2799   -0.0810 H   0  0  0  0  0  0  0  0  0  0  0  0
    1.7267    4.7376   -0.3473 H   0  0  0  0  0  0  0  0  0  0  0  0
    5.6609    3.2053    0.1831 N   0  0  0  0  0  0  0  0  0  0  0  0
    6.9473    2.9345    0.8106 C   0  0  0  0  0  0  0  0  0  0  0  0
    5.6403    3.5260   -0.7802 H   0  0  0  0  0  0  0  0  0  0  0  0
    7.0155    3.4391    1.7800 H   0  0  0  0  0  0  0  0  0  0  0  0
    7.0793    1.8583    0.9628 H   0  0  0  0  0  0  0  0  0  0  0  0
    7.7603    3.2975    0.1750 H   0  0  0  0  0  0  0  0  0  0  0  0
  1  2  2  0  0  0  0
  1  3  1  0  0  0  0
  1  7  1  0  0  0  0
  3  4  1  0  0  0  0
  3  5  1  0  0  0  0
  3  6  1  0  0  0  0
  7  8  1  0  0  0  0
  7 12  1  0  0  0  0
  8  9  1  0  0  0  0
  8 11  1  0  0  0  0
  8 13  1  0  0  0  0
  9 10  2  0  0  0  0
  9 17  1  0  0  0  0
 11 14  1  0  0  0  0
 11 15  1  0  0  0  0
 11 16  1  0  0  0  0
 17 18  1  0  0  0  0
 17 25  1  0  0  0  0
 18 19  1  0  0  0  0
 18 21  1  0  0  0  0
 18 26  1  0  0  0  0
 19 20  2  0  0  0  0
 19 29  1  0  0  0  0
 21 22  1  0  0  0  0
 21 27  1  0  0  0  0
 21 28  1  0  0  0  0
 22 23  1  0  0  0  0
 22 24  2  0  0  0  0
 29 30  1  0  0  0  0
 29 34  1  0  0  0  0
 30 31  1  0  0  0  0
 30 33  1  0  0  0  0
 30 35  1  0  0  0  0
 31 32  2  0  0  0  0
 31 39  1  0  0  0  0
 33 36  1  0  0  0  0
 33 37  1  0  0  0  0
 33 38  1  0  0  0  0
 39 40  1  0  0  0  0
 39 41  1  0  0  0  0
 40 42  1  0  0  0  0
 40 43  1  0  0  0  0
 40 44  1  0  0  0  0
M  CHG  1  23  -1
M  END
$$$$

  -OEChem-05262215553D

 44 43  0     1  0  0  0  0  0999 V2000
   -4.5912   -0.0980   -3.9534 C   0  0  0  0  0  0  0  0  0  0  0  0
   -4.4841   -1.2220   -4.4204 O   0  0  0  0  0  0  0  0  0  0  0  0
   -5.8914    0.6682   -4.1158 C   0  0  0  0  0  0  0  0  0  0  0  0
   -5.7088    1.6014   -4.6538 H   0  0  0  0  0  0  0  0  0  0  0  0
   -6.6140    0.0715   -4.6790 H   0  0  0  0  0  0  0  0  0  0  0  0
   -6.3123    0.8991   -3.1339 H   0  0  0  0  0  0  0  0  0  0  0  0
   -3.5403    0.4881   -3.2836 N   0  0  0  0  0  0  0  0  0  0  0  0
   -2.3032   -0.1973   -2.8902 C   0  0  2  0  0  0  0  0  0  0  0  0
   -1.6575    0.4960   -1.6701 C   0  0  0  0  0  0  0  0  0  0  0  0
   -2.1102    1.5700   -1.2782 O   0  0  0  0  0  0  0  0  0  0  0  0
   -1.3327   -0.1911   -4.0769 C   0  0  0  0  0  0  0  0  0  0  0  0
   -3.7186    1.3749   -2.8114 H   0  0  0  0  0  0  0  0  0  0  0  0
   -2.5284   -1.2307   -2.6056 H   0  0  0  0  0  0  0  0  0  0  0  0
   -1.0811    0.8369   -4.3575 H   0  0  0  0  0  0  0  0  0  0  0  0
   -0.4082   -0.7162   -3.8191 H   0  0  0  0  0  0  0  0  0  0  0  0
   -1.7824   -0.6897   -4.9408 H   0  0  0  0  0  0  0  0  0  0  0  0
   -0.5975   -0.1018   -1.0156 N   0  0  0  0  0  0  0  0  0  0  0  0
    0.1456    0.5204    0.0876 C   0  0  2  0  0  0  0  0  0  0  0  0
    1.1165    1.6381   -0.3934 C   0  0  0  0  0  0  0  0  0  0  0  0
    0.9777    2.2021   -1.4759 O   0  0  0  0  0  0  0  0  0  0  0  0
    0.9095   -0.6358    0.7745 C   0  0  0  0  0  0  0  0  0  0  0  0
    0.0035   -1.6172    1.5112 C   0  0  0  0  0  0  0  0  0  0  0  0
   -1.0811   -1.2075    1.9882 O   0  5  0  0  0  0  0  0  0  0  0  0
    0.3899   -2.8093    1.5358 O   0  0  0  0  0  0  0  0  0  0  0  0
   -0.3540   -1.0500   -1.2811 H   0  0  0  0  0  0  0  0  0  0  0  0
   -0.5506    0.9751    0.8018 H   0  0  0  0  0  0  0  0  0  0  0  0
    1.5889   -0.2345    1.5289 H   0  0  0  0  0  0  0  0  0  0  0  0
    1.5096   -1.1748    0.0354 H   0  0  0  0  0  0  0  0  0  0  0  0
    2.2865    1.9119    0.2968 N   0  0  0  0  0  0  0  0  0  0  0  0
    3.3482    2.8129   -0.1699 C   0  0  2  0  0  0  0  0  0  0  0  0
    4.7512    2.3432    0.2641 C   0  0  0  0  0  0  0  0  0  0  0  0
    4.9073    1.6996    1.2956 O   0  0  0  0  0  0  0  0  0  0  0  0
    3.0606    4.2148    0.3740 C   0  0  0  0  0  0  0  0  0  0  0  0
    2.4799    1.3440    1.1207 H   0  0  0  0  0  0  0  0  0  0  0  0
    3.3472    2.8481   -1.2639 H   0  0  0  0  0  0  0  0  0  0  0  0
    3.0597    4.2083    1.4686 H   0  0  0  0  0  0  0  0  0  0  0  0
    3.8199    4.9227    0.0290 H   0  0  0  0  0  0  0  0  0  0  0  0
    2.0817    4.5609    0.0272 H   0  0  0  0  0  0  0  0  0  0  0  0
    5.8538    2.6597   -0.5097 N   0  0  0  0  0  0  0  0  0  0  0  0
    7.2018    2.1965   -0.2091 C   0  0  0  0  0  0  0  0  0  0  0  0
    5.6815    3.1322   -1.3919 H   0  0  0  0  0  0  0  0  0  0  0  0
    7.5142    2.5430    0.7815 H   0  0  0  0  0  0  0  0  0  0  0  0
    7.2442    1.1025   -0.2314 H   0  0  0  0  0  0  0  0  0  0  0  0
    7.9078    2.5860   -0.9487 H   0  0  0  0  0  0  0  0  0  0  0  0
  1  2  2  0  0  0  0
  1  3  1  0  0  0  0
  1  7  1  0  0  0  0
  3  4  1  0  0  0  0
  3  5  1  0  0  0  0
  3  6  1  0  0  0  0
  7  8  1  0  0  0  0
  7 12  1  0  0  0  0
  8  9  1  0  0  0  0
  8 11  1  0  0  0  0
  8 13  1  0  0  0  0
  9 10  2  0  0  0  0
  9 17  1  0  0  0  0
 11 14  1  0  0  0  0
 11 15  1  0  0  0  0
 11 16  1  0  0  0  0
 17 18  1  0  0  0  0
 17 25  1  0  0  0  0
 18 19  1  0  0  0  0
 18 21  1  0  0  0  0
 18 26  1  0  0  0  0
 19 20  2  0  0  0  0
 19 29  1  0  0  0  0
 21 22  1  0  0  0  0
 21 27  1  0  0  0  0
 21 28  1  0  0  0  0
 22 23  1  0  0  0  0
 22 24  2  0  0  0  0
 29 30  1  0  0  0  0
 29 34  1  0  0  0  0
 30 31  1  0  0  0  0
 30 33  1  0  0  0  0
 30 35  1  0  0  0  0
 31 32  2  0  0  0  0
 31 39  1  0  0  0  0
 33 36  1  0  0  0  0
 33 37  1  0  0  0  0
 33 38  1  0  0  0  0
 39 40  1  0  0  0  0
 39 41  1  0  0  0  0
 40 42  1  0  0  0  0
 40 43  1  0  0  0  0
 40 44  1  0  0  0  0
M  CHG  1  23  -1
M  END
$$$$

  -OEChem-05262215553D

 44 43  0     1  0  0  0  0  0999 V2000
   -4.5830   -0.0977   -3.9557 C   0  0  0  0  0  0  0  0  0  0  0  0
   -4.4782   -1.2240   -4.4177 O   0  0  0  0  0  0  0  0  0  0  0  0
   -5.8818    0.6703   -4.1192 C   0  0  0  0  0  0  0  0  0  0  0  0
   -5.6981    1.5999   -4.6633 H   0  0  0  0  0  0  0  0  0  0  0  0
   -6.6082    0.0722   -4.6763 H   0  0  0  0  0  0  0  0  0  0  0  0
   -6.2991    0.9083   -3.1374 H   0  0  0  0  0  0  0  0  0  0  0  0
   -3.5295    0.4911   -3.2925 N   0  0  0  0  0  0  0  0  0  0  0  0
   -2.2947   -0.1942   -2.8934 C   0  0  2  0  0  0  0  0  0  0  0  0
   -1.6482    0.5078   -1.6787 C   0  0  0  0  0  0  0  0  0  0  0  0
   -2.0999    1.5854   -1.2985 O   0  0  0  0  0  0  0  0  0  0  0  0
   -1.3245   -0.2004   -4.0798 C   0  0  0  0  0  0  0  0  0  0  0  0
   -3.7063    1.3805   -2.8242 H   0  0  0  0  0  0  0  0  0  0  0  0
   -2.5231   -1.2244   -2.6004 H   0  0  0  0  0  0  0  0  0  0  0  0
   -1.0725    0.8248   -4.3702 H   0  0  0  0  0  0  0  0  0  0  0  0
   -0.4008   -0.7246   -3.8173 H   0  0  0  0  0  0  0  0  0  0  0  0
   -1.7751   -0.7065   -4.9390 H   0  0  0  0  0  0  0  0  0  0  0  0
   -0.6033   -0.0997   -1.0083 N   0  0  0  0  0  0  0  0  0  0  0  0
    0.1501    0.5121    0.0949 C   0  0  2  0  0  0  0  0  0  0  0  0
    1.1503    1.6041   -0.3870 C   0  0  0  0  0  0  0  0  0  0  0  0
    0.8903    2.3676   -1.3116 O   0  0  0  0  0  0  0  0  0  0  0  0
    0.8689   -0.6574    0.8074 C   0  0  0  0  0  0  0  0  0  0  0  0
   -0.0748   -1.5986    1.5494 C   0  0  0  0  0  0  0  0  0  0  0  0
   -1.1508   -1.1496    2.0096 O   0  5  0  0  0  0  0  0  0  0  0  0
    0.2736   -2.8020    1.5912 O   0  0  0  0  0  0  0  0  0  0  0  0
   -0.3930   -1.0627   -1.2485 H   0  0  0  0  0  0  0  0  0  0  0  0
   -0.5398    0.9946    0.7970 H   0  0  0  0  0  0  0  0  0  0  0  0
    1.5479   -0.2631    1.5667 H   0  0  0  0  0  0  0  0  0  0  0  0
    1.4618   -1.2260    0.0848 H   0  0  0  0  0  0  0  0  0  0  0  0
    2.4461    1.6548    0.1026 N   0  0  0  0  0  0  0  0  0  0  0  0
    3.5107    2.5221   -0.4188 C   0  0  2  0  0  0  0  0  0  0  0  0
    4.8998    1.8560   -0.3512 C   0  0  0  0  0  0  0  0  0  0  0  0
    5.1455    0.9984    0.4894 O   0  0  0  0  0  0  0  0  0  0  0  0
    3.5025    3.8254    0.3838 C   0  0  0  0  0  0  0  0  0  0  0  0
    2.7152    0.9280    0.7645 H   0  0  0  0  0  0  0  0  0  0  0  0
    3.3179    2.7504   -1.4720 H   0  0  0  0  0  0  0  0  0  0  0  0
    3.6975    3.6241    1.4420 H   0  0  0  0  0  0  0  0  0  0  0  0
    4.2696    4.5100    0.0102 H   0  0  0  0  0  0  0  0  0  0  0  0
    2.5280    4.3162    0.2957 H   0  0  0  0  0  0  0  0  0  0  0  0
    5.8893    2.2335   -1.2416 N   0  0  0  0  0  0  0  0  0  0  0  0
    7.2065    1.6131   -1.2841 C   0  0  0  0  0  0  0  0  0  0  0  0
    5.6343    2.8990   -1.9651 H   0  0  0  0  0  0  0  0  0  0  0  0
    7.7224    1.7435   -0.3273 H   0  0  0  0  0  0  0  0  0  0  0  0
    7.1177    0.5424   -1.4957 H   0  0  0  0  0  0  0  0  0  0  0  0
    7.8145    2.0727   -2.0691 H   0  0  0  0  0  0  0  0  0  0  0  0
  1  2  2  0  0  0  0
  1  3  1  0  0  0  0
  1  7  1  0  0  0  0
  3  4  1  0  0  0  0
  3  5  1  0  0  0  0
  3  6  1  0  0  0  0
  7  8  1  0  0  0  0
  7 12  1  0  0  0  0
  8  9  1  0  0  0  0
  8 11  1  0  0  0  0
  8 13  1  0  0  0  0
  9 10  2  0  0  0  0
  9 17  1  0  0  0  0
 11 14  1  0  0  0  0
 11 15  1  0  0  0  0
 11 16  1  0  0  0  0
 17 18  1  0  0  0  0
 17 25  1  0  0  0  0
 18 19  1  0  0  0  0
 18 21  1  0  0  0  0
 18 26  1  0  0  0  0
 19 20  2  0  0  0  0
 19 29  1  0  0  0  0
 21 22  1  0  0  0  0
 21 27  1  0  0  0  0
 21 28  1  0  0  0  0
 22 23  1  0  0  0  0
 22 24  2  0  0  0  0
 29 30  1  0  0  0  0
 29 34  1  0  0  0  0
 30 31  1  0  0  0  0
 30 33  1  0  0  0  0
 30 35  1  0  0  0  0
 31 32  2  0  0  0  0
 31 39  1  0  0  0  0
 33 36  1  0  0  0  0
 33 37  1  0  0  0  0
 33 38  1  0  0  0  0
 39 40  1  0  0  0  0
 39 41  1  0  0  0  0
 40 42  1  0  0  0  0
 40 43  1  0  0  0  0
 40 44  1  0  0  0  0
M  CHG  1  23  -1
M  END
$$$$

  -OEChem-05262215553D

 44 43  0     1  0  0  0  0  0999 V2000
   -4.6488   -0.0794   -3.9053 C   0  0  0  0  0  0  0  0  0  0  0  0
   -4.6448   -1.2513   -4.2506 O   0  0  0  0  0  0  0  0  0  0  0  0
   -5.8904    0.7675   -4.1185 C   0  0  0  0  0  0  0  0  0  0  0  0
   -5.6504    1.6284   -4.7470 H   0  0  0  0  0  0  0  0  0  0  0  0
   -6.6702    0.1781   -4.6085 H   0  0  0  0  0  0  0  0  0  0  0  0
   -6.2684    1.1220   -3.1564 H   0  0  0  0  0  0  0  0  0  0  0  0
   -3.5340    0.4872   -3.3279 N   0  0  0  0  0  0  0  0  0  0  0  0
   -2.3529   -0.2554   -2.8707 C   0  0  2  0  0  0  0  0  0  0  0  0
   -1.6142    0.5243   -1.7600 C   0  0  0  0  0  0  0  0  0  0  0  0
   -1.9934    1.6559   -1.4735 O   0  0  0  0  0  0  0  0  0  0  0  0
   -1.4194   -0.4965   -4.0622 C   0  0  0  0  0  0  0  0  0  0  0  0
   -3.6322    1.4282   -2.9444 H   0  0  0  0  0  0  0  0  0  0  0  0
   -2.6641   -1.2177   -2.4498 H   0  0  0  0  0  0  0  0  0  0  0  0
   -1.0774    0.4573   -4.4768 H   0  0  0  0  0  0  0  0  0  0  0  0
   -0.5446   -1.0763   -3.7526 H   0  0  0  0  0  0  0  0  0  0  0  0
   -1.9388   -1.0530   -4.8483 H   0  0  0  0  0  0  0  0  0  0  0  0
   -0.5872   -0.0852   -1.0646 N   0  0  0  0  0  0  0  0  0  0  0  0
    0.1714    0.5279    0.0347 C   0  0  2  0  0  0  0  0  0  0  0  0
    1.2037    1.5910   -0.4420 C   0  0  0  0  0  0  0  0  0  0  0  0
    0.8881    2.5667   -1.1127 O   0  0  0  0  0  0  0  0  0  0  0  0
    0.8543   -0.6490    0.7692 C   0  0  0  0  0  0  0  0  0  0  0  0
   -0.1215   -1.5537    1.5150 C   0  0  0  0  0  0  0  0  0  0  0  0
   -1.1892   -1.0697    1.9582 O   0  5  0  0  0  0  0  0  0  0  0  0
    0.1839   -2.7683    1.5575 O   0  0  0  0  0  0  0  0  0  0  0  0
   -0.4906   -1.0883   -1.1894 H   0  0  0  0  0  0  0  0  0  0  0  0
   -0.5148    1.0369    0.7219 H   0  0  0  0  0  0  0  0  0  0  0  0
    1.5371   -0.2555    1.5262 H   0  0  0  0  0  0  0  0  0  0  0  0
    1.4381   -1.2448    0.0608 H   0  0  0  0  0  0  0  0  0  0  0  0
    2.5556    1.4340   -0.1792 N   0  0  0  0  0  0  0  0  0  0  0  0
    3.6243    2.2953   -0.7020 C   0  0  2  0  0  0  0  0  0  0  0  0
    4.8985    1.5020   -1.0577 C   0  0  0  0  0  0  0  0  0  0  0  0
    5.1311    0.4173   -0.5362 O   0  0  0  0  0  0  0  0  0  0  0  0
    3.9343    3.3611    0.3520 C   0  0  0  0  0  0  0  0  0  0  0  0
    2.8336    0.5592    0.2648 H   0  0  0  0  0  0  0  0  0  0  0  0
    3.2886    2.7880   -1.6201 H   0  0  0  0  0  0  0  0  0  0  0  0
    4.2740    2.8927    1.2814 H   0  0  0  0  0  0  0  0  0  0  0  0
    4.7163    4.0378   -0.0047 H   0  0  0  0  0  0  0  0  0  0  0  0
    3.0374    3.9510    0.5663 H   0  0  0  0  0  0  0  0  0  0  0  0
    5.8027    2.0194   -1.9682 N   0  0  0  0  0  0  0  0  0  0  0  0
    7.0073    1.3160   -2.3885 C   0  0  0  0  0  0  0  0  0  0  0  0
    5.5599    2.8963   -2.4191 H   0  0  0  0  0  0  0  0  0  0  0  0
    7.6553    1.1190   -1.5283 H   0  0  0  0  0  0  0  0  0  0  0  0
    6.7487    0.3631   -2.8618 H   0  0  0  0  0  0  0  0  0  0  0  0
    7.5648    1.9208   -3.1099 H   0  0  0  0  0  0  0  0  0  0  0  0
  1  2  2  0  0  0  0
  1  3  1  0  0  0  0
  1  7  1  0  0  0  0
  3  4  1  0  0  0  0
  3  5  1  0  0  0  0
  3  6  1  0  0  0  0
  7  8  1  0  0  0  0
  7 12  1  0  0  0  0
  8  9  1  0  0  0  0
  8 11  1  0  0  0  0
  8 13  1  0  0  0  0
  9 10  2  0  0  0  0
  9 17  1  0  0  0  0
 11 14  1  0  0  0  0
 11 15  1  0  0  0  0
 11 16  1  0  0  0  0
 17 18  1  0  0  0  0
 17 25  1  0  0  0  0
 18 19  1  0  0  0  0
 18 21  1  0  0  0  0
 18 26  1  0  0  0  0
 19 20  2  0  0  0  0
 19 29  1  0  0  0  0
 21 22  1  0  0  0  0
 21 27  1  0  0  0  0
 21 28  1  0  0  0  0
 22 23  1  0  0  0  0
 22 24  2  0  0  0  0
 29 30  1  0  0  0  0
 29 34  1  0  0  0  0
 30 31  1  0  0  0  0
 30 33  1  0  0  0  0
 30 35  1  0  0  0  0
 31 32  2  0  0  0  0
 31 39  1  0  0  0  0
 33 36  1  0  0  0  0
 33 37  1  0  0  0  0
 33 38  1  0  0  0  0
 39 40  1  0  0  0  0
 39 41  1  0  0  0  0
 40 42  1  0  0  0  0
 40 43  1  0  0  0  0
 40 44  1  0  0  0  0
M  CHG  1  23  -1
M  END
$$$$

  -OEChem-05262215553D

 44 43  0     1  0  0  0  0  0999 V2000
   -4.7051   -0.0781   -3.8575 C   0  0  0  0  0  0  0  0  0  0  0  0
   -4.8012   -1.2774   -4.0698 O   0  0  0  0  0  0  0  0  0  0  0  0
   -5.8846    0.8358   -4.1359 C   0  0  0  0  0  0  0  0  0  0  0  0
   -5.6105    1.5808   -4.8868 H   0  0  0  0  0  0  0  0  0  0  0  0
   -6.7341    0.2557   -4.5066 H   0  0  0  0  0  0  0  0  0  0  0  0
   -6.1820    1.3480   -3.2175 H   0  0  0  0  0  0  0  0  0  0  0  0
   -3.5340    0.4587   -3.3698 N   0  0  0  0  0  0  0  0  0  0  0  0
   -2.4023   -0.3213   -2.8534 C   0  0  2  0  0  0  0  0  0  0  0  0
   -1.5773    0.5118   -1.8463 C   0  0  0  0  0  0  0  0  0  0  0  0
   -1.8391    1.7012   -1.7048 O   0  0  0  0  0  0  0  0  0  0  0  0
   -1.5204   -0.7603   -4.0278 C   0  0  0  0  0  0  0  0  0  0  0  0
   -3.5480    1.4417   -3.0947 H   0  0  0  0  0  0  0  0  0  0  0  0
   -2.7766   -1.2053   -2.3255 H   0  0  0  0  0  0  0  0  0  0  0  0
   -1.1298    0.1143   -4.5577 H   0  0  0  0  0  0  0  0  0  0  0  0
   -0.6762   -1.3579   -3.6707 H   0  0  0  0  0  0  0  0  0  0  0  0
   -2.0962   -1.3676   -4.7331 H   0  0  0  0  0  0  0  0  0  0  0  0
   -0.5779   -0.0954   -1.1100 N   0  0  0  0  0  0  0  0  0  0  0  0
    0.1809    0.5468   -0.0267 C   0  0  2  0  0  0  0  0  0  0  0  0
    1.2455    1.5597   -0.5299 C   0  0  0  0  0  0  0  0  0  0  0  0
    0.9545    2.6954   -0.8846 O   0  0  0  0  0  0  0  0  0  0  0  0
    0.8326   -0.6046    0.7708 C   0  0  0  0  0  0  0  0  0  0  0  0
   -0.1702   -1.4540    1.5442 C   0  0  0  0  0  0  0  0  0  0  0  0
   -1.2340   -0.9288    1.9478 O   0  5  0  0  0  0  0  0  0  0  0  0
    0.1052   -2.6726    1.6395 O   0  0  0  0  0  0  0  0  0  0  0  0
   -0.5940   -1.1116   -1.1064 H   0  0  0  0  0  0  0  0  0  0  0  0
   -0.5023    1.1018    0.6269 H   0  0  0  0  0  0  0  0  0  0  0  0
    1.5209   -0.1845    1.5090 H   0  0  0  0  0  0  0  0  0  0  0  0
    1.4074   -1.2484    0.0980 H   0  0  0  0  0  0  0  0  0  0  0  0
    2.5923    1.2331   -0.5150 N   0  0  0  0  0  0  0  0  0  0  0  0
    3.6746    2.0947   -1.0080 C   0  0  2  0  0  0  0  0  0  0  0  0
    4.7473    1.3105   -1.7910 C   0  0  0  0  0  0  0  0  0  0  0  0
    4.9351    0.1173   -1.5804 O   0  0  0  0  0  0  0  0  0  0  0  0
    4.3014    2.7990    0.1974 C   0  0  0  0  0  0  0  0  0  0  0  0
    2.8235    0.2666   -0.2894 H   0  0  0  0  0  0  0  0  0  0  0  0
    3.2689    2.8488   -1.6900 H   0  0  0  0  0  0  0  0  0  0  0  0
    4.7228    2.0656    0.8923 H   0  0  0  0  0  0  0  0  0  0  0  0
    5.0992    3.4740   -0.1255 H   0  0  0  0  0  0  0  0  0  0  0  0
    3.5440    3.3858    0.7267 H   0  0  0  0  0  0  0  0  0  0  0  0
    5.5297    1.9608   -2.7288 N   0  0  0  0  0  0  0  0  0  0  0  0
    6.5424    1.2884   -3.5319 C   0  0  0  0  0  0  0  0  0  0  0  0
    5.3151    2.9352   -2.9186 H   0  0  0  0  0  0  0  0  0  0  0  0
    7.3123    0.8505   -2.8880 H   0  0  0  0  0  0  0  0  0  0  0  0
    6.0887    0.4928   -4.1320 H   0  0  0  0  0  0  0  0  0  0  0  0
    7.0224    2.0016   -4.2087 H   0  0  0  0  0  0  0  0  0  0  0  0
  1  2  2  0  0  0  0
  1  3  1  0  0  0  0
  1  7  1  0  0  0  0
  3  4  1  0  0  0  0
  3  5  1  0  0  0  0
  3  6  1  0  0  0  0
  7  8  1  0  0  0  0
  7 12  1  0  0  0  0
  8  9  1  0  0  0  0
  8 11  1  0  0  0  0
  8 13  1  0  0  0  0
  9 10  2  0  0  0  0
  9 17  1  0  0  0  0
 11 14  1  0  0  0  0
 11 15  1  0  0  0  0
 11 16  1  0  0  0  0
 17 18  1  0  0  0  0
 17 25  1  0  0  0  0
 18 19  1  0  0  0  0
 18 21  1  0  0  0  0
 18 26  1  0  0  0  0
 19 20  2  0  0  0  0
 19 29  1  0  0  0  0
 21 22  1  0  0  0  0
 21 27  1  0  0  0  0
 21 28  1  0  0  0  0
 22 23  1  0  0  0  0
 22 24  2  0  0  0  0
 29 30  1  0  0  0  0
 29 34  1  0  0  0  0
 30 31  1  0  0  0  0
 30 33  1  0  0  0  0
 30 35  1  0  0  0  0
 31 32  2  0  0  0  0
 31 39  1  0  0  0  0
 33 36  1  0  0  0  0
 33 37  1  0  0  0  0
 33 38  1  0  0  0  0
 39 40  1  0  0  0  0
 39 41  1  0  0  0  0
 40 42  1  0  0  0  0
 40 43  1  0  0  0  0
 40 44  1  0  0  0  0
M  CHG  1  23  -1
M  END
$$$$

  -OEChem-05262215553D

 44 43  0     1  0  0  0  0  0999 V2000
   -4.7361   -0.0829   -3.7927 C   0  0  0  0  0  0  0  0  0  0  0  0
   -4.9046   -1.2873   -3.9063 O   0  0  0  0  0  0  0  0  0  0  0  0
   -5.8792    0.8714   -4.0875 C   0  0  0  0  0  0  0  0  0  0  0  0
   -5.5926    1.5619   -4.8841 H   0  0  0  0  0  0  0  0  0  0  0  0
   -6.7653    0.3141   -4.4040 H   0  0  0  0  0  0  0  0  0  0  0  0
   -6.1255    1.4445   -3.1900 H   0  0  0  0  0  0  0  0  0  0  0  0
   -3.5169    0.4228   -3.3981 N   0  0  0  0  0  0  0  0  0  0  0  0
   -2.4102   -0.3770   -2.8580 C   0  0  2  0  0  0  0  0  0  0  0  0
   -1.5055    0.4874   -1.9516 C   0  0  0  0  0  0  0  0  0  0  0  0
   -1.6613    1.7034   -1.9388 O   0  0  0  0  0  0  0  0  0  0  0  0
   -1.5993   -0.9615   -4.0201 C   0  0  0  0  0  0  0  0  0  0  0  0
   -3.4656    1.4241   -3.2075 H   0  0  0  0  0  0  0  0  0  0  0  0
   -2.8101   -1.1921   -2.2450 H   0  0  0  0  0  0  0  0  0  0  0  0
   -1.1863   -0.1582   -4.6385 H   0  0  0  0  0  0  0  0  0  0  0  0
   -0.7733   -1.5717   -3.6423 H   0  0  0  0  0  0  0  0  0  0  0  0
   -2.2339   -1.5949   -4.6474 H   0  0  0  0  0  0  0  0  0  0  0  0
   -0.5361   -0.1134   -1.1725 N   0  0  0  0  0  0  0  0  0  0  0  0
    0.1813    0.5604   -0.0805 C   0  0  2  0  0  0  0  0  0  0  0  0
    1.2576    1.5588   -0.5781 C   0  0  0  0  0  0  0  0  0  0  0  0
    1.0401    2.7630   -0.6490 O   0  0  0  0  0  0  0  0  0  0  0  0
    0.8175   -0.5641    0.7641 C   0  0  0  0  0  0  0  0  0  0  0  0
   -0.2070   -1.4016    1.5218 C   0  0  0  0  0  0  0  0  0  0  0  0
   -1.2874   -0.8730    1.8740 O   0  5  0  0  0  0  0  0  0  0  0  0
    0.0627   -2.6194    1.6396 O   0  0  0  0  0  0  0  0  0  0  0  0
   -0.6313   -1.1216   -1.0775 H   0  0  0  0  0  0  0  0  0  0  0  0
   -0.5249    1.1293    0.5361 H   0  0  0  0  0  0  0  0  0  0  0  0
    1.4813   -0.1179    1.5093 H   0  0  0  0  0  0  0  0  0  0  0  0
    1.4172   -1.2209    0.1271 H   0  0  0  0  0  0  0  0  0  0  0  0
    2.5565    1.1320   -0.8004 N   0  0  0  0  0  0  0  0  0  0  0  0
    3.6335    1.9727   -1.3374 C   0  0  2  0  0  0  0  0  0  0  0  0
    4.4300    1.2660   -2.4532 C   0  0  0  0  0  0  0  0  0  0  0  0
    4.5060    0.0427   -2.4945 O   0  0  0  0  0  0  0  0  0  0  0  0
    4.5561    2.3517   -0.1773 C   0  0  0  0  0  0  0  0  0  0  0  0
    2.7049    0.1244   -0.7981 H   0  0  0  0  0  0  0  0  0  0  0  0
    3.2149    2.8862   -1.7722 H   0  0  0  0  0  0  0  0  0  0  0  0
    4.9987    1.4550    0.2682 H   0  0  0  0  0  0  0  0  0  0  0  0
    5.3622    3.0036   -0.5267 H   0  0  0  0  0  0  0  0  0  0  0  0
    3.9902    2.8822    0.5952 H   0  0  0  0  0  0  0  0  0  0  0  0
    5.0916    2.0152   -3.4098 N   0  0  0  0  0  0  0  0  0  0  0  0
    5.8333    1.4247   -4.5156 C   0  0  0  0  0  0  0  0  0  0  0  0
    4.9571    3.0217   -3.3871 H   0  0  0  0  0  0  0  0  0  0  0  0
    6.6401    0.7879   -4.1382 H   0  0  0  0  0  0  0  0  0  0  0  0
    5.1695    0.8203   -5.1423 H   0  0  0  0  0  0  0  0  0  0  0  0
    6.2755    2.2101   -5.1355 H   0  0  0  0  0  0  0  0  0  0  0  0
  1  2  2  0  0  0  0
  1  3  1  0  0  0  0
  1  7  1  0  0  0  0
  3  4  1  0  0  0  0
  3  5  1  0  0  0  0
  3  6  1  0  0  0  0
  7  8  1  0  0  0  0
  7 12  1  0  0  0  0
  8  9  1  0  0  0  0
  8 11  1  0  0  0  0
  8 13  1  0  0  0  0
  9 10  2  0  0  0  0
  9 17  1  0  0  0  0
 11 14  1  0  0  0  0
 11 15  1  0  0  0  0
 11 16  1  0  0  0  0
 17 18  1  0  0  0  0
 17 25  1  0  0  0  0
 18 19  1  0  0  0  0
 18 21  1  0  0  0  0
 18 26  1  0  0  0  0
 19 20  2  0  0  0  0
 19 29  1  0  0  0  0
 21 22  1  0  0  0  0
 21 27  1  0  0  0  0
 21 28  1  0  0  0  0
 22 23  1  0  0  0  0
 22 24  2  0  0  0  0
 29 30  1  0  0  0  0
 29 34  1  0  0  0  0
 30 31  1  0  0  0  0
 30 33  1  0  0  0  0
 30 35  1  0  0  0  0
 31 32  2  0  0  0  0
 31 39  1  0  0  0  0
 33 36  1  0  0  0  0
 33 37  1  0  0  0  0
 33 38  1  0  0  0  0
 39 40  1  0  0  0  0
 39 41  1  0  0  0  0
 40 42  1  0  0  0  0
 40 43  1  0  0  0  0
 40 44  1  0  0  0  0
M  CHG  1  23  -1
M  END
$$$$

  -OEChem-05262215553D

 44 43  0     1  0  0  0  0  0999 V2000
   -4.7541   -0.0781   -3.7665 C   0  0  0  0  0  0  0  0  0  0  0  0
   -4.9842   -1.2772   -3.7966 O   0  0  0  0  0  0  0  0  0  0  0  0
   -5.8424    0.9107   -4.1431 C   0  0  0  0  0  0  0  0  0  0  0  0
   -5.5376    1.4833   -5.0224 H   0  0  0  0  0  0  0  0  0  0  0  0
   -6.7724    0.3820   -4.3696 H   0  0  0  0  0  0  0  0  0  0  0  0
   -6.0226    1.5992   -3.3137 H   0  0  0  0  0  0  0  0  0  0  0  0
   -3.5116    0.3911   -3.4012 N   0  0  0  0  0  0  0  0  0  0  0  0
   -2.4396   -0.4271   -2.8198 C   0  0  2  0  0  0  0  0  0  0  0  0
   -1.4856    0.4475   -1.9756 C   0  0  0  0  0  0  0  0  0  0  0  0
   -1.5860    1.6689   -2.0287 O   0  0  0  0  0  0  0  0  0  0  0  0
   -1.6691   -1.1196   -3.9499 C   0  0  0  0  0  0  0  0  0  0  0  0
   -3.4110    1.3988   -3.2753 H   0  0  0  0  0  0  0  0  0  0  0  0
   -2.8730   -1.1828   -2.1549 H   0  0  0  0  0  0  0  0  0  0  0  0
   -1.2257   -0.3762   -4.6199 H   0  0  0  0  0  0  0  0  0  0  0  0
   -0.8678   -1.7438   -3.5428 H   0  0  0  0  0  0  0  0  0  0  0  0
   -2.3389   -1.7594   -4.5327 H   0  0  0  0  0  0  0  0  0  0  0  0
   -0.5212   -0.1433   -1.1835 N   0  0  0  0  0  0  0  0  0  0  0  0
    0.1786    0.5624   -0.1006 C   0  0  2  0  0  0  0  0  0  0  0  0
    1.2455    1.5551   -0.6202 C   0  0  0  0  0  0  0  0  0  0  0  0
    1.1305    2.7659   -0.4632 O   0  0  0  0  0  0  0  0  0  0  0  0
    0.8376   -0.5306    0.7647 C   0  0  0  0  0  0  0  0  0  0  0  0
   -0.1718   -1.3764    1.5329 C   0  0  0  0  0  0  0  0  0  0  0  0
   -1.2650   -0.8645    1.8706 O   0  5  0  0  0  0  0  0  0  0  0  0
    0.1183   -2.5882    1.6643 O   0  0  0  0  0  0  0  0  0  0  0  0
   -0.6482   -1.1425   -1.0390 H   0  0  0  0  0  0  0  0  0  0  0  0
   -0.5372    1.1344    0.5024 H   0  0  0  0  0  0  0  0  0  0  0  0
    1.4904   -0.0548    1.5014 H   0  0  0  0  0  0  0  0  0  0  0  0
    1.4542   -1.1848    0.1413 H   0  0  0  0  0  0  0  0  0  0  0  0
    2.4464    1.0754   -1.1147 N   0  0  0  0  0  0  0  0  0  0  0  0
    3.5027    1.9088   -1.7004 C   0  0  2  0  0  0  0  0  0  0  0  0
    3.9959    1.3586   -3.0540 C   0  0  0  0  0  0  0  0  0  0  0  0
    3.9660    0.1558   -3.2926 O   0  0  0  0  0  0  0  0  0  0  0  0
    4.6560    1.9779   -0.6977 C   0  0  0  0  0  0  0  0  0  0  0  0
    2.4853    0.0743   -1.2964 H   0  0  0  0  0  0  0  0  0  0  0  0
    3.1276    2.9213   -1.8803 H   0  0  0  0  0  0  0  0  0  0  0  0
    5.0562    0.9771   -0.5053 H   0  0  0  0  0  0  0  0  0  0  0  0
    5.4618    2.6090   -1.0839 H   0  0  0  0  0  0  0  0  0  0  0  0
    4.3063    2.4017    0.2491 H   0  0  0  0  0  0  0  0  0  0  0  0
    4.5118    2.2223   -4.0037 N   0  0  0  0  0  0  0  0  0  0  0  0
    4.9660    1.7877   -5.3175 C   0  0  0  0  0  0  0  0  0  0  0  0
    4.4593    3.2168   -3.8039 H   0  0  0  0  0  0  0  0  0  0  0  0
    5.7949    1.0788   -5.2199 H   0  0  0  0  0  0  0  0  0  0  0  0
    4.1496    1.3047   -5.8645 H   0  0  0  0  0  0  0  0  0  0  0  0
    5.3125    2.6467   -5.8997 H   0  0  0  0  0  0  0  0  0  0  0  0
  1  2  2  0  0  0  0
  1  3  1  0  0  0  0
  1  7  1  0  0  0  0
  3  4  1  0  0  0  0
  3  5  1  0  0  0  0
  3  6  1  0  0  0  0
  7  8  1  0  0  0  0
  7 12  1  0  0  0  0
  8  9  1  0  0  0  0
  8 11  1  0  0  0  0
  8 13  1  0  0  0  0
  9 10  2  0  0  0  0
  9 17  1  0  0  0  0
 11 14  1  0  0  0  0
 11 15  1  0  0  0  0
 11 16  1  0  0  0  0
 17 18  1  0  0  0  0
 17 25  1  0  0  0  0
 18 19  1  0  0  0  0
 18 21  1  0  0  0  0
 18 26  1  0  0  0  0
 19 20  2  0  0  0  0
 19 29  1  0  0  0  0
 21 22  1  0  0  0  0
 21 27  1  0  0  0  0
 21 28  1  0  0  0  0
 22 23  1  0  0  0  0
 22 24  2  0  0  0  0
 29 30  1  0  0  0  0
 29 34  1  0  0  0  0
 30 31  1  0  0  0  0
 30 33  1  0  0  0  0
 30 35  1  0  0  0  0
 31 32  2  0  0  0  0
 31 39  1  0  0  0  0
 33 36  1  0  0  0  0
 33 37  1  0  0  0  0
 33 38  1  0  0  0  0
 39 40  1  0  0  0  0
 39 41  1  0  0  0  0
 40 42  1  0  0  0  0
 40 43  1  0  0  0  0
 40 44  1  0  0  0  0
M  CHG  1  23  -1
M  END
$$$$

  -OEChem-05262215553D

 44 43  0     1  0  0  0  0  0999 V2000
   -4.7272   -0.0699   -3.7695 C   0  0  0  0  0  0  0  0  0  0  0  0
   -5.0206   -1.2543   -3.7185 O   0  0  0  0  0  0  0  0  0  0  0  0
   -5.7728    0.9527   -4.1759 C   0  0  0  0  0  0  0  0  0  0  0  0
   -5.4915    1.4167   -5.1243 H   0  0  0  0  0  0  0  0  0  0  0  0
   -6.7477    0.4711   -4.2921 H   0  0  0  0  0  0  0  0  0  0  0  0
   -5.8531    1.7275   -3.4095 H   0  0  0  0  0  0  0  0  0  0  0  0
   -3.4529    0.3536   -3.4622 N   0  0  0  0  0  0  0  0  0  0  0  0
   -2.4257   -0.4775   -2.8214 C   0  0  2  0  0  0  0  0  0  0  0  0
   -1.4400    0.4023   -2.0208 C   0  0  0  0  0  0  0  0  0  0  0  0
   -1.4975    1.6238   -2.1272 O   0  0  0  0  0  0  0  0  0  0  0  0
   -1.6822   -1.2758   -3.8979 C   0  0  0  0  0  0  0  0  0  0  0  0
   -3.3012    1.3608   -3.3997 H   0  0  0  0  0  0  0  0  0  0  0  0
   -2.8988   -1.1699   -2.1159 H   0  0  0  0  0  0  0  0  0  0  0  0
   -1.1935   -0.5995   -4.6064 H   0  0  0  0  0  0  0  0  0  0  0  0
   -0.9192   -1.9155   -3.4438 H   0  0  0  0  0  0  0  0  0  0  0  0
   -2.3810   -1.9135   -4.4482 H   0  0  0  0  0  0  0  0  0  0  0  0
   -0.4899   -0.1790   -1.2050 N   0  0  0  0  0  0  0  0  0  0  0  0
    0.1754    0.5560   -0.1196 C   0  0  2  0  0  0  0  0  0  0  0  0
    1.2385    1.5483   -0.6401 C   0  0  0  0  0  0  0  0  0  0  0  0
    1.2416    2.7252   -0.2939 O   0  0  0  0  0  0  0  0  0  0  0  0
    0.8425   -0.5069    0.7737 C   0  0  0  0  0  0  0  0  0  0  0  0
   -0.1662   -1.3608    1.5341 C   0  0  0  0  0  0  0  0  0  0  0  0
   -1.2762   -0.8647    1.8401 O   0  5  0  0  0  0  0  0  0  0  0  0
    0.1407   -2.5661    1.6852 O   0  0  0  0  0  0  0  0  0  0  0  0
   -0.6442   -1.1685   -1.0220 H   0  0  0  0  0  0  0  0  0  0  0  0
   -0.5588    1.1281    0.4604 H   0  0  0  0  0  0  0  0  0  0  0  0
    1.4708   -0.0046    1.5143 H   0  0  0  0  0  0  0  0  0  0  0  0
    1.4863   -1.1552    0.1722 H   0  0  0  0  0  0  0  0  0  0  0  0
    2.3086    1.0739   -1.3781 N   0  0  0  0  0  0  0  0  0  0  0  0
    3.3072    1.9266   -2.0316 C   0  0  2  0  0  0  0  0  0  0  0  0
    3.4786    1.5739   -3.5231 C   0  0  0  0  0  0  0  0  0  0  0  0
    3.3702    0.4145   -3.9095 O   0  0  0  0  0  0  0  0  0  0  0  0
    4.6308    1.7616   -1.2826 C   0  0  0  0  0  0  0  0  0  0  0  0
    2.2187    0.1182   -1.7169 H   0  0  0  0  0  0  0  0  0  0  0  0
    3.0012    2.9762   -1.9786 H   0  0  0  0  0  0  0  0  0  0  0  0
    4.9686    0.7214   -1.3268 H   0  0  0  0  0  0  0  0  0  0  0  0
    5.4024    2.3994   -1.7238 H   0  0  0  0  0  0  0  0  0  0  0  0
    4.5065    2.0437   -0.2322 H   0  0  0  0  0  0  0  0  0  0  0  0
    3.7918    2.5647   -4.4365 N   0  0  0  0  0  0  0  0  0  0  0  0
    3.9079    2.3215   -5.8680 C   0  0  0  0  0  0  0  0  0  0  0  0
    3.7755    3.5231   -4.1006 H   0  0  0  0  0  0  0  0  0  0  0  0
    4.6743    1.5652   -6.0671 H   0  0  0  0  0  0  0  0  0  0  0  0
    2.9532    1.9733   -6.2757 H   0  0  0  0  0  0  0  0  0  0  0  0
    4.1912    3.2430   -6.3852 H   0  0  0  0  0  0  0  0  0  0  0  0
  1  2  2  0  0  0  0
  1  3  1  0  0  0  0
  1  7  1  0  0  0  0
  3  4  1  0  0  0  0
  3  5  1  0  0  0  0
  3  6  1  0  0  0  0
  7  8  1  0  0  0  0
  7 12  1  0  0  0  0
  8  9  1  0  0  0  0
  8 11  1  0  0  0  0
  8 13  1  0  0  0  0
  9 10  2  0  0  0  0
  9 17  1  0  0  0  0
 11 14  1  0  0  0  0
 11 15  1  0  0  0  0
 11 16  1  0  0  0  0
 17 18  1  0  0  0  0
 17 25  1  0  0  0  0
 18 19  1  0  0  0  0
 18 21  1  0  0  0  0
 18 26  1  0  0  0  0
 19 20  2  0  0  0  0
 19 29  1  0  0  0  0
 21 22  1  0  0  0  0
 21 27  1  0  0  0  0
 21 28  1  0  0  0  0
 22 23  1  0  0  0  0
 22 24  2  0  0  0  0
 29 30  1  0  0  0  0
 29 34  1  0  0  0  0
 30 31  1  0  0  0  0
 30 33  1  0  0  0  0
 30 35  1  0  0  0  0
 31 32  2  0  0  0  0
 31 39  1  0  0  0  0
 33 36  1  0  0  0  0
 33 37  1  0  0  0  0
 33 38  1  0  0  0  0
 39 40  1  0  0  0  0
 39 41  1  0  0  0  0
 40 42  1  0  0  0  0
 40 43  1  0  0  0  0
 40 44  1  0  0  0  0
M  CHG  1  23  -1
M  END
$$$$

  -OEChem-05262215553D

 44 43  0     1  0  0  0  0  0999 V2000
   -4.6432   -0.0541   -3.8491 C   0  0  0  0  0  0  0  0  0  0  0  0
   -4.9063   -1.2466   -3.8647 O   0  0  0  0  0  0  0  0  0  0  0  0
   -5.6954    0.9591   -4.2621 C   0  0  0  0  0  0  0  0  0  0  0  0
   -5.3403    1.5390   -5.1174 H   0  0  0  0  0  0  0  0  0  0  0  0
   -6.6223    0.4498   -4.5403 H   0  0  0  0  0  0  0  0  0  0  0  0
   -5.9024    1.6388   -3.4316 H   0  0  0  0  0  0  0  0  0  0  0  0
   -3.3991    0.3870   -3.4554 N   0  0  0  0  0  0  0  0  0  0  0  0
   -2.3693   -0.4493   -2.8257 C   0  0  2  0  0  0  0  0  0  0  0  0
   -1.4267    0.4146   -1.9593 C   0  0  0  0  0  0  0  0  0  0  0  0
   -1.4976    1.6390   -2.0225 O   0  0  0  0  0  0  0  0  0  0  0  0
   -1.5760   -1.1758   -3.9180 C   0  0  0  0  0  0  0  0  0  0  0  0
   -3.2733    1.3937   -3.3478 H   0  0  0  0  0  0  0  0  0  0  0  0
   -2.8436   -1.1856   -2.1674 H   0  0  0  0  0  0  0  0  0  0  0  0
   -1.0825   -0.4537   -4.5764 H   0  0  0  0  0  0  0  0  0  0  0  0
   -0.8116   -1.8204   -3.4735 H   0  0  0  0  0  0  0  0  0  0  0  0
   -2.2420   -1.8005   -4.5209 H   0  0  0  0  0  0  0  0  0  0  0  0
   -0.4795   -0.1801   -1.1495 N   0  0  0  0  0  0  0  0  0  0  0  0
    0.1859    0.5426   -0.0553 C   0  0  2  0  0  0  0  0  0  0  0  0
    1.2466    1.5318   -0.5831 C   0  0  0  0  0  0  0  0  0  0  0  0
    1.4023    2.6406   -0.0816 O   0  0  0  0  0  0  0  0  0  0  0  0
    0.8668   -0.5275    0.8166 C   0  0  0  0  0  0  0  0  0  0  0  0
   -0.1308   -1.4018    1.5684 C   0  0  0  0  0  0  0  0  0  0  0  0
   -1.2434   -0.9193    1.8877 O   0  5  0  0  0  0  0  0  0  0  0  0
    0.1834   -2.6085    1.6931 O   0  0  0  0  0  0  0  0  0  0  0  0
   -0.6241   -1.1749   -0.9881 H   0  0  0  0  0  0  0  0  0  0  0  0
   -0.5438    1.1084    0.5364 H   0  0  0  0  0  0  0  0  0  0  0  0
    1.4937   -0.0313    1.5622 H   0  0  0  0  0  0  0  0  0  0  0  0
    1.5151   -1.1582    0.2011 H   0  0  0  0  0  0  0  0  0  0  0  0
    2.1184    1.1158   -1.5730 N   0  0  0  0  0  0  0  0  0  0  0  0
    2.9801    2.0211   -2.3385 C   0  0  2  0  0  0  0  0  0  0  0  0
    2.7977    1.8282   -3.8582 C   0  0  0  0  0  0  0  0  0  0  0  0
    2.4851    0.7340   -4.3180 O   0  0  0  0  0  0  0  0  0  0  0  0
    4.4285    1.7518   -1.9277 C   0  0  0  0  0  0  0  0  0  0  0  0
    1.8631    0.2392   -2.0239 H   0  0  0  0  0  0  0  0  0  0  0  0
    2.7337    3.0629   -2.1098 H   0  0  0  0  0  0  0  0  0  0  0  0
    4.7046    0.7169   -2.1541 H   0  0  0  0  0  0  0  0  0  0  0  0
    5.1089    2.4207   -2.4629 H   0  0  0  0  0  0  0  0  0  0  0  0
    4.5511    1.9183   -0.8527 H   0  0  0  0  0  0  0  0  0  0  0  0
    3.0142    2.8874   -4.7214 N   0  0  0  0  0  0  0  0  0  0  0  0
    2.7861    2.8037   -6.1578 C   0  0  0  0  0  0  0  0  0  0  0  0
    3.1729    3.7985   -4.3017 H   0  0  0  0  0  0  0  0  0  0  0  0
    3.4049    2.0155   -6.5991 H   0  0  0  0  0  0  0  0  0  0  0  0
    1.7336    2.5845   -6.3655 H   0  0  0  0  0  0  0  0  0  0  0  0
    3.0445    3.7529   -6.6365 H   0  0  0  0  0  0  0  0  0  0  0  0
  1  2  2  0  0  0  0
  1  3  1  0  0  0  0
  1  7  1  0  0  0  0
  3  4  1  0  0  0  0
  3  5  1  0  0  0  0
  3  6  1  0  0  0  0
  7  8  1  0  0  0  0
  7 12  1  0  0  0  0
  8  9  1  0  0  0  0
  8 11  1  0  0  0  0
  8 13  1  0  0  0  0
  9 10  2  0  0  0  0
  9 17  1  0  0  0  0
 11 14  1  0  0  0  0
 11 15  1  0  0  0  0
 11 16  1  0  0  0  0
 17 18  1  0  0  0  0
 17 25  1  0  0  0  0
 18 19  1  0  0  0  0
 18 21  1  0  0  0  0
 18 26  1  0  0  0  0
 19 20  2  0  0  0  0
 19 29  1  0  0  0  0
 21 22  1  0  0  0  0
 21 27  1  0  0  0  0
 21 28  1  0  0  0  0
 22 23  1  0  0  0  0
 22 24  2  0  0  0  0
 29 30  1  0  0  0  0
 29 34  1  0  0  0  0
 30 31  1  0  0  0  0
 30 33  1  0  0  0  0
 30 35  1  0  0  0  0
 31 32  2  0  0  0  0
 31 39  1  0  0  0  0
 33 36  1  0  0  0  0
 33 37  1  0  0  0  0
 33 38  1  0  0  0  0
 39 40  1  0  0  0  0
 39 41  1  0  0  0  0
 40 42  1  0  0  0  0
 40 43  1  0  0  0  0
 40 44  1  0  0  0  0
M  CHG  1  23  -1
M  END
$$$$

  -OEChem-05262215553D

 44 43  0     1  0  0  0  0  0999 V2000
   -4.6935   -0.0218   -3.8079 C   0  0  0  0  0  0  0  0  0  0  0  0
   -4.9760   -1.2099   -3.8009 O   0  0  0  0  0  0  0  0  0  0  0  0
   -5.7297    0.9997   -4.2405 C   0  0  0  0  0  0  0  0  0  0  0  0
   -5.3713    1.5440   -5.1175 H   0  0  0  0  0  0  0  0  0  0  0  0
   -6.6696    0.5014   -4.4935 H   0  0  0  0  0  0  0  0  0  0  0  0
   -5.9138    1.7094   -3.4300 H   0  0  0  0  0  0  0  0  0  0  0  0
   -3.4395    0.4057   -3.4307 N   0  0  0  0  0  0  0  0  0  0  0  0
   -2.4143   -0.4410   -2.8074 C   0  0  2  0  0  0  0  0  0  0  0  0
   -1.4615    0.4068   -1.9371 C   0  0  0  0  0  0  0  0  0  0  0  0
   -1.5265    1.6328   -1.9803 O   0  0  0  0  0  0  0  0  0  0  0  0
   -1.6292   -1.1637   -3.9082 C   0  0  0  0  0  0  0  0  0  0  0  0
   -3.2959    1.4115   -3.3409 H   0  0  0  0  0  0  0  0  0  0  0  0
   -2.8913   -1.1792   -2.1531 H   0  0  0  0  0  0  0  0  0  0  0  0
   -1.1284   -0.4395   -4.5594 H   0  0  0  0  0  0  0  0  0  0  0  0
   -0.8710   -1.8213   -3.4722 H   0  0  0  0  0  0  0  0  0  0  0  0
   -2.3027   -1.7745   -4.5172 H   0  0  0  0  0  0  0  0  0  0  0  0
   -0.4954   -0.2022   -1.1603 N   0  0  0  0  0  0  0  0  0  0  0  0
    0.1988    0.5064   -0.0733 C   0  0  2  0  0  0  0  0  0  0  0  0
    1.2494    1.5029   -0.6097 C   0  0  0  0  0  0  0  0  0  0  0  0
    1.5774    2.4994    0.0267 O   0  0  0  0  0  0  0  0  0  0  0  0
    0.9017   -0.5808    0.7582 C   0  0  0  0  0  0  0  0  0  0  0  0
   -0.0768   -1.4680    1.5198 C   0  0  0  0  0  0  0  0  0  0  0  0
   -1.1790   -0.9886    1.8780 O   0  5  0  0  0  0  0  0  0  0  0  0
    0.2349   -2.6786    1.6090 O   0  0  0  0  0  0  0  0  0  0  0  0
   -0.6397   -1.1986   -1.0059 H   0  0  0  0  0  0  0  0  0  0  0  0
   -0.5137    1.0630    0.5472 H   0  0  0  0  0  0  0  0  0  0  0  0
    1.5505   -0.1006    1.4956 H   0  0  0  0  0  0  0  0  0  0  0  0
    1.5313   -1.1990    0.1114 H   0  0  0  0  0  0  0  0  0  0  0  0
    1.8831    1.2358   -1.8094 N   0  0  0  0  0  0  0  0  0  0  0  0
    2.6389    2.2318   -2.5723 C   0  0  2  0  0  0  0  0  0  0  0  0
    2.2648    2.1981   -4.0689 C   0  0  0  0  0  0  0  0  0  0  0  0
    1.8750    1.1598   -4.5954 O   0  0  0  0  0  0  0  0  0  0  0  0
    4.1299    1.9500   -2.3800 C   0  0  0  0  0  0  0  0  0  0  0  0
    1.4725    0.4718   -2.3433 H   0  0  0  0  0  0  0  0  0  0  0  0
    2.4129    3.2369   -2.2016 H   0  0  0  0  0  0  0  0  0  0  0  0
    4.3811    0.9510   -2.7501 H   0  0  0  0  0  0  0  0  0  0  0  0
    4.7317    2.6859   -2.9213 H   0  0  0  0  0  0  0  0  0  0  0  0
    4.3884    2.0034   -1.3175 H   0  0  0  0  0  0  0  0  0  0  0  0
    2.3890    3.3411   -4.8387 N   0  0  0  0  0  0  0  0  0  0  0  0
    1.9791    3.4096   -6.2349 C   0  0  0  0  0  0  0  0  0  0  0  0
    2.6175    4.2023   -4.3510 H   0  0  0  0  0  0  0  0  0  0  0  0
    2.5095    2.6568   -6.8275 H   0  0  0  0  0  0  0  0  0  0  0  0
    0.9016    3.2368   -6.3258 H   0  0  0  0  0  0  0  0  0  0  0  0
    2.2090    4.3967   -6.6470 H   0  0  0  0  0  0  0  0  0  0  0  0
  1  2  2  0  0  0  0
  1  3  1  0  0  0  0
  1  7  1  0  0  0  0
  3  4  1  0  0  0  0
  3  5  1  0  0  0  0
  3  6  1  0  0  0  0
  7  8  1  0  0  0  0
  7 12  1  0  0  0  0
  8  9  1  0  0  0  0
  8 11  1  0  0  0  0
  8 13  1  0  0  0  0
  9 10  2  0  0  0  0
  9 17  1  0  0  0  0
 11 14  1  0  0  0  0
 11 15  1  0  0  0  0
 11 16  1  0  0  0  0
 17 18  1  0  0  0  0
 17 25  1  0  0  0  0
 18 19  1  0  0  0  0
 18 21  1  0  0  0  0
 18 26  1  0  0  0  0
 19 20  2  0  0  0  0
 19 29  1  0  0  0  0
 21 22  1  0  0  0  0
 21 27  1  0  0  0  0
 21 28  1  0  0  0  0
 22 23  1  0  0  0  0
 22 24  2  0  0  0  0
 29 30  1  0  0  0  0
 29 34  1  0  0  0  0
 30 31  1  0  0  0  0
 30 33  1  0  0  0  0
 30 35  1  0  0  0  0
 31 32  2  0  0  0  0
 31 39  1  0  0  0  0
 33 36  1  0  0  0  0
 33 37  1  0  0  0  0
 33 38  1  0  0  0  0
 39 40  1  0  0  0  0
 39 41  1  0  0  0  0
 40 42  1  0  0  0  0
 40 43  1  0  0  0  0
 40 44  1  0  0  0  0
M  CHG  1  23  -1
M  END
$$$$

  -OEChem-05262215553D

 44 43  0     1  0  0  0  0  0999 V2000
   -4.8279   -0.1249   -3.6935 C   0  0  0  0  0  0  0  0  0  0  0  0
   -5.0282   -1.3280   -3.7581 O   0  0  0  0  0  0  0  0  0  0  0  0
   -5.9512    0.8472   -4.0048 C   0  0  0  0  0  0  0  0  0  0  0  0
   -5.6734    1.4783   -4.8522 H   0  0  0  0  0  0  0  0  0  0  0  0
   -6.8651    0.3013   -4.2554 H   0  0  0  0  0  0  0  0  0  0  0  0
   -6.1455    1.4809   -3.1357 H   0  0  0  0  0  0  0  0  0  0  0  0
   -3.5896    0.3639   -3.3397 N   0  0  0  0  0  0  0  0  0  0  0  0
   -2.4774   -0.4490   -2.8327 C   0  0  2  0  0  0  0  0  0  0  0  0
   -1.5367    0.4016   -1.9528 C   0  0  0  0  0  0  0  0  0  0  0  0
   -1.6298    1.6263   -1.9683 O   0  0  0  0  0  0  0  0  0  0  0  0
   -1.7044   -1.0309   -4.0217 C   0  0  0  0  0  0  0  0  0  0  0  0
   -3.5033    1.3707   -3.2016 H   0  0  0  0  0  0  0  0  0  0  0  0
   -2.8675   -1.2646   -2.2136 H   0  0  0  0  0  0  0  0  0  0  0  0
   -1.2919   -0.2266   -4.6398 H   0  0  0  0  0  0  0  0  0  0  0  0
   -0.8797   -1.6599   -3.6729 H   0  0  0  0  0  0  0  0  0  0  0  0
   -2.3645   -1.6443   -4.6425 H   0  0  0  0  0  0  0  0  0  0  0  0
   -0.5431   -0.1983   -1.2037 N   0  0  0  0  0  0  0  0  0  0  0  0
    0.1750    0.5142   -0.1333 C   0  0  2  0  0  0  0  0  0  0  0  0
    1.2081    1.5276   -0.6800 C   0  0  0  0  0  0  0  0  0  0  0  0
    1.7206    2.3770    0.0424 O   0  0  0  0  0  0  0  0  0  0  0  0
    0.8948   -0.5768    0.6799 C   0  0  0  0  0  0  0  0  0  0  0  0
   -0.0684   -1.4637    1.4620 C   0  0  0  0  0  0  0  0  0  0  0  0
   -1.1615   -0.9831    1.8467 O   0  5  0  0  0  0  0  0  0  0  0  0
    0.2413   -2.6758    1.5387 O   0  0  0  0  0  0  0  0  0  0  0  0
   -0.6546   -1.2009   -1.0636 H   0  0  0  0  0  0  0  0  0  0  0  0
   -0.5277    1.0632    0.5046 H   0  0  0  0  0  0  0  0  0  0  0  0
    1.5607   -0.1012    1.4051 H   0  0  0  0  0  0  0  0  0  0  0  0
    1.5089   -1.1939    0.0174 H   0  0  0  0  0  0  0  0  0  0  0  0
    1.5954    1.4651   -2.0060 N   0  0  0  0  0  0  0  0  0  0  0  0
    2.3434    2.5151   -2.7003 C   0  0  2  0  0  0  0  0  0  0  0  0
    1.8597    2.6826   -4.1560 C   0  0  0  0  0  0  0  0  0  0  0  0
    1.3804    1.7347   -4.7714 O   0  0  0  0  0  0  0  0  0  0  0  0
    3.8302    2.1542   -2.6634 C   0  0  0  0  0  0  0  0  0  0  0  0
    1.0323    0.8457   -2.5861 H   0  0  0  0  0  0  0  0  0  0  0  0
    2.1919    3.4724   -2.1913 H   0  0  0  0  0  0  0  0  0  0  0  0
    4.0042    1.1974   -3.1661 H   0  0  0  0  0  0  0  0  0  0  0  0
    4.4239    2.9253   -3.1629 H   0  0  0  0  0  0  0  0  0  0  0  0
    4.1718    2.0703   -1.6268 H   0  0  0  0  0  0  0  0  0  0  0  0
    1.9818    3.9064   -4.7901 N   0  0  0  0  0  0  0  0  0  0  0  0
    1.4751    4.1621   -6.1318 C   0  0  0  0  0  0  0  0  0  0  0  0
    2.2961    4.6897   -4.2253 H   0  0  0  0  0  0  0  0  0  0  0  0
    1.9495    3.4906   -6.8552 H   0  0  0  0  0  0  0  0  0  0  0  0
    0.3912    4.0102   -6.1667 H   0  0  0  0  0  0  0  0  0  0  0  0
    1.6903    5.1937   -6.4259 H   0  0  0  0  0  0  0  0  0  0  0  0
  1  2  2  0  0  0  0
  1  3  1  0  0  0  0
  1  7  1  0  0  0  0
  3  4  1  0  0  0  0
  3  5  1  0  0  0  0
  3  6  1  0  0  0  0
  7  8  1  0  0  0  0
  7 12  1  0  0  0  0
  8  9  1  0  0  0  0
  8 11  1  0  0  0  0
  8 13  1  0  0  0  0
  9 10  2  0  0  0  0
  9 17  1  0  0  0  0
 11 14  1  0  0  0  0
 11 15  1  0  0  0  0
 11 16  1  0  0  0  0
 17 18  1  0  0  0  0
 17 25  1  0  0  0  0
 18 19  1  0  0  0  0
 18 21  1  0  0  0  0
 18 26  1  0  0  0  0
 19 20  2  0  0  0  0
 19 29  1  0  0  0  0
 21 22  1  0  0  0  0
 21 27  1  0  0  0  0
 21 28  1  0  0  0  0
 22 23  1  0  0  0  0
 22 24  2  0  0  0  0
 29 30  1  0  0  0  0
 29 34  1  0  0  0  0
 30 31  1  0  0  0  0
 30 33  1  0  0  0  0
 30 35  1  0  0  0  0
 31 32  2  0  0  0  0
 31 39  1  0  0  0  0
 33 36  1  0  0  0  0
 33 37  1  0  0  0  0
 33 38  1  0  0  0  0
 39 40  1  0  0  0  0
 39 41  1  0  0  0  0
 40 42  1  0  0  0  0
 40 43  1  0  0  0  0
 40 44  1  0  0  0  0
M  CHG  1  23  -1
M  END
$$$$

  -OEChem-05262215553D

 44 43  0     1  0  0  0  0  0999 V2000
   -4.9231   -0.2315   -3.6372 C   0  0  0  0  0  0  0  0  0  0  0  0
   -5.1379   -1.4337   -3.6325 O   0  0  0  0  0  0  0  0  0  0  0  0
   -6.0351    0.7334   -4.0061 C   0  0  0  0  0  0  0  0  0  0  0  0
   -5.7286    1.3484   -4.8557 H   0  0  0  0  0  0  0  0  0  0  0  0
   -6.9396    0.1817   -4.2773 H   0  0  0  0  0  0  0  0  0  0  0  0
   -6.2596    1.3832   -3.1566 H   0  0  0  0  0  0  0  0  0  0  0  0
   -3.6790    0.2616   -3.3103 N   0  0  0  0  0  0  0  0  0  0  0  0
   -2.5749   -0.5354   -2.7609 C   0  0  2  0  0  0  0  0  0  0  0  0
   -1.6110    0.3551   -1.9469 C   0  0  0  0  0  0  0  0  0  0  0  0
   -1.7294    1.5770   -1.9825 O   0  0  0  0  0  0  0  0  0  0  0  0
   -1.8281   -1.2117   -3.9166 C   0  0  0  0  0  0  0  0  0  0  0  0
   -3.5813    1.2736   -3.2282 H   0  0  0  0  0  0  0  0  0  0  0  0
   -2.9723   -1.3001   -2.0842 H   0  0  0  0  0  0  0  0  0  0  0  0
   -1.4137   -0.4594   -4.5959 H   0  0  0  0  0  0  0  0  0  0  0  0
   -1.0081   -1.8283   -3.5361 H   0  0  0  0  0  0  0  0  0  0  0  0
   -2.5061   -1.8570   -4.4833 H   0  0  0  0  0  0  0  0  0  0  0  0
   -0.5650   -0.2008   -1.2375 N   0  0  0  0  0  0  0  0  0  0  0  0
    0.1698    0.5326   -0.1918 C   0  0  2  0  0  0  0  0  0  0  0  0
    1.1514    1.5962   -0.7477 C   0  0  0  0  0  0  0  0  0  0  0  0
    1.8585    2.2657    0.0000 O   0  0  0  0  0  0  0  0  0  0  0  0
    0.9369   -0.5514    0.5899 C   0  0  0  0  0  0  0  0  0  0  0  0
    0.0146   -1.4600    1.3967 C   0  0  0  0  0  0  0  0  0  0  0  0
   -1.0733   -0.9998    1.8197 O   0  5  0  0  0  0  0  0  0  0  0  0
    0.3421   -2.6687    1.4483 O   0  0  0  0  0  0  0  0  0  0  0  0
   -0.6323   -1.2069   -1.0939 H   0  0  0  0  0  0  0  0  0  0  0  0
   -0.5298    1.0533    0.4723 H   0  0  0  0  0  0  0  0  0  0  0  0
    1.6163   -0.0716    1.2991 H   0  0  0  0  0  0  0  0  0  0  0  0
    1.5417   -1.1516   -0.0963 H   0  0  0  0  0  0  0  0  0  0  0  0
    1.2792    1.7900   -2.1113 N   0  0  0  0  0  0  0  0  0  0  0  0
    2.0515    2.8716   -2.7285 C   0  0  2  0  0  0  0  0  0  0  0  0
    1.4352    3.3307   -4.0665 C   0  0  0  0  0  0  0  0  0  0  0  0
    0.8269    2.5440   -4.7853 O   0  0  0  0  0  0  0  0  0  0  0  0
    3.4862    2.3827   -2.9452 C   0  0  0  0  0  0  0  0  0  0  0  0
    0.5314    1.3796   -2.6704 H   0  0  0  0  0  0  0  0  0  0  0  0
    2.0628    3.7377   -2.0589 H   0  0  0  0  0  0  0  0  0  0  0  0
    3.4968    1.5133   -3.6103 H   0  0  0  0  0  0  0  0  0  0  0  0
    4.0964    3.1730   -3.3920 H   0  0  0  0  0  0  0  0  0  0  0  0
    3.9367    2.0957   -1.9898 H   0  0  0  0  0  0  0  0  0  0  0  0
    1.5932    4.6406   -4.4838 N   0  0  0  0  0  0  0  0  0  0  0  0
    0.9857    5.1703   -5.6970 C   0  0  0  0  0  0  0  0  0  0  0  0
    2.0335    5.2834   -3.8324 H   0  0  0  0  0  0  0  0  0  0  0  0
    1.3253    4.6079   -6.5730 H   0  0  0  0  0  0  0  0  0  0  0  0
   -0.1057    5.1061   -5.6367 H   0  0  0  0  0  0  0  0  0  0  0  0
    1.2651    6.2195   -5.8312 H   0  0  0  0  0  0  0  0  0  0  0  0
  1  2  2  0  0  0  0
  1  3  1  0  0  0  0
  1  7  1  0  0  0  0
  3  4  1  0  0  0  0
  3  5  1  0  0  0  0
  3  6  1  0  0  0  0
  7  8  1  0  0  0  0
  7 12  1  0  0  0  0
  8  9  1  0  0  0  0
  8 11  1  0  0  0  0
  8 13  1  0  0  0  0
  9 10  2  0  0  0  0
  9 17  1  0  0  0  0
 11 14  1  0  0  0  0
 11 15  1  0  0  0  0
 11 16  1  0  0  0  0
 17 18  1  0  0  0  0
 17 25  1  0  0  0  0
 18 19  1  0  0  0  0
 18 21  1  0  0  0  0
 18 26  1  0  0  0  0
 19 20  2  0  0  0  0
 19 29  1  0  0  0  0
 21 22  1  0  0  0  0
 21 27  1  0  0  0  0
 21 28  1  0  0  0  0
 22 23  1  0  0  0  0
 22 24  2  0  0  0  0
 29 30  1  0  0  0  0
 29 34  1  0  0  0  0
 30 31  1  0  0  0  0
 30 33  1  0  0  0  0
 30 35  1  0  0  0  0
 31 32  2  0  0  0  0
 31 39  1  0  0  0  0
 33 36  1  0  0  0  0
 33 37  1  0  0  0  0
 33 38  1  0  0  0  0
 39 40  1  0  0  0  0
 39 41  1  0  0  0  0
 40 42  1  0  0  0  0
 40 43  1  0  0  0  0
 40 44  1  0  0  0  0
M  CHG  1  23  -1
M  END
$$$$

  -OEChem-05262215553D

 44 43  0     1  0  0  0  0  0999 V2000
   -4.9342   -0.3191   -3.6656 C   0  0  0  0  0  0  0  0  0  0  0  0
   -5.1350   -1.5237   -3.6529 O   0  0  0  0  0  0  0  0  0  0  0  0
   -6.0431    0.6283   -4.0852 C   0  0  0  0  0  0  0  0  0  0  0  0
   -5.7129    1.2360   -4.9312 H   0  0  0  0  0  0  0  0  0  0  0  0
   -6.9315    0.0635   -4.3813 H   0  0  0  0  0  0  0  0  0  0  0  0
   -6.3038    1.2869   -3.2530 H   0  0  0  0  0  0  0  0  0  0  0  0
   -3.7085    0.1947   -3.3031 N   0  0  0  0  0  0  0  0  0  0  0  0
   -2.6062   -0.5794   -2.7182 C   0  0  2  0  0  0  0  0  0  0  0  0
   -1.6659    0.3381   -1.9052 C   0  0  0  0  0  0  0  0  0  0  0  0
   -1.8467    1.5531   -1.9033 O   0  0  0  0  0  0  0  0  0  0  0  0
   -1.8349   -1.2752   -3.8466 C   0  0  0  0  0  0  0  0  0  0  0  0
   -3.6295    1.2088   -3.2265 H   0  0  0  0  0  0  0  0  0  0  0  0
   -3.0082   -1.3334   -2.0319 H   0  0  0  0  0  0  0  0  0  0  0  0
   -1.4111   -0.5351   -4.5332 H   0  0  0  0  0  0  0  0  0  0  0  0
   -1.0201   -1.8809   -3.4391 H   0  0  0  0  0  0  0  0  0  0  0  0
   -2.4998   -1.9353   -4.4119 H   0  0  0  0  0  0  0  0  0  0  0  0
   -0.5749   -0.1811   -1.2379 N   0  0  0  0  0  0  0  0  0  0  0  0
    0.1726    0.5516   -0.2005 C   0  0  2  0  0  0  0  0  0  0  0  0
    1.1029    1.6671   -0.7526 C   0  0  0  0  0  0  0  0  0  0  0  0
    2.0007    2.1502   -0.0684 O   0  0  0  0  0  0  0  0  0  0  0  0
    0.9766   -0.5382    0.5387 C   0  0  0  0  0  0  0  0  0  0  0  0
    0.0892   -1.4762    1.3505 C   0  0  0  0  0  0  0  0  0  0  0  0
   -0.9933   -1.0407    1.8122 O   0  5  0  0  0  0  0  0  0  0  0  0
    0.4350   -2.6808    1.3682 O   0  0  0  0  0  0  0  0  0  0  0  0
   -0.5807   -1.1938   -1.1318 H   0  0  0  0  0  0  0  0  0  0  0  0
   -0.5241    1.0359    0.4929 H   0  0  0  0  0  0  0  0  0  0  0  0
    1.6668   -0.0666    1.2430 H   0  0  0  0  0  0  0  0  0  0  0  0
    1.5728   -1.1141   -0.1754 H   0  0  0  0  0  0  0  0  0  0  0  0
    0.9712    2.1270   -2.0508 N   0  0  0  0  0  0  0  0  0  0  0  0
    1.7521    3.2254   -2.6304 C   0  0  2  0  0  0  0  0  0  0  0  0
    0.9938    3.9642   -3.7531 C   0  0  0  0  0  0  0  0  0  0  0  0
    0.2126    3.3718   -4.4898 O   0  0  0  0  0  0  0  0  0  0  0  0
    3.0665    2.6561   -3.1736 C   0  0  0  0  0  0  0  0  0  0  0  0
    0.0774    1.8988   -2.4941 H   0  0  0  0  0  0  0  0  0  0  0  0
    1.9741    3.9595   -1.8493 H   0  0  0  0  0  0  0  0  0  0  0  0
    2.8670    1.9148   -3.9541 H   0  0  0  0  0  0  0  0  0  0  0  0
    3.6830    3.4540   -3.5976 H   0  0  0  0  0  0  0  0  0  0  0  0
    3.6322    2.1725   -2.3710 H   0  0  0  0  0  0  0  0  0  0  0  0
    1.2312    5.3102   -3.9704 N   0  0  0  0  0  0  0  0  0  0  0  0
    0.5475    6.0895   -4.9938 C   0  0  0  0  0  0  0  0  0  0  0  0
    1.8479    5.7846   -3.3179 H   0  0  0  0  0  0  0  0  0  0  0  0
    0.7507    5.6772   -5.9875 H   0  0  0  0  0  0  0  0  0  0  0  0
   -0.5338    6.0819   -4.8219 H   0  0  0  0  0  0  0  0  0  0  0  0
    0.8944    7.1268   -4.9728 H   0  0  0  0  0  0  0  0  0  0  0  0
  1  2  2  0  0  0  0
  1  3  1  0  0  0  0
  1  7  1  0  0  0  0
  3  4  1  0  0  0  0
  3  5  1  0  0  0  0
  3  6  1  0  0  0  0
  7  8  1  0  0  0  0
  7 12  1  0  0  0  0
  8  9  1  0  0  0  0
  8 11  1  0  0  0  0
  8 13  1  0  0  0  0
  9 10  2  0  0  0  0
  9 17  1  0  0  0  0
 11 14  1  0  0  0  0
 11 15  1  0  0  0  0
 11 16  1  0  0  0  0
 17 18  1  0  0  0  0
 17 25  1  0  0  0  0
 18 19  1  0  0  0  0
 18 21  1  0  0  0  0
 18 26  1  0  0  0  0
 19 20  2  0  0  0  0
 19 29  1  0  0  0  0
 21 22  1  0  0  0  0
 21 27  1  0  0  0  0
 21 28  1  0  0  0  0
 22 23  1  0  0  0  0
 22 24  2  0  0  0  0
 29 30  1  0  0  0  0
 29 34  1  0  0  0  0
 30 31  1  0  0  0  0
 30 33  1  0  0  0  0
 30 35  1  0  0  0  0
 31 32  2  0  0  0  0
 31 39  1  0  0  0  0
 33 36  1  0  0  0  0
 33 37  1  0  0  0  0
 33 38  1  0  0  0  0
 39 40  1  0  0  0  0
 39 41  1  0  0  0  0
 40 42  1  0  0  0  0
 40 43  1  0  0  0  0
 40 44  1  0  0  0  0
M  CHG  1  23  -1
M  END
$$$$

  -OEChem-05262215553D

 44 43  0     1  0  0  0  0  0999 V2000
   -4.8979   -0.3481   -3.7201 C   0  0  0  0  0  0  0  0  0  0  0  0
   -5.0514   -1.5594   -3.7493 O   0  0  0  0  0  0  0  0  0  0  0  0
   -6.0421    0.5683   -4.1137 C   0  0  0  0  0  0  0  0  0  0  0  0
   -5.7429    1.1988   -4.9545 H   0  0  0  0  0  0  0  0  0  0  0  0
   -6.9148   -0.0214   -4.4076 H   0  0  0  0  0  0  0  0  0  0  0  0
   -6.3153    1.2058   -3.2693 H   0  0  0  0  0  0  0  0  0  0  0  0
   -3.6940    0.1987   -3.3330 N   0  0  0  0  0  0  0  0  0  0  0  0
   -2.5745   -0.5551   -2.7531 C   0  0  2  0  0  0  0  0  0  0  0  0
   -1.6850    0.3643   -1.8868 C   0  0  0  0  0  0  0  0  0  0  0  0
   -1.9303    1.5666   -1.8241 O   0  0  0  0  0  0  0  0  0  0  0  0
   -1.7561   -1.1790   -3.8899 C   0  0  0  0  0  0  0  0  0  0  0  0
   -3.6563    1.2115   -3.2157 H   0  0  0  0  0  0  0  0  0  0  0  0
   -2.9607   -1.3485   -2.1034 H   0  0  0  0  0  0  0  0  0  0  0  0
   -1.3386   -0.3974   -4.5329 H   0  0  0  0  0  0  0  0  0  0  0  0
   -0.9332   -1.7778   -3.4878 H   0  0  0  0  0  0  0  0  0  0  0  0
   -2.3871   -1.8326   -4.4998 H   0  0  0  0  0  0  0  0  0  0  0  0
   -0.5832   -0.1405   -1.2249 N   0  0  0  0  0  0  0  0  0  0  0  0
    0.1637    0.5850   -0.1825 C   0  0  2  0  0  0  0  0  0  0  0  0
    1.0814    1.7173   -0.7276 C   0  0  0  0  0  0  0  0  0  0  0  0
    2.1226    2.0367   -0.1600 O   0  0  0  0  0  0  0  0  0  0  0  0
    0.9718   -0.5136    0.5411 C   0  0  0  0  0  0  0  0  0  0  0  0
    0.0920   -1.4654    1.3450 C   0  0  0  0  0  0  0  0  0  0  0  0
   -0.9898   -1.0399    1.8176 O   0  5  0  0  0  0  0  0  0  0  0  0
    0.4423   -2.6688    1.3454 O   0  0  0  0  0  0  0  0  0  0  0  0
   -0.5468   -1.1557   -1.1592 H   0  0  0  0  0  0  0  0  0  0  0  0
   -0.5335    1.0549    0.5203 H   0  0  0  0  0  0  0  0  0  0  0  0
    1.6618   -0.0504    1.2510 H   0  0  0  0  0  0  0  0  0  0  0  0
    1.5684   -1.0775   -0.1821 H   0  0  0  0  0  0  0  0  0  0  0  0
    0.7605    2.4062   -1.8838 N   0  0  0  0  0  0  0  0  0  0  0  0
    1.5432    3.5092   -2.4534 C   0  0  2  0  0  0  0  0  0  0  0  0
    0.6887    4.4777   -3.2969 C   0  0  0  0  0  0  0  0  0  0  0  0
   -0.1929    4.0640   -4.0417 O   0  0  0  0  0  0  0  0  0  0  0  0
    2.6644    2.9198   -3.3152 C   0  0  0  0  0  0  0  0  0  0  0  0
   -0.1908    2.2556   -2.2353 H   0  0  0  0  0  0  0  0  0  0  0  0
    1.9863    4.0907   -1.6388 H   0  0  0  0  0  0  0  0  0  0  0  0
    2.2440    2.3267   -4.1337 H   0  0  0  0  0  0  0  0  0  0  0  0
    3.2787    3.7187   -3.7412 H   0  0  0  0  0  0  0  0  0  0  0  0
    3.3091    2.2730   -2.7116 H   0  0  0  0  0  0  0  0  0  0  0  0
    0.9619    5.8341   -3.2693 N   0  0  0  0  0  0  0  0  0  0  0  0
    0.2024    6.8190   -4.0271 C   0  0  0  0  0  0  0  0  0  0  0  0
    1.6622    6.1531   -2.6066 H   0  0  0  0  0  0  0  0  0  0  0  0
    0.2298    6.5839   -5.0960 H   0  0  0  0  0  0  0  0  0  0  0  0
   -0.8407    6.8349   -3.6952 H   0  0  0  0  0  0  0  0  0  0  0  0
    0.6287    7.8161   -3.8830 H   0  0  0  0  0  0  0  0  0  0  0  0
  1  2  2  0  0  0  0
  1  3  1  0  0  0  0
  1  7  1  0  0  0  0
  3  4  1  0  0  0  0
  3  5  1  0  0  0  0
  3  6  1  0  0  0  0
  7  8  1  0  0  0  0
  7 12  1  0  0  0  0
  8  9  1  0  0  0  0
  8 11  1  0  0  0  0
  8 13  1  0  0  0  0
  9 10  2  0  0  0  0
  9 17  1  0  0  0  0
 11 14  1  0  0  0  0
 11 15  1  0  0  0  0
 11 16  1  0  0  0  0
 17 18  1  0  0  0  0
 17 25  1  0  0  0  0
 18 19  1  0  0  0  0
 18 21  1  0  0  0  0
 18 26  1  0  0  0  0
 19 20  2  0  0  0  0
 19 29  1  0  0  0  0
 21 22  1  0  0  0  0
 21 27  1  0  0  0  0
 21 28  1  0  0  0  0
 22 23  1  0  0  0  0
 22 24  2  0  0  0  0
 29 30  1  0  0  0  0
 29 34  1  0  0  0  0
 30 31  1  0  0  0  0
 30 33  1  0  0  0  0
 30 35  1  0  0  0  0
 31 32  2  0  0  0  0
 31 39  1  0  0  0  0
 33 36  1  0  0  0  0
 33 37  1  0  0  0  0
 33 38  1  0  0  0  0
 39 40  1  0  0  0  0
 39 41  1  0  0  0  0
 40 42  1  0  0  0  0
 40 43  1  0  0  0  0
 40 44  1  0  0  0  0
M  CHG  1  23  -1
M  END
$$$$

  -OEChem-05262215553D

 44 43  0     1  0  0  0  0  0999 V2000
   -4.6548   -1.1310   -3.9986 C   0  0  0  0  0  0  0  0  0  0  0  0
   -4.6352   -2.3278   -3.7581 O   0  0  0  0  0  0  0  0  0  0  0  0
   -5.8590   -0.5168   -4.6889 C   0  0  0  0  0  0  0  0  0  0  0  0
   -5.5592   -0.0819   -5.6453 H   0  0  0  0  0  0  0  0  0  0  0  0
   -6.6207   -1.2801   -4.8707 H   0  0  0  0  0  0  0  0  0  0  0  0
   -6.2894    0.2664   -4.0598 H   0  0  0  0  0  0  0  0  0  0  0  0
   -3.5902   -0.3272   -3.6523 N   0  0  0  0  0  0  0  0  0  0  0  0
   -2.4561   -0.7448   -2.8163 C   0  0  2  0  0  0  0  0  0  0  0  0
   -1.7741    0.4780   -2.1636 C   0  0  0  0  0  0  0  0  0  0  0  0
   -2.0835    1.6112   -2.5279 O   0  0  0  0  0  0  0  0  0  0  0  0
   -1.4490   -1.5114   -3.6822 C   0  0  0  0  0  0  0  0  0  0  0  0
   -3.7051    0.6780   -3.7788 H   0  0  0  0  0  0  0  0  0  0  0  0
   -2.8145   -1.3951   -2.0103 H   0  0  0  0  0  0  0  0  0  0  0  0
   -1.0734   -0.8723   -4.4876 H   0  0  0  0  0  0  0  0  0  0  0  0
   -0.6004   -1.8475   -3.0783 H   0  0  0  0  0  0  0  0  0  0  0  0
   -1.9201   -2.3928   -4.1279 H   0  0  0  0  0  0  0  0  0  0  0  0
   -0.7892    0.3020   -1.2113 N   0  0  0  0  0  0  0  0  0  0  0  0
   -0.2554    1.3618   -0.3368 C   0  0  2  0  0  0  0  0  0  0  0  0
    0.7075    2.3508   -1.0535 C   0  0  0  0  0  0  0  0  0  0  0  0
    1.7802    2.7007   -0.5681 O   0  0  0  0  0  0  0  0  0  0  0  0
    0.4250    0.6065    0.8246 C   0  0  0  0  0  0  0  0  0  0  0  0
   -0.5747   -0.1101    1.7267 C   0  0  0  0  0  0  0  0  0  0  0  0
   -1.7310    0.3634    1.8441 O   0  5  0  0  0  0  0  0  0  0  0  0
   -0.2158   -1.2263    2.1684 O   0  0  0  0  0  0  0  0  0  0  0  0
   -0.7168   -0.6428   -0.8381 H   0  0  0  0  0  0  0  0  0  0  0  0
   -1.0805    1.9663    0.0572 H   0  0  0  0  0  0  0  0  0  0  0  0
    0.9638    1.3189    1.4550 H   0  0  0  0  0  0  0  0  0  0  0  0
    1.1540   -0.1086    0.4322 H   0  0  0  0  0  0  0  0  0  0  0  0
    0.3899    2.8680   -2.2944 N   0  0  0  0  0  0  0  0  0  0  0  0
    1.2756    3.6795   -3.1419 C   0  0  2  0  0  0  0  0  0  0  0  0
    1.3486    5.1663   -2.7111 C   0  0  0  0  0  0  0  0  0  0  0  0
    1.2082    6.0826   -3.5160 O   0  0  0  0  0  0  0  0  0  0  0  0
    0.7879    3.4992   -4.5843 C   0  0  0  0  0  0  0  0  0  0  0  0
   -0.5397    2.6191   -2.6445 H   0  0  0  0  0  0  0  0  0  0  0  0
    2.2932    3.2805   -3.0791 H   0  0  0  0  0  0  0  0  0  0  0  0
   -0.2228    3.9038   -4.6994 H   0  0  0  0  0  0  0  0  0  0  0  0
    1.4536    4.0199   -5.2798 H   0  0  0  0  0  0  0  0  0  0  0  0
    0.7720    2.4379   -4.8508 H   0  0  0  0  0  0  0  0  0  0  0  0
    1.6417    5.4725   -1.3970 N   0  0  0  0  0  0  0  0  0  0  0  0
    1.7725    6.8230   -0.8730 C   0  0  0  0  0  0  0  0  0  0  0  0
    1.7849    4.6716   -0.7744 H   0  0  0  0  0  0  0  0  0  0  0  0
    2.5690    7.3611   -1.3968 H   0  0  0  0  0  0  0  0  0  0  0  0
    0.8335    7.3723   -0.9941 H   0  0  0  0  0  0  0  0  0  0  0  0
    2.0193    6.7891    0.1925 H   0  0  0  0  0  0  0  0  0  0  0  0
  1  2  2  0  0  0  0
  1  3  1  0  0  0  0
  1  7  1  0  0  0  0
  3  4  1  0  0  0  0
  3  5  1  0  0  0  0
  3  6  1  0  0  0  0
  7  8  1  0  0  0  0
  7 12  1  0  0  0  0
  8  9  1  0  0  0  0
  8 11  1  0  0  0  0
  8 13  1  0  0  0  0
  9 10  2  0  0  0  0
  9 17  1  0  0  0  0
 11 14  1  0  0  0  0
 11 15  1  0  0  0  0
 11 16  1  0  0  0  0
 17 18  1  0  0  0  0
 17 25  1  0  0  0  0
 18 19  1  0  0  0  0
 18 21  1  0  0  0  0
 18 26  1  0  0  0  0
 19 20  2  0  0  0  0
 19 29  1  0  0  0  0
 21 22  1  0  0  0  0
 21 27  1  0  0  0  0
 21 28  1  0  0  0  0
 22 23  1  0  0  0  0
 22 24  2  0  0  0  0
 29 30  1  0  0  0  0
 29 34  1  0  0  0  0
 30 31  1  0  0  0  0
 30 33  1  0  0  0  0
 30 35  1  0  0  0  0
 31 32  2  0  0  0  0
 31 39  1  0  0  0  0
 33 36  1  0  0  0  0
 33 37  1  0  0  0  0
 33 38  1  0  0  0  0
 39 40  1  0  0  0  0
 39 41  1  0  0  0  0
 40 42  1  0  0  0  0
 40 43  1  0  0  0  0
 40 44  1  0  0  0  0
M  CHG  1  23  -1
M  END
$$$$

  -OEChem-05262215553D

 44 43  0     1  0  0  0  0  0999 V2000
   -4.6055   -1.0882   -3.9645 C   0  0  0  0  0  0  0  0  0  0  0  0
   -4.5504   -2.2897   -3.7547 O   0  0  0  0  0  0  0  0  0  0  0  0
   -5.8405   -0.4888   -4.6111 C   0  0  0  0  0  0  0  0  0  0  0  0
   -5.5807   -0.0577   -5.5810 H   0  0  0  0  0  0  0  0  0  0  0  0
   -6.6017   -1.2601   -4.7587 H   0  0  0  0  0  0  0  0  0  0  0  0
   -6.2533    0.2945   -3.9704 H   0  0  0  0  0  0  0  0  0  0  0  0
   -3.5516   -0.2667   -3.6275 N   0  0  0  0  0  0  0  0  0  0  0  0
   -2.3870   -0.6792   -2.8331 C   0  0  2  0  0  0  0  0  0  0  0  0
   -1.7278    0.5366   -2.1460 C   0  0  0  0  0  0  0  0  0  0  0  0
   -2.0599    1.6751   -2.4734 O   0  0  0  0  0  0  0  0  0  0  0  0
   -1.3776   -1.3810   -3.7490 C   0  0  0  0  0  0  0  0  0  0  0  0
   -3.6960    0.7382   -3.7202 H   0  0  0  0  0  0  0  0  0  0  0  0
   -2.7077   -1.3712   -2.0457 H   0  0  0  0  0  0  0  0  0  0  0  0
   -1.0433   -0.7028   -4.5403 H   0  0  0  0  0  0  0  0  0  0  0  0
   -0.5040   -1.7085   -3.1772 H   0  0  0  0  0  0  0  0  0  0  0  0
   -1.8315   -2.2618   -4.2135 H   0  0  0  0  0  0  0  0  0  0  0  0
   -0.7582    0.3470   -1.1808 N   0  0  0  0  0  0  0  0  0  0  0  0
   -0.2711    1.3913   -0.2648 C   0  0  2  0  0  0  0  0  0  0  0  0
    0.6787    2.4189   -0.9386 C   0  0  0  0  0  0  0  0  0  0  0  0
    1.8254    2.6203   -0.5471 O   0  0  0  0  0  0  0  0  0  0  0  0
    0.4037    0.6239    0.8907 C   0  0  0  0  0  0  0  0  0  0  0  0
   -0.5962   -0.1425    1.7510 C   0  0  0  0  0  0  0  0  0  0  0  0
   -1.7667    0.2985    1.8534 O   0  5  0  0  0  0  0  0  0  0  0  0
   -0.2169   -1.2575    2.1782 O   0  0  0  0  0  0  0  0  0  0  0  0
   -0.6745   -0.6068   -0.8340 H   0  0  0  0  0  0  0  0  0  0  0  0
   -1.1176    1.9650    0.1296 H   0  0  0  0  0  0  0  0  0  0  0  0
    0.9109    1.3345    1.5482 H   0  0  0  0  0  0  0  0  0  0  0  0
    1.1586   -0.0623    0.4954 H   0  0  0  0  0  0  0  0  0  0  0  0
    0.2358    3.1815   -2.0018 N   0  0  0  0  0  0  0  0  0  0  0  0
    1.0734    4.0778   -2.8128 C   0  0  2  0  0  0  0  0  0  0  0  0
    1.3208    5.4548   -2.1452 C   0  0  0  0  0  0  0  0  0  0  0  0
    1.1669    6.5091   -2.7553 O   0  0  0  0  0  0  0  0  0  0  0  0
    0.3989    4.1944   -4.1851 C   0  0  0  0  0  0  0  0  0  0  0  0
   -0.7040    2.9480   -2.3370 H   0  0  0  0  0  0  0  0  0  0  0  0
    2.0542    3.6143   -2.9597 H   0  0  0  0  0  0  0  0  0  0  0  0
   -0.5818    4.6717   -4.0899 H   0  0  0  0  0  0  0  0  0  0  0  0
    1.0146    4.7950   -4.8619 H   0  0  0  0  0  0  0  0  0  0  0  0
    0.2643    3.2033   -4.6287 H   0  0  0  0  0  0  0  0  0  0  0  0
    1.7748    5.5003   -0.8418 N   0  0  0  0  0  0  0  0  0  0  0  0
    2.0438    6.7239   -0.1027 C   0  0  0  0  0  0  0  0  0  0  0  0
    1.9207    4.5930   -0.3889 H   0  0  0  0  0  0  0  0  0  0  0  0
    2.8265    7.3066   -0.5984 H   0  0  0  0  0  0  0  0  0  0  0  0
    1.1380    7.3345   -0.0319 H   0  0  0  0  0  0  0  0  0  0  0  0
    2.3790    6.4836    0.9105 H   0  0  0  0  0  0  0  0  0  0  0  0
  1  2  2  0  0  0  0
  1  3  1  0  0  0  0
  1  7  1  0  0  0  0
  3  4  1  0  0  0  0
  3  5  1  0  0  0  0
  3  6  1  0  0  0  0
  7  8  1  0  0  0  0
  7 12  1  0  0  0  0
  8  9  1  0  0  0  0
  8 11  1  0  0  0  0
  8 13  1  0  0  0  0
  9 10  2  0  0  0  0
  9 17  1  0  0  0  0
 11 14  1  0  0  0  0
 11 15  1  0  0  0  0
 11 16  1  0  0  0  0
 17 18  1  0  0  0  0
 17 25  1  0  0  0  0
 18 19  1  0  0  0  0
 18 21  1  0  0  0  0
 18 26  1  0  0  0  0
 19 20  2  0  0  0  0
 19 29  1  0  0  0  0
 21 22  1  0  0  0  0
 21 27  1  0  0  0  0
 21 28  1  0  0  0  0
 22 23  1  0  0  0  0
 22 24  2  0  0  0  0
 29 30  1  0  0  0  0
 29 34  1  0  0  0  0
 30 31  1  0  0  0  0
 30 33  1  0  0  0  0
 30 35  1  0  0  0  0
 31 32  2  0  0  0  0
 31 39  1  0  0  0  0
 33 36  1  0  0  0  0
 33 37  1  0  0  0  0
 33 38  1  0  0  0  0
 39 40  1  0  0  0  0
 39 41  1  0  0  0  0
 40 42  1  0  0  0  0
 40 43  1  0  0  0  0
 40 44  1  0  0  0  0
M  CHG  1  23  -1
M  END
$$$$

  -OEChem-05262215553D

 44 43  0     1  0  0  0  0  0999 V2000
   -4.4644   -1.0077   -4.0344 C   0  0  0  0  0  0  0  0  0  0  0  0
   -4.3256   -2.2181   -3.9540 O   0  0  0  0  0  0  0  0  0  0  0  0
   -5.7385   -0.4299   -4.6230 C   0  0  0  0  0  0  0  0  0  0  0  0
   -5.5024    0.1736   -5.5029 H   0  0  0  0  0  0  0  0  0  0  0  0
   -6.4172   -1.2351   -4.9179 H   0  0  0  0  0  0  0  0  0  0  0  0
   -6.2394    0.1980   -3.8820 H   0  0  0  0  0  0  0  0  0  0  0  0
   -3.4710   -0.1568   -3.5998 N   0  0  0  0  0  0  0  0  0  0  0  0
   -2.2754   -0.5727   -2.8545 C   0  0  2  0  0  0  0  0  0  0  0  0
   -1.6924    0.6040   -2.0428 C   0  0  0  0  0  0  0  0  0  0  0  0
   -2.0713    1.7525   -2.2736 O   0  0  0  0  0  0  0  0  0  0  0  0
   -1.2268   -1.1000   -3.8409 C   0  0  0  0  0  0  0  0  0  0  0  0
   -3.6799    0.8411   -3.5917 H   0  0  0  0  0  0  0  0  0  0  0  0
   -2.5432   -1.3651   -2.1463 H   0  0  0  0  0  0  0  0  0  0  0  0
   -0.9451   -0.3178   -4.5529 H   0  0  0  0  0  0  0  0  0  0  0  0
   -0.3287   -1.4261   -3.3076 H   0  0  0  0  0  0  0  0  0  0  0  0
   -1.6218   -1.9541   -4.3995 H   0  0  0  0  0  0  0  0  0  0  0  0
   -0.7324    0.3760   -1.0763 N   0  0  0  0  0  0  0  0  0  0  0  0
   -0.3054    1.3828   -0.0947 C   0  0  2  0  0  0  0  0  0  0  0  0
    0.6116    2.4644   -0.7206 C   0  0  0  0  0  0  0  0  0  0  0  0
    1.8189    2.5255   -0.5018 O   0  0  0  0  0  0  0  0  0  0  0  0
    0.3879    0.5951    1.0349 C   0  0  0  0  0  0  0  0  0  0  0  0
   -0.5871   -0.2584    1.8401 C   0  0  0  0  0  0  0  0  0  0  0  0
   -1.7791    0.1215    1.9411 O   0  5  0  0  0  0  0  0  0  0  0  0
   -0.1587   -1.3671    2.2361 O   0  0  0  0  0  0  0  0  0  0  0  0
   -0.6072   -0.5953   -0.7977 H   0  0  0  0  0  0  0  0  0  0  0  0
   -1.1779    1.9035    0.3167 H   0  0  0  0  0  0  0  0  0  0  0  0
    0.8540    1.2988    1.7294 H   0  0  0  0  0  0  0  0  0  0  0  0
    1.1785   -0.0379    0.6206 H   0  0  0  0  0  0  0  0  0  0  0  0
    0.0541    3.4380   -1.5263 N   0  0  0  0  0  0  0  0  0  0  0  0
    0.8293    4.3722   -2.3566 C   0  0  2  0  0  0  0  0  0  0  0  0
    1.3498    5.6047   -1.5741 C   0  0  0  0  0  0  0  0  0  0  0  0
    1.2181    6.7482   -2.0014 O   0  0  0  0  0  0  0  0  0  0  0  0
   -0.0668    4.7510   -3.5417 C   0  0  0  0  0  0  0  0  0  0  0  0
   -0.9082    3.2320   -1.8116 H   0  0  0  0  0  0  0  0  0  0  0  0
    1.7086    3.8549   -2.7536 H   0  0  0  0  0  0  0  0  0  0  0  0
   -0.9537    5.2903   -3.1941 H   0  0  0  0  0  0  0  0  0  0  0  0
    0.4776    5.3909   -4.2431 H   0  0  0  0  0  0  0  0  0  0  0  0
   -0.3910    3.8519   -4.0754 H   0  0  0  0  0  0  0  0  0  0  0  0
    2.0375    5.4102   -0.3927 N   0  0  0  0  0  0  0  0  0  0  0  0
    2.6122    6.4756    0.4136 C   0  0  0  0  0  0  0  0  0  0  0  0
    2.1569    4.4348   -0.1026 H   0  0  0  0  0  0  0  0  0  0  0  0
    3.3598    7.0308   -0.1621 H   0  0  0  0  0  0  0  0  0  0  0  0
    1.8317    7.1684    0.7442 H   0  0  0  0  0  0  0  0  0  0  0  0
    3.0984    6.0545    1.2987 H   0  0  0  0  0  0  0  0  0  0  0  0
  1  2  2  0  0  0  0
  1  3  1  0  0  0  0
  1  7  1  0  0  0  0
  3  4  1  0  0  0  0
  3  5  1  0  0  0  0
  3  6  1  0  0  0  0
  7  8  1  0  0  0  0
  7 12  1  0  0  0  0
  8  9  1  0  0  0  0
  8 11  1  0  0  0  0
  8 13  1  0  0  0  0
  9 10  2  0  0  0  0
  9 17  1  0  0  0  0
 11 14  1  0  0  0  0
 11 15  1  0  0  0  0
 11 16  1  0  0  0  0
 17 18  1  0  0  0  0
 17 25  1  0  0  0  0
 18 19  1  0  0  0  0
 18 21  1  0  0  0  0
 18 26  1  0  0  0  0
 19 20  2  0  0  0  0
 19 29  1  0  0  0  0
 21 22  1  0  0  0  0
 21 27  1  0  0  0  0
 21 28  1  0  0  0  0
 22 23  1  0  0  0  0
 22 24  2  0  0  0  0
 29 30  1  0  0  0  0
 29 34  1  0  0  0  0
 30 31  1  0  0  0  0
 30 33  1  0  0  0  0
 30 35  1  0  0  0  0
 31 32  2  0  0  0  0
 31 39  1  0  0  0  0
 33 36  1  0  0  0  0
 33 37  1  0  0  0  0
 33 38  1  0  0  0  0
 39 40  1  0  0  0  0
 39 41  1  0  0  0  0
 40 42  1  0  0  0  0
 40 43  1  0  0  0  0
 40 44  1  0  0  0  0
M  CHG  1  23  -1
M  END
$$$$

  -OEChem-05262215553D

 44 43  0     1  0  0  0  0  0999 V2000
   -4.6667   -0.1798   -3.8312 C   0  0  0  0  0  0  0  0  0  0  0  0
   -4.7117   -1.3741   -4.0818 O   0  0  0  0  0  0  0  0  0  0  0  0
   -5.8908    0.6882   -4.0588 C   0  0  0  0  0  0  0  0  0  0  0  0
   -5.6526    1.4923   -4.7594 H   0  0  0  0  0  0  0  0  0  0  0  0
   -6.7076    0.0898   -4.4722 H   0  0  0  0  0  0  0  0  0  0  0  0
   -6.2178    1.1247   -3.1116 H   0  0  0  0  0  0  0  0  0  0  0  0
   -3.5129    0.3940   -3.3441 N   0  0  0  0  0  0  0  0  0  0  0  0
   -2.3314   -0.3486   -2.8862 C   0  0  2  0  0  0  0  0  0  0  0  0
   -1.5106    0.4965   -1.8874 C   0  0  0  0  0  0  0  0  0  0  0  0
   -1.7975    1.6800   -1.7076 O   0  0  0  0  0  0  0  0  0  0  0  0
   -1.4722   -0.7258   -4.0989 C   0  0  0  0  0  0  0  0  0  0  0  0
   -3.5681    1.3668   -3.0424 H   0  0  0  0  0  0  0  0  0  0  0  0
   -2.6483   -1.2597   -2.3665 H   0  0  0  0  0  0  0  0  0  0  0  0
   -1.1446    0.1739   -4.6291 H   0  0  0  0  0  0  0  0  0  0  0  0
   -0.5873   -1.2869   -3.7830 H   0  0  0  0  0  0  0  0  0  0  0  0
   -2.0432   -1.3509   -4.7922 H   0  0  0  0  0  0  0  0  0  0  0  0
   -0.4519   -0.0610   -1.1992 N   0  0  0  0  0  0  0  0  0  0  0  0
    0.1828    0.6002   -0.0534 C   0  0  2  0  0  0  0  0  0  0  0  0
    1.0856    1.7755   -0.4997 C   0  0  0  0  0  0  0  0  0  0  0  0
    2.2819    1.6302   -0.7394 O   0  0  0  0  0  0  0  0  0  0  0  0
    0.9756   -0.4924    0.6902 C   0  0  0  0  0  0  0  0  0  0  0  0
    0.0748   -1.5184    1.3707 C   0  0  0  0  0  0  0  0  0  0  0  0
   -1.0625   -1.1581    1.7605 O   0  5  0  0  0  0  0  0  0  0  0  0
    0.4902   -2.7006    1.3884 O   0  0  0  0  0  0  0  0  0  0  0  0
   -0.3786   -1.0751   -1.2309 H   0  0  0  0  0  0  0  0  0  0  0  0
   -0.5792    1.0091    0.6203 H   0  0  0  0  0  0  0  0  0  0  0  0
    1.5843   -0.0234    1.4673 H   0  0  0  0  0  0  0  0  0  0  0  0
    1.6528   -1.0006   -0.0027 H   0  0  0  0  0  0  0  0  0  0  0  0
    0.5415    3.0413   -0.6112 N   0  0  0  0  0  0  0  0  0  0  0  0
    1.2589    4.1957   -1.1649 C   0  0  2  0  0  0  0  0  0  0  0  0
    0.7902    5.5418   -0.5749 C   0  0  0  0  0  0  0  0  0  0  0  0
   -0.3981    5.7790   -0.3905 O   0  0  0  0  0  0  0  0  0  0  0  0
    1.0704    4.1866   -2.6844 C   0  0  0  0  0  0  0  0  0  0  0  0
   -0.4814    3.0646   -0.6358 H   0  0  0  0  0  0  0  0  0  0  0  0
    2.3262    4.1024   -0.9403 H   0  0  0  0  0  0  0  0  0  0  0  0
    0.0077    4.2633   -2.9370 H   0  0  0  0  0  0  0  0  0  0  0  0
    1.6009    5.0276   -3.1402 H   0  0  0  0  0  0  0  0  0  0  0  0
    1.4632    3.2574   -3.1091 H   0  0  0  0  0  0  0  0  0  0  0  0
    1.7204    6.5311   -0.3070 N   0  0  0  0  0  0  0  0  0  0  0  0
    1.3729    7.8194    0.2767 C   0  0  0  0  0  0  0  0  0  0  0  0
    2.7002    6.2846   -0.4093 H   0  0  0  0  0  0  0  0  0  0  0  0
    0.6325    8.3343   -0.3443 H   0  0  0  0  0  0  0  0  0  0  0  0
    0.9592    7.6839    1.2814 H   0  0  0  0  0  0  0  0  0  0  0  0
    2.2621    8.4528    0.3487 H   0  0  0  0  0  0  0  0  0  0  0  0
  1  2  2  0  0  0  0
  1  3  1  0  0  0  0
  1  7  1  0  0  0  0
  3  4  1  0  0  0  0
  3  5  1  0  0  0  0
  3  6  1  0  0  0  0
  7  8  1  0  0  0  0
  7 12  1  0  0  0  0
  8  9  1  0  0  0  0
  8 11  1  0  0  0  0
  8 13  1  0  0  0  0
  9 10  2  0  0  0  0
  9 17  1  0  0  0  0
 11 14  1  0  0  0  0
 11 15  1  0  0  0  0
 11 16  1  0  0  0  0
 17 18  1  0  0  0  0
 17 25  1  0  0  0  0
 18 19  1  0  0  0  0
 18 21  1  0  0  0  0
 18 26  1  0  0  0  0
 19 20  2  0  0  0  0
 19 29  1  0  0  0  0
 21 22  1  0  0  0  0
 21 27  1  0  0  0  0
 21 28  1  0  0  0  0
 22 23  1  0  0  0  0
 22 24  2  0  0  0  0
 29 30  1  0  0  0  0
 29 34  1  0  0  0  0
 30 31  1  0  0  0  0
 30 33  1  0  0  0  0
 30 35  1  0  0  0  0
 31 32  2  0  0  0  0
 31 39  1  0  0  0  0
 33 36  1  0  0  0  0
 33 37  1  0  0  0  0
 33 38  1  0  0  0  0
 39 40  1  0  0  0  0
 39 41  1  0  0  0  0
 40 42  1  0  0  0  0
 40 43  1  0  0  0  0
 40 44  1  0  0  0  0
M  CHG  1  23  -1
M  END
$$$$

  -OEChem-05262215553D

 44 43  0     1  0  0  0  0  0999 V2000
   -4.6481   -0.1068   -3.8404 C   0  0  0  0  0  0  0  0  0  0  0  0
   -4.6906   -1.2929   -4.1281 O   0  0  0  0  0  0  0  0  0  0  0  0
   -5.8656    0.7705   -4.0669 C   0  0  0  0  0  0  0  0  0  0  0  0
   -5.6231    1.5697   -4.7715 H   0  0  0  0  0  0  0  0  0  0  0  0
   -6.6886    0.1775   -4.4750 H   0  0  0  0  0  0  0  0  0  0  0  0
   -6.1858    1.2133   -3.1205 H   0  0  0  0  0  0  0  0  0  0  0  0
   -3.5016    0.4502   -3.3174 N   0  0  0  0  0  0  0  0  0  0  0  0
   -2.3193   -0.3048   -2.8820 C   0  0  2  0  0  0  0  0  0  0  0  0
   -1.5029    0.5045   -1.8502 C   0  0  0  0  0  0  0  0  0  0  0  0
   -1.7807    1.6852   -1.6409 O   0  0  0  0  0  0  0  0  0  0  0  0
   -1.4538   -0.6294   -4.1050 C   0  0  0  0  0  0  0  0  0  0  0  0
   -3.5565    1.4147   -2.9904 H   0  0  0  0  0  0  0  0  0  0  0  0
   -2.6349   -1.2367   -2.3998 H   0  0  0  0  0  0  0  0  0  0  0  0
   -1.1235    0.2928   -4.5931 H   0  0  0  0  0  0  0  0  0  0  0  0
   -0.5701   -1.2029   -3.8086 H   0  0  0  0  0  0  0  0  0  0  0  0
   -2.0210   -1.2231   -4.8283 H   0  0  0  0  0  0  0  0  0  0  0  0
   -0.4493   -0.0783   -1.1761 N   0  0  0  0  0  0  0  0  0  0  0  0
    0.2018    0.5591   -0.0276 C   0  0  2  0  0  0  0  0  0  0  0  0
    1.1176    1.7243   -0.4693 C   0  0  0  0  0  0  0  0  0  0  0  0
    2.2160    1.5272   -0.9840 O   0  0  0  0  0  0  0  0  0  0  0  0
    0.9973   -0.5427    0.6988 C   0  0  0  0  0  0  0  0  0  0  0  0
    0.1001   -1.5723    1.3784 C   0  0  0  0  0  0  0  0  0  0  0  0
   -1.0326   -1.2118    1.7819 O   0  5  0  0  0  0  0  0  0  0  0  0
    0.5186   -2.7535    1.3969 O   0  0  0  0  0  0  0  0  0  0  0  0
   -0.3729   -1.0903   -1.2381 H   0  0  0  0  0  0  0  0  0  0  0  0
   -0.5512    0.9665    0.6568 H   0  0  0  0  0  0  0  0  0  0  0  0
    1.6171   -0.0834    1.4728 H   0  0  0  0  0  0  0  0  0  0  0  0
    1.6645   -1.0477   -0.0064 H   0  0  0  0  0  0  0  0  0  0  0  0
    0.7066    3.0299   -0.2726 N   0  0  0  0  0  0  0  0  0  0  0  0
    1.4235    4.2030   -0.7863 C   0  0  2  0  0  0  0  0  0  0  0  0
    1.2026    5.4685    0.0680 C   0  0  0  0  0  0  0  0  0  0  0  0
    0.1128    5.7121    0.5739 O   0  0  0  0  0  0  0  0  0  0  0  0
    0.9643    4.4478   -2.2268 C   0  0  0  0  0  0  0  0  0  0  0  0
   -0.2739    3.1506   -0.0188 H   0  0  0  0  0  0  0  0  0  0  0  0
    2.4989    3.9989   -0.7856 H   0  0  0  0  0  0  0  0  0  0  0  0
   -0.1125    4.6440   -2.2555 H   0  0  0  0  0  0  0  0  0  0  0  0
    1.4887    5.3069   -2.6553 H   0  0  0  0  0  0  0  0  0  0  0  0
    1.1740    3.5698   -2.8460 H   0  0  0  0  0  0  0  0  0  0  0  0
    2.2363    6.3747    0.2307 N   0  0  0  0  0  0  0  0  0  0  0  0
    2.1275    7.5746    1.0495 C   0  0  0  0  0  0  0  0  0  0  0  0
    3.1428    6.1163   -0.1471 H   0  0  0  0  0  0  0  0  0  0  0  0
    1.3153    8.2133    0.6873 H   0  0  0  0  0  0  0  0  0  0  0  0
    1.9293    7.3086    2.0929 H   0  0  0  0  0  0  0  0  0  0  0  0
    3.0598    8.1458    1.0075 H   0  0  0  0  0  0  0  0  0  0  0  0
  1  2  2  0  0  0  0
  1  3  1  0  0  0  0
  1  7  1  0  0  0  0
  3  4  1  0  0  0  0
  3  5  1  0  0  0  0
  3  6  1  0  0  0  0
  7  8  1  0  0  0  0
  7 12  1  0  0  0  0
  8  9  1  0  0  0  0
  8 11  1  0  0  0  0
  8 13  1  0  0  0  0
  9 10  2  0  0  0  0
  9 17  1  0  0  0  0
 11 14  1  0  0  0  0
 11 15  1  0  0  0  0
 11 16  1  0  0  0  0
 17 18  1  0  0  0  0
 17 25  1  0  0  0  0
 18 19  1  0  0  0  0
 18 21  1  0  0  0  0
 18 26  1  0  0  0  0
 19 20  2  0  0  0  0
 19 29  1  0  0  0  0
 21 22  1  0  0  0  0
 21 27  1  0  0  0  0
 21 28  1  0  0  0  0
 22 23  1  0  0  0  0
 22 24  2  0  0  0  0
 29 30  1  0  0  0  0
 29 34  1  0  0  0  0
 30 31  1  0  0  0  0
 30 33  1  0  0  0  0
 30 35  1  0  0  0  0
 31 32  2  0  0  0  0
 31 39  1  0  0  0  0
 33 36  1  0  0  0  0
 33 37  1  0  0  0  0
 33 38  1  0  0  0  0
 39 40  1  0  0  0  0
 39 41  1  0  0  0  0
 40 42  1  0  0  0  0
 40 43  1  0  0  0  0
 40 44  1  0  0  0  0
M  CHG  1  23  -1
M  END
$$$$

  -OEChem-05262215553D

 44 43  0     1  0  0  0  0  0999 V2000
   -4.6586   -0.0670   -3.8384 C   0  0  0  0  0  0  0  0  0  0  0  0
   -4.7282   -1.2565   -4.1067 O   0  0  0  0  0  0  0  0  0  0  0  0
   -5.8662    0.8275   -4.0514 C   0  0  0  0  0  0  0  0  0  0  0  0
   -5.6306    1.6047   -4.7825 H   0  0  0  0  0  0  0  0  0  0  0  0
   -6.7117    0.2398   -4.4198 H   0  0  0  0  0  0  0  0  0  0  0  0
   -6.1504    1.2993   -3.1074 H   0  0  0  0  0  0  0  0  0  0  0  0
   -3.4936    0.4757   -3.3419 N   0  0  0  0  0  0  0  0  0  0  0  0
   -2.3323   -0.3001   -2.8875 C   0  0  2  0  0  0  0  0  0  0  0  0
   -1.5073    0.5058   -1.8602 C   0  0  0  0  0  0  0  0  0  0  0  0
   -1.7809    1.6863   -1.6460 O   0  0  0  0  0  0  0  0  0  0  0  0
   -1.4659   -0.6672   -4.0979 C   0  0  0  0  0  0  0  0  0  0  0  0
   -3.5285    1.4436   -3.0217 H   0  0  0  0  0  0  0  0  0  0  0  0
   -2.6727   -1.2161   -2.3920 H   0  0  0  0  0  0  0  0  0  0  0  0
   -1.1050    0.2376   -4.5973 H   0  0  0  0  0  0  0  0  0  0  0  0
   -0.6014   -1.2610   -3.7853 H   0  0  0  0  0  0  0  0  0  0  0  0
   -2.0434   -1.2566   -4.8165 H   0  0  0  0  0  0  0  0  0  0  0  0
   -0.4581   -0.0860   -1.1884 N   0  0  0  0  0  0  0  0  0  0  0  0
    0.2079    0.5443   -0.0453 C   0  0  2  0  0  0  0  0  0  0  0  0
    1.1376    1.6966   -0.4868 C   0  0  0  0  0  0  0  0  0  0  0  0
    2.0887    1.5017   -1.2404 O   0  0  0  0  0  0  0  0  0  0  0  0
    1.0082   -0.5560    0.6753 C   0  0  0  0  0  0  0  0  0  0  0  0
    0.1169   -1.5835    1.3653 C   0  0  0  0  0  0  0  0  0  0  0  0
   -1.0115   -1.2218    1.7788 O   0  5  0  0  0  0  0  0  0  0  0  0
    0.5398   -2.7630    1.3912 O   0  0  0  0  0  0  0  0  0  0  0  0
   -0.3735   -1.0956   -1.2675 H   0  0  0  0  0  0  0  0  0  0  0  0
   -0.5392    0.9570    0.6421 H   0  0  0  0  0  0  0  0  0  0  0  0
    1.6351   -0.0964    1.4436 H   0  0  0  0  0  0  0  0  0  0  0  0
    1.6682   -1.0621   -0.0358 H   0  0  0  0  0  0  0  0  0  0  0  0
    0.9173    2.9812   -0.0244 N   0  0  0  0  0  0  0  0  0  0  0  0
    1.6787    4.1589   -0.4542 C   0  0  2  0  0  0  0  0  0  0  0  0
    1.7375    5.2597    0.6244 C   0  0  0  0  0  0  0  0  0  0  0  0
    0.8108    5.4303    1.4090 O   0  0  0  0  0  0  0  0  0  0  0  0
    1.0362    4.7029   -1.7332 C   0  0  0  0  0  0  0  0  0  0  0  0
    0.0739    3.1344    0.5257 H   0  0  0  0  0  0  0  0  0  0  0  0
    2.7103    3.8632   -0.6699 H   0  0  0  0  0  0  0  0  0  0  0  0
   -0.0012    4.9968   -1.5433 H   0  0  0  0  0  0  0  0  0  0  0  0
    1.5869    5.5751   -2.0974 H   0  0  0  0  0  0  0  0  0  0  0  0
    1.0423    3.9374   -2.5156 H   0  0  0  0  0  0  0  0  0  0  0  0
    2.8383    6.0956    0.6901 N   0  0  0  0  0  0  0  0  0  0  0  0
    2.9966    7.1360    1.6971 C   0  0  0  0  0  0  0  0  0  0  0  0
    3.6101    5.8972    0.0605 H   0  0  0  0  0  0  0  0  0  0  0  0
    2.1773    7.8594    1.6322 H   0  0  0  0  0  0  0  0  0  0  0  0
    3.0044    6.6996    2.7014 H   0  0  0  0  0  0  0  0  0  0  0  0
    3.9402    7.6679    1.5431 H   0  0  0  0  0  0  0  0  0  0  0  0
  1  2  2  0  0  0  0
  1  3  1  0  0  0  0
  1  7  1  0  0  0  0
  3  4  1  0  0  0  0
  3  5  1  0  0  0  0
  3  6  1  0  0  0  0
  7  8  1  0  0  0  0
  7 12  1  0  0  0  0
  8  9  1  0  0  0  0
  8 11  1  0  0  0  0
  8 13  1  0  0  0  0
  9 10  2  0  0  0  0
  9 17  1  0  0  0  0
 11 14  1  0  0  0  0
 11 15  1  0  0  0  0
 11 16  1  0  0  0  0
 17 18  1  0  0  0  0
 17 25  1  0  0  0  0
 18 19  1  0  0  0  0
 18 21  1  0  0  0  0
 18 26  1  0  0  0  0
 19 20  2  0  0  0  0
 19 29  1  0  0  0  0
 21 22  1  0  0  0  0
 21 27  1  0  0  0  0
 21 28  1  0  0  0  0
 22 23  1  0  0  0  0
 22 24  2  0  0  0  0
 29 30  1  0  0  0  0
 29 34  1  0  0  0  0
 30 31  1  0  0  0  0
 30 33  1  0  0  0  0
 30 35  1  0  0  0  0
 31 32  2  0  0  0  0
 31 39  1  0  0  0  0
 33 36  1  0  0  0  0
 33 37  1  0  0  0  0
 33 38  1  0  0  0  0
 39 40  1  0  0  0  0
 39 41  1  0  0  0  0
 40 42  1  0  0  0  0
 40 43  1  0  0  0  0
 40 44  1  0  0  0  0
M  CHG  1  23  -1
M  END
$$$$

  -OEChem-05262215553D

 44 43  0     1  0  0  0  0  0999 V2000
   -4.6703   -0.0958   -3.8522 C   0  0  0  0  0  0  0  0  0  0  0  0
   -4.7027   -1.2778   -4.1582 O   0  0  0  0  0  0  0  0  0  0  0  0
   -5.8975    0.7730   -4.0588 C   0  0  0  0  0  0  0  0  0  0  0  0
   -5.6606    1.5961   -4.7371 H   0  0  0  0  0  0  0  0  0  0  0  0
   -6.7109    0.1828   -4.4899 H   0  0  0  0  0  0  0  0  0  0  0  0
   -6.2283    1.1828   -3.1012 H   0  0  0  0  0  0  0  0  0  0  0  0
   -3.5287    0.4629   -3.3214 N   0  0  0  0  0  0  0  0  0  0  0  0
   -2.3421   -0.2881   -2.8931 C   0  0  2  0  0  0  0  0  0  0  0  0
   -1.5436    0.5084   -1.8387 C   0  0  0  0  0  0  0  0  0  0  0  0
   -1.8368    1.6806   -1.6070 O   0  0  0  0  0  0  0  0  0  0  0  0
   -1.4627   -0.5783   -4.1147 C   0  0  0  0  0  0  0  0  0  0  0  0
   -3.5903    1.4222   -2.9806 H   0  0  0  0  0  0  0  0  0  0  0  0
   -2.6501   -1.2331   -2.4318 H   0  0  0  0  0  0  0  0  0  0  0  0
   -1.1388    0.3569   -4.5822 H   0  0  0  0  0  0  0  0  0  0  0  0
   -0.5749   -1.1472   -3.8219 H   0  0  0  0  0  0  0  0  0  0  0  0
   -2.0169   -1.1648   -4.8536 H   0  0  0  0  0  0  0  0  0  0  0  0
   -0.4934   -0.0831   -1.1687 N   0  0  0  0  0  0  0  0  0  0  0  0
    0.1961    0.5520   -0.0421 C   0  0  2  0  0  0  0  0  0  0  0  0
    1.1385    1.6876   -0.5000 C   0  0  0  0  0  0  0  0  0  0  0  0
    1.9123    1.5389   -1.4437 O   0  0  0  0  0  0  0  0  0  0  0  0
    0.9989   -0.5466    0.6765 C   0  0  0  0  0  0  0  0  0  0  0  0
    0.1125   -1.5610    1.3918 C   0  0  0  0  0  0  0  0  0  0  0  0
   -1.0064   -1.1885    1.8210 O   0  5  0  0  0  0  0  0  0  0  0  0
    0.5312   -2.7419    1.4254 O   0  0  0  0  0  0  0  0  0  0  0  0
   -0.3864   -1.0882   -1.2702 H   0  0  0  0  0  0  0  0  0  0  0  0
   -0.5396    0.9790    0.6488 H   0  0  0  0  0  0  0  0  0  0  0  0
    1.6414   -0.0843    1.4302 H   0  0  0  0  0  0  0  0  0  0  0  0
    1.6438   -1.0643   -0.0397 H   0  0  0  0  0  0  0  0  0  0  0  0
    1.1487    2.8961    0.1730 N   0  0  0  0  0  0  0  0  0  0  0  0
    1.9730    4.0504   -0.2026 C   0  0  2  0  0  0  0  0  0  0  0  0
    2.3529    4.9296    1.0062 C   0  0  0  0  0  0  0  0  0  0  0  0
    1.6135    5.0177    1.9803 O   0  0  0  0  0  0  0  0  0  0  0  0
    1.1983    4.8742   -1.2352 C   0  0  0  0  0  0  0  0  0  0  0  0
    0.4955    3.0067    0.9468 H   0  0  0  0  0  0  0  0  0  0  0  0
    2.9068    3.6983   -0.6524 H   0  0  0  0  0  0  0  0  0  0  0  0
    0.2573    5.2344   -0.8069 H   0  0  0  0  0  0  0  0  0  0  0  0
    1.7886    5.7364   -1.5589 H   0  0  0  0  0  0  0  0  0  0  0  0
    0.9685    4.2622   -2.1134 H   0  0  0  0  0  0  0  0  0  0  0  0
    3.5306    5.6560    0.9858 N   0  0  0  0  0  0  0  0  0  0  0  0
    3.9846    6.4751    2.1017 C   0  0  0  0  0  0  0  0  0  0  0  0
    4.1493    5.5155    0.1928 H   0  0  0  0  0  0  0  0  0  0  0  0
    3.2491    7.2537    2.3300 H   0  0  0  0  0  0  0  0  0  0  0  0
    4.1335    5.8571    2.9934 H   0  0  0  0  0  0  0  0  0  0  0  0
    4.9335    6.9596    1.8525 H   0  0  0  0  0  0  0  0  0  0  0  0
  1  2  2  0  0  0  0
  1  3  1  0  0  0  0
  1  7  1  0  0  0  0
  3  4  1  0  0  0  0
  3  5  1  0  0  0  0
  3  6  1  0  0  0  0
  7  8  1  0  0  0  0
  7 12  1  0  0  0  0
  8  9  1  0  0  0  0
  8 11  1  0  0  0  0
  8 13  1  0  0  0  0
  9 10  2  0  0  0  0
  9 17  1  0  0  0  0
 11 14  1  0  0  0  0
 11 15  1  0  0  0  0
 11 16  1  0  0  0  0
 17 18  1  0  0  0  0
 17 25  1  0  0  0  0
 18 19  1  0  0  0  0
 18 21  1  0  0  0  0
 18 26  1  0  0  0  0
 19 20  2  0  0  0  0
 19 29  1  0  0  0  0
 21 22  1  0  0  0  0
 21 27  1  0  0  0  0
 21 28  1  0  0  0  0
 22 23  1  0  0  0  0
 22 24  2  0  0  0  0
 29 30  1  0  0  0  0
 29 34  1  0  0  0  0
 30 31  1  0  0  0  0
 30 33  1  0  0  0  0
 30 35  1  0  0  0  0
 31 32  2  0  0  0  0
 31 39  1  0  0  0  0
 33 36  1  0  0  0  0
 33 37  1  0  0  0  0
 33 38  1  0  0  0  0
 39 40  1  0  0  0  0
 39 41  1  0  0  0  0
 40 42  1  0  0  0  0
 40 43  1  0  0  0  0
 40 44  1  0  0  0  0
M  CHG  1  23  -1
M  END
$$$$

  -OEChem-05262215553D

 44 43  0     1  0  0  0  0  0999 V2000
   -4.7050   -0.1121   -3.8410 C   0  0  0  0  0  0  0  0  0  0  0  0
   -4.7418   -1.2981   -4.1308 O   0  0  0  0  0  0  0  0  0  0  0  0
   -5.9348    0.7539   -4.0447 C   0  0  0  0  0  0  0  0  0  0  0  0
   -5.6991    1.5847   -4.7140 H   0  0  0  0  0  0  0  0  0  0  0  0
   -6.7442    0.1648   -4.4847 H   0  0  0  0  0  0  0  0  0  0  0  0
   -6.2706    1.1526   -3.0842 H   0  0  0  0  0  0  0  0  0  0  0  0
   -3.5580    0.4524   -3.3278 N   0  0  0  0  0  0  0  0  0  0  0  0
   -2.3724   -0.2967   -2.8918 C   0  0  2  0  0  0  0  0  0  0  0  0
   -1.5677    0.5100   -1.8482 C   0  0  0  0  0  0  0  0  0  0  0  0
   -1.8793    1.6755   -1.6067 O   0  0  0  0  0  0  0  0  0  0  0  0
   -1.5007   -0.6101   -4.1134 C   0  0  0  0  0  0  0  0  0  0  0  0
   -3.6182    1.4142   -2.9934 H   0  0  0  0  0  0  0  0  0  0  0  0
   -2.6832   -1.2332   -2.4158 H   0  0  0  0  0  0  0  0  0  0  0  0
   -1.1774    0.3160   -4.5991 H   0  0  0  0  0  0  0  0  0  0  0  0
   -0.6124   -1.1760   -3.8167 H   0  0  0  0  0  0  0  0  0  0  0  0
   -2.0613   -1.2076   -4.8386 H   0  0  0  0  0  0  0  0  0  0  0  0
   -0.5053   -0.0706   -1.1868 N   0  0  0  0  0  0  0  0  0  0  0  0
    0.2006    0.5772   -0.0764 C   0  0  2  0  0  0  0  0  0  0  0  0
    1.1389    1.7143   -0.5424 C   0  0  0  0  0  0  0  0  0  0  0  0
    1.7342    1.6621   -1.6170 O   0  0  0  0  0  0  0  0  0  0  0  0
    1.0221   -0.5129    0.6355 C   0  0  0  0  0  0  0  0  0  0  0  0
    0.1572   -1.5286    1.3740 C   0  0  0  0  0  0  0  0  0  0  0  0
   -0.9559   -1.1617    1.8221 O   0  5  0  0  0  0  0  0  0  0  0  0
    0.5888   -2.7047    1.4125 O   0  0  0  0  0  0  0  0  0  0  0  0
   -0.3799   -1.0722   -1.2979 H   0  0  0  0  0  0  0  0  0  0  0  0
   -0.5275    1.0065    0.6214 H   0  0  0  0  0  0  0  0  0  0  0  0
    1.6766   -0.0441    1.3747 H   0  0  0  0  0  0  0  0  0  0  0  0
    1.6561   -1.0313   -0.0897 H   0  0  0  0  0  0  0  0  0  0  0  0
    1.3851    2.7909    0.2911 N   0  0  0  0  0  0  0  0  0  0  0  0
    2.2982    3.8964   -0.0218 C   0  0  2  0  0  0  0  0  0  0  0  0
    2.9579    4.4943    1.2372 C   0  0  0  0  0  0  0  0  0  0  0  0
    2.3953    4.4484    2.3255 O   0  0  0  0  0  0  0  0  0  0  0  0
    1.5085    4.9748   -0.7694 C   0  0  0  0  0  0  0  0  0  0  0  0
    0.9361    2.7876    1.2058 H   0  0  0  0  0  0  0  0  0  0  0  0
    3.1043    3.5309   -0.6663 H   0  0  0  0  0  0  0  0  0  0  0  0
    0.6949    5.3544   -0.1433 H   0  0  0  0  0  0  0  0  0  0  0  0
    2.1612    5.8100   -1.0393 H   0  0  0  0  0  0  0  0  0  0  0  0
    1.0772    4.5620   -1.6871 H   0  0  0  0  0  0  0  0  0  0  0  0
    4.1911    5.1143    1.1409 N   0  0  0  0  0  0  0  0  0  0  0  0
    4.9060    5.6558    2.2887 C   0  0  0  0  0  0  0  0  0  0  0  0
    4.6550    5.0881    0.2380 H   0  0  0  0  0  0  0  0  0  0  0  0
    4.3049    6.4227    2.7878 H   0  0  0  0  0  0  0  0  0  0  0  0
    5.1333    4.8614    3.0070 H   0  0  0  0  0  0  0  0  0  0  0  0
    5.8469    6.1112    1.9662 H   0  0  0  0  0  0  0  0  0  0  0  0
  1  2  2  0  0  0  0
  1  3  1  0  0  0  0
  1  7  1  0  0  0  0
  3  4  1  0  0  0  0
  3  5  1  0  0  0  0
  3  6  1  0  0  0  0
  7  8  1  0  0  0  0
  7 12  1  0  0  0  0
  8  9  1  0  0  0  0
  8 11  1  0  0  0  0
  8 13  1  0  0  0  0
  9 10  2  0  0  0  0
  9 17  1  0  0  0  0
 11 14  1  0  0  0  0
 11 15  1  0  0  0  0
 11 16  1  0  0  0  0
 17 18  1  0  0  0  0
 17 25  1  0  0  0  0
 18 19  1  0  0  0  0
 18 21  1  0  0  0  0
 18 26  1  0  0  0  0
 19 20  2  0  0  0  0
 19 29  1  0  0  0  0
 21 22  1  0  0  0  0
 21 27  1  0  0  0  0
 21 28  1  0  0  0  0
 22 23  1  0  0  0  0
 22 24  2  0  0  0  0
 29 30  1  0  0  0  0
 29 34  1  0  0  0  0
 30 31  1  0  0  0  0
 30 33  1  0  0  0  0
 30 35  1  0  0  0  0
 31 32  2  0  0  0  0
 31 39  1  0  0  0  0
 33 36  1  0  0  0  0
 33 37  1  0  0  0  0
 33 38  1  0  0  0  0
 39 40  1  0  0  0  0
 39 41  1  0  0  0  0
 40 42  1  0  0  0  0
 40 43  1  0  0  0  0
 40 44  1  0  0  0  0
M  CHG  1  23  -1
M  END
$$$$

  -OEChem-05262215553D

 44 43  0     1  0  0  0  0  0999 V2000
   -4.6970   -0.1359   -3.8693 C   0  0  0  0  0  0  0  0  0  0  0  0
   -4.6859   -1.3089   -4.2099 O   0  0  0  0  0  0  0  0  0  0  0  0
   -5.9525    0.6950   -4.0627 C   0  0  0  0  0  0  0  0  0  0  0  0
   -5.7213    1.5921   -4.6423 H   0  0  0  0  0  0  0  0  0  0  0  0
   -6.7106    0.1154   -4.5968 H   0  0  0  0  0  0  0  0  0  0  0  0
   -6.3546    0.9915   -3.0908 H   0  0  0  0  0  0  0  0  0  0  0  0
   -3.5803    0.4456   -3.3107 N   0  0  0  0  0  0  0  0  0  0  0  0
   -2.3730   -0.2772   -2.8910 C   0  0  2  0  0  0  0  0  0  0  0  0
   -1.6202    0.5084   -1.7953 C   0  0  0  0  0  0  0  0  0  0  0  0
   -1.9814    1.6482   -1.5053 O   0  0  0  0  0  0  0  0  0  0  0  0
   -1.4654   -0.4904   -4.1080 C   0  0  0  0  0  0  0  0  0  0  0  0
   -3.6799    1.3889   -2.9354 H   0  0  0  0  0  0  0  0  0  0  0  0
   -2.6526   -1.2486   -2.4691 H   0  0  0  0  0  0  0  0  0  0  0  0
   -1.1616    0.4729   -4.5299 H   0  0  0  0  0  0  0  0  0  0  0  0
   -0.5655   -1.0441   -3.8231 H   0  0  0  0  0  0  0  0  0  0  0  0
   -1.9893   -1.0613   -4.8807 H   0  0  0  0  0  0  0  0  0  0  0  0
   -0.5455   -0.0631   -1.1461 N   0  0  0  0  0  0  0  0  0  0  0  0
    0.1764    0.5898   -0.0493 C   0  0  2  0  0  0  0  0  0  0  0  0
    1.1065    1.7288   -0.5295 C   0  0  0  0  0  0  0  0  0  0  0  0
    1.4988    1.8033   -1.6927 O   0  0  0  0  0  0  0  0  0  0  0  0
    1.0148   -0.4997    0.6451 C   0  0  0  0  0  0  0  0  0  0  0  0
    0.1699   -1.5209    1.3988 C   0  0  0  0  0  0  0  0  0  0  0  0
   -0.9357   -1.1619    1.8706 O   0  5  0  0  0  0  0  0  0  0  0  0
    0.6132   -2.6928    1.4315 O   0  0  0  0  0  0  0  0  0  0  0  0
   -0.3631   -1.0477   -1.3132 H   0  0  0  0  0  0  0  0  0  0  0  0
   -0.5398    1.0180    0.6613 H   0  0  0  0  0  0  0  0  0  0  0  0
    1.6806   -0.0321    1.3749 H   0  0  0  0  0  0  0  0  0  0  0  0
    1.6380   -1.0135   -0.0931 H   0  0  0  0  0  0  0  0  0  0  0  0
    1.6089    2.6358    0.3869 N   0  0  0  0  0  0  0  0  0  0  0  0
    2.5969    3.6752    0.0750 C   0  0  2  0  0  0  0  0  0  0  0  0
    3.5398    3.9699    1.2593 C   0  0  0  0  0  0  0  0  0  0  0  0
    3.1783    3.7777    2.4149 O   0  0  0  0  0  0  0  0  0  0  0  0
    1.8424    4.9424   -0.3347 C   0  0  0  0  0  0  0  0  0  0  0  0
    1.3619    2.4941    1.3656 H   0  0  0  0  0  0  0  0  0  0  0  0
    3.2237    3.3457   -0.7600 H   0  0  0  0  0  0  0  0  0  0  0  0
    1.2135    5.2954    0.4889 H   0  0  0  0  0  0  0  0  0  0  0  0
    2.5447    5.7364   -0.6043 H   0  0  0  0  0  0  0  0  0  0  0  0
    1.2017    4.7385   -1.1986 H   0  0  0  0  0  0  0  0  0  0  0  0
    4.8059    4.4758    1.0230 N   0  0  0  0  0  0  0  0  0  0  0  0
    5.7768    4.7265    2.0797 C   0  0  0  0  0  0  0  0  0  0  0  0
    5.0949    4.5725    0.0543 H   0  0  0  0  0  0  0  0  0  0  0  0
    5.3842    5.4566    2.7951 H   0  0  0  0  0  0  0  0  0  0  0  0
    6.0104    3.7991    2.6130 H   0  0  0  0  0  0  0  0  0  0  0  0
    6.7027    5.1241    1.6535 H   0  0  0  0  0  0  0  0  0  0  0  0
  1  2  2  0  0  0  0
  1  3  1  0  0  0  0
  1  7  1  0  0  0  0
  3  4  1  0  0  0  0
  3  5  1  0  0  0  0
  3  6  1  0  0  0  0
  7  8  1  0  0  0  0
  7 12  1  0  0  0  0
  8  9  1  0  0  0  0
  8 11  1  0  0  0  0
  8 13  1  0  0  0  0
  9 10  2  0  0  0  0
  9 17  1  0  0  0  0
 11 14  1  0  0  0  0
 11 15  1  0  0  0  0
 11 16  1  0  0  0  0
 17 18  1  0  0  0  0
 17 25  1  0  0  0  0
 18 19  1  0  0  0  0
 18 21  1  0  0  0  0
 18 26  1  0  0  0  0
 19 20  2  0  0  0  0
 19 29  1  0  0  0  0
 21 22  1  0  0  0  0
 21 27  1  0  0  0  0
 21 28  1  0  0  0  0
 22 23  1  0  0  0  0
 22 24  2  0  0  0  0
 29 30  1  0  0  0  0
 29 34  1  0  0  0  0
 30 31  1  0  0  0  0
 30 33  1  0  0  0  0
 30 35  1  0  0  0  0
 31 32  2  0  0  0  0
 31 39  1  0  0  0  0
 33 36  1  0  0  0  0
 33 37  1  0  0  0  0
 33 38  1  0  0  0  0
 39 40  1  0  0  0  0
 39 41  1  0  0  0  0
 40 42  1  0  0  0  0
 40 43  1  0  0  0  0
 40 44  1  0  0  0  0
M  CHG  1  23  -1
M  END
$$$$

  -OEChem-05262215553D

 44 43  0     1  0  0  0  0  0999 V2000
   -4.5894   -0.1210   -3.9927 C   0  0  0  0  0  0  0  0  0  0  0  0
   -4.4507   -1.2269   -4.4929 O   0  0  0  0  0  0  0  0  0  0  0  0
   -5.9017    0.6242   -4.1548 C   0  0  0  0  0  0  0  0  0  0  0  0
   -5.7313    1.5682   -4.6781 H   0  0  0  0  0  0  0  0  0  0  0  0
   -6.6101    0.0233   -4.7317 H   0  0  0  0  0  0  0  0  0  0  0  0
   -6.3342    0.8332   -3.1730 H   0  0  0  0  0  0  0  0  0  0  0  0
   -3.5659    0.4616   -3.2790 N   0  0  0  0  0  0  0  0  0  0  0  0
   -2.3269   -0.2162   -2.8776 C   0  0  2  0  0  0  0  0  0  0  0  0
   -1.7408    0.4258   -1.6008 C   0  0  0  0  0  0  0  0  0  0  0  0
   -2.2750    1.4261   -1.1234 O   0  0  0  0  0  0  0  0  0  0  0  0
   -1.3178   -0.1281   -4.0283 C   0  0  0  0  0  0  0  0  0  0  0  0
   -3.7765    1.3239   -2.7760 H   0  0  0  0  0  0  0  0  0  0  0  0
   -2.5364   -1.2677   -2.6537 H   0  0  0  0  0  0  0  0  0  0  0  0
   -1.0801    0.9180   -4.2465 H   0  0  0  0  0  0  0  0  0  0  0  0
   -0.3908   -0.6471   -3.7666 H   0  0  0  0  0  0  0  0  0  0  0  0
   -1.7264   -0.5899   -4.9323 H   0  0  0  0  0  0  0  0  0  0  0  0
   -0.6392   -0.1327   -0.9824 N   0  0  0  0  0  0  0  0  0  0  0  0
    0.1266    0.5339    0.0786 C   0  0  2  0  0  0  0  0  0  0  0  0
    0.7562    1.8841   -0.3543 C   0  0  0  0  0  0  0  0  0  0  0  0
    0.7810    2.2455   -1.5298 O   0  0  0  0  0  0  0  0  0  0  0  0
    1.2423   -0.4502    0.4883 C   0  0  0  0  0  0  0  0  0  0  0  0
    0.7246   -1.6904    1.2091 C   0  0  0  0  0  0  0  0  0  0  0  0
   -0.3294   -1.6049    1.8839 O   0  5  0  0  0  0  0  0  0  0  0  0
    1.3715   -2.7484    1.0250 O   0  0  0  0  0  0  0  0  0  0  0  0
   -0.2559   -0.9843   -1.3790 H   0  0  0  0  0  0  0  0  0  0  0  0
   -0.5303    0.7337    0.9327 H   0  0  0  0  0  0  0  0  0  0  0  0
    1.9349    0.0449    1.1730 H   0  0  0  0  0  0  0  0  0  0  0  0
    1.8107   -0.7532   -0.3961 H   0  0  0  0  0  0  0  0  0  0  0  0
    1.5017    2.6182    0.5526 N   0  0  0  0  0  0  0  0  0  0  0  0
    2.2683    3.8261    0.2222 C   0  0  2  0  0  0  0  0  0  0  0  0
    3.5204    3.9942    1.1060 C   0  0  0  0  0  0  0  0  0  0  0  0
    3.5374    3.5739    2.2573 O   0  0  0  0  0  0  0  0  0  0  0  0
    1.3444    5.0373    0.3741 C   0  0  0  0  0  0  0  0  0  0  0  0
    1.5865    2.2440    1.4971 H   0  0  0  0  0  0  0  0  0  0  0  0
    2.6129    3.7674   -0.8151 H   0  0  0  0  0  0  0  0  0  0  0  0
    0.9871    5.1174    1.4057 H   0  0  0  0  0  0  0  0  0  0  0  0
    1.8745    5.9583    0.1148 H   0  0  0  0  0  0  0  0  0  0  0  0
    0.4781    4.9383   -0.2879 H   0  0  0  0  0  0  0  0  0  0  0  0
    4.6342    4.6453    0.6056 N   0  0  0  0  0  0  0  0  0  0  0  0
    5.8836    4.7728    1.3438 C   0  0  0  0  0  0  0  0  0  0  0  0
    4.6134    4.9109   -0.3743 H   0  0  0  0  0  0  0  0  0  0  0  0
    5.7156    5.2777    2.3009 H   0  0  0  0  0  0  0  0  0  0  0  0
    6.3157    3.7853    1.5363 H   0  0  0  0  0  0  0  0  0  0  0  0
    6.6037    5.3607    0.7667 H   0  0  0  0  0  0  0  0  0  0  0  0
  1  2  2  0  0  0  0
  1  3  1  0  0  0  0
  1  7  1  0  0  0  0
  3  4  1  0  0  0  0
  3  5  1  0  0  0  0
  3  6  1  0  0  0  0
  7  8  1  0  0  0  0
  7 12  1  0  0  0  0
  8  9  1  0  0  0  0
  8 11  1  0  0  0  0
  8 13  1  0  0  0  0
  9 10  2  0  0  0  0
  9 17  1  0  0  0  0
 11 14  1  0  0  0  0
 11 15  1  0  0  0  0
 11 16  1  0  0  0  0
 17 18  1  0  0  0  0
 17 25  1  0  0  0  0
 18 19  1  0  0  0  0
 18 21  1  0  0  0  0
 18 26  1  0  0  0  0
 19 20  2  0  0  0  0
 19 29  1  0  0  0  0
 21 22  1  0  0  0  0
 21 27  1  0  0  0  0
 21 28  1  0  0  0  0
 22 23  1  0  0  0  0
 22 24  2  0  0  0  0
 29 30  1  0  0  0  0
 29 34  1  0  0  0  0
 30 31  1  0  0  0  0
 30 33  1  0  0  0  0
 30 35  1  0  0  0  0
 31 32  2  0  0  0  0
 31 39  1  0  0  0  0
 33 36  1  0  0  0  0
 33 37  1  0  0  0  0
 33 38  1  0  0  0  0
 39 40  1  0  0  0  0
 39 41  1  0  0  0  0
 40 42  1  0  0  0  0
 40 43  1  0  0  0  0
 40 44  1  0  0  0  0
M  CHG  1  23  -1
M  END
$$$$

  -OEChem-05262215553D

 44 43  0     1  0  0  0  0  0999 V2000
   -4.5748   -0.1099   -3.9971 C   0  0  0  0  0  0  0  0  0  0  0  0
   -4.4266   -1.2077   -4.5124 O   0  0  0  0  0  0  0  0  0  0  0  0
   -5.8925    0.6272   -4.1535 C   0  0  0  0  0  0  0  0  0  0  0  0
   -5.7292    1.5771   -4.6687 H   0  0  0  0  0  0  0  0  0  0  0  0
   -6.5961    0.0251   -4.7352 H   0  0  0  0  0  0  0  0  0  0  0  0
   -6.3268    0.8248   -3.1702 H   0  0  0  0  0  0  0  0  0  0  0  0
   -3.5572    0.4715   -3.2739 N   0  0  0  0  0  0  0  0  0  0  0  0
   -2.3151   -0.2024   -2.8753 C   0  0  2  0  0  0  0  0  0  0  0  0
   -1.7428    0.4240   -1.5844 C   0  0  0  0  0  0  0  0  0  0  0  0
   -2.3058    1.3951   -1.0814 O   0  0  0  0  0  0  0  0  0  0  0  0
   -1.3009   -0.0899   -4.0187 C   0  0  0  0  0  0  0  0  0  0  0  0
   -3.7778    1.3228   -2.7564 H   0  0  0  0  0  0  0  0  0  0  0  0
   -2.5169   -1.2588   -2.6689 H   0  0  0  0  0  0  0  0  0  0  0  0
   -1.0667    0.9610   -4.2178 H   0  0  0  0  0  0  0  0  0  0  0  0
   -0.3734   -0.6103   -3.7621 H   0  0  0  0  0  0  0  0  0  0  0  0
   -1.7043   -0.5380   -4.9318 H   0  0  0  0  0  0  0  0  0  0  0  0
   -0.6409   -0.1364   -0.9671 N   0  0  0  0  0  0  0  0  0  0  0  0
    0.1329    0.5227    0.0946 C   0  0  2  0  0  0  0  0  0  0  0  0
    0.7765    1.8758   -0.3268 C   0  0  0  0  0  0  0  0  0  0  0  0
    0.6095    2.3640   -1.4426 O   0  0  0  0  0  0  0  0  0  0  0  0
    1.2265   -0.4939    0.4945 C   0  0  0  0  0  0  0  0  0  0  0  0
    0.6829   -1.7266    1.2091 C   0  0  0  0  0  0  0  0  0  0  0  0
   -0.3656   -1.6231    1.8896 O   0  5  0  0  0  0  0  0  0  0  0  0
    1.3055   -2.7969    1.0128 O   0  0  0  0  0  0  0  0  0  0  0  0
   -0.2554   -0.9818   -1.3746 H   0  0  0  0  0  0  0  0  0  0  0  0
   -0.5200    0.7254    0.9509 H   0  0  0  0  0  0  0  0  0  0  0  0
    1.9325   -0.0290    1.1860 H   0  0  0  0  0  0  0  0  0  0  0  0
    1.7859   -0.8025   -0.3936 H   0  0  0  0  0  0  0  0  0  0  0  0
    1.7681    2.4478    0.4537 N   0  0  0  0  0  0  0  0  0  0  0  0
    2.5738    3.6152    0.0724 C   0  0  2  0  0  0  0  0  0  0  0  0
    3.9945    3.5736    0.6709 C   0  0  0  0  0  0  0  0  0  0  0  0
    4.2090    3.0180    1.7423 O   0  0  0  0  0  0  0  0  0  0  0  0
    1.8387    4.8767    0.5335 C   0  0  0  0  0  0  0  0  0  0  0  0
    2.0167    1.9629    1.3152 H   0  0  0  0  0  0  0  0  0  0  0  0
    2.6852    3.6442   -1.0163 H   0  0  0  0  0  0  0  0  0  0  0  0
    1.7168    4.8711    1.6216 H   0  0  0  0  0  0  0  0  0  0  0  0
    2.3989    5.7723    0.2486 H   0  0  0  0  0  0  0  0  0  0  0  0
    0.8473    4.9265    0.0715 H   0  0  0  0  0  0  0  0  0  0  0  0
    5.0408    4.1861    0.0039 N   0  0  0  0  0  0  0  0  0  0  0  0
    6.4235    4.1249    0.4584 C   0  0  0  0  0  0  0  0  0  0  0  0
    4.8419    4.5707   -0.9147 H   0  0  0  0  0  0  0  0  0  0  0  0
    6.5132    4.5300    1.4717 H   0  0  0  0  0  0  0  0  0  0  0  0
    6.7805    3.0897    0.4583 H   0  0  0  0  0  0  0  0  0  0  0  0
    7.0640    4.7131   -0.2056 H   0  0  0  0  0  0  0  0  0  0  0  0
  1  2  2  0  0  0  0
  1  3  1  0  0  0  0
  1  7  1  0  0  0  0
  3  4  1  0  0  0  0
  3  5  1  0  0  0  0
  3  6  1  0  0  0  0
  7  8  1  0  0  0  0
  7 12  1  0  0  0  0
  8  9  1  0  0  0  0
  8 11  1  0  0  0  0
  8 13  1  0  0  0  0
  9 10  2  0  0  0  0
  9 17  1  0  0  0  0
 11 14  1  0  0  0  0
 11 15  1  0  0  0  0
 11 16  1  0  0  0  0
 17 18  1  0  0  0  0
 17 25  1  0  0  0  0
 18 19  1  0  0  0  0
 18 21  1  0  0  0  0
 18 26  1  0  0  0  0
 19 20  2  0  0  0  0
 19 29  1  0  0  0  0
 21 22  1  0  0  0  0
 21 27  1  0  0  0  0
 21 28  1  0  0  0  0
 22 23  1  0  0  0  0
 22 24  2  0  0  0  0
 29 30  1  0  0  0  0
 29 34  1  0  0  0  0
 30 31  1  0  0  0  0
 30 33  1  0  0  0  0
 30 35  1  0  0  0  0
 31 32  2  0  0  0  0
 31 39  1  0  0  0  0
 33 36  1  0  0  0  0
 33 37  1  0  0  0  0
 33 38  1  0  0  0  0
 39 40  1  0  0  0  0
 39 41  1  0  0  0  0
 40 42  1  0  0  0  0
 40 43  1  0  0  0  0
 40 44  1  0  0  0  0
M  CHG  1  23  -1
M  END
$$$$

  -OEChem-05262215553D

 44 43  0     1  0  0  0  0  0999 V2000
   -4.5570   -0.0968   -4.0080 C   0  0  0  0  0  0  0  0  0  0  0  0
   -4.3983   -1.1874   -4.5354 O   0  0  0  0  0  0  0  0  0  0  0  0
   -5.8814    0.6297   -4.1567 C   0  0  0  0  0  0  0  0  0  0  0  0
   -5.7281    1.5827   -4.6690 H   0  0  0  0  0  0  0  0  0  0  0  0
   -6.5820    0.0241   -4.7381 H   0  0  0  0  0  0  0  0  0  0  0  0
   -6.3135    0.8197   -3.1711 H   0  0  0  0  0  0  0  0  0  0  0  0
   -3.5452    0.4853   -3.2773 N   0  0  0  0  0  0  0  0  0  0  0  0
   -2.3027   -0.1872   -2.8777 C   0  0  2  0  0  0  0  0  0  0  0  0
   -1.7385    0.4341   -1.5805 C   0  0  0  0  0  0  0  0  0  0  0  0
   -2.3162    1.3924   -1.0709 O   0  0  0  0  0  0  0  0  0  0  0  0
   -1.2845   -0.0652   -4.0165 C   0  0  0  0  0  0  0  0  0  0  0  0
   -3.7756    1.3260   -2.7461 H   0  0  0  0  0  0  0  0  0  0  0  0
   -2.5026   -1.2453   -2.6781 H   0  0  0  0  0  0  0  0  0  0  0  0
   -1.0547    0.9876   -4.2105 H   0  0  0  0  0  0  0  0  0  0  0  0
   -0.3557   -0.5823   -3.7581 H   0  0  0  0  0  0  0  0  0  0  0  0
   -1.6821   -0.5111   -4.9334 H   0  0  0  0  0  0  0  0  0  0  0  0
   -0.6470   -0.1375   -0.9539 N   0  0  0  0  0  0  0  0  0  0  0  0
    0.1433    0.5074    0.1063 C   0  0  2  0  0  0  0  0  0  0  0  0
    0.8232    1.8476   -0.3133 C   0  0  0  0  0  0  0  0  0  0  0  0
    0.4730    2.4869   -1.3013 O   0  0  0  0  0  0  0  0  0  0  0  0
    1.1926   -0.5514    0.5234 C   0  0  0  0  0  0  0  0  0  0  0  0
    0.5966   -1.7551    1.2466 C   0  0  0  0  0  0  0  0  0  0  0  0
   -0.4498   -1.6058    1.9209 O   0  5  0  0  0  0  0  0  0  0  0  0
    1.1757   -2.8509    1.0583 O   0  0  0  0  0  0  0  0  0  0  0  0
   -0.2805   -0.9953   -1.3531 H   0  0  0  0  0  0  0  0  0  0  0  0
   -0.5084    0.7349    0.9572 H   0  0  0  0  0  0  0  0  0  0  0  0
    1.9070   -0.1139    1.2233 H   0  0  0  0  0  0  0  0  0  0  0  0
    1.7497   -0.8890   -0.3554 H   0  0  0  0  0  0  0  0  0  0  0  0
    2.0159    2.2477    0.2685 N   0  0  0  0  0  0  0  0  0  0  0  0
    2.8305    3.3903   -0.1670 C   0  0  2  0  0  0  0  0  0  0  0  0
    4.3360    3.1689    0.0833 C   0  0  0  0  0  0  0  0  0  0  0  0
    4.7211    2.4525    1.0004 O   0  0  0  0  0  0  0  0  0  0  0  0
    2.3452    4.6373    0.5772 C   0  0  0  0  0  0  0  0  0  0  0  0
    2.4012    1.6446    0.9941 H   0  0  0  0  0  0  0  0  0  0  0  0
    2.7035    3.5440   -1.2435 H   0  0  0  0  0  0  0  0  0  0  0  0
    2.4625    4.5071    1.6577 H   0  0  0  0  0  0  0  0  0  0  0  0
    2.9176    5.5162    0.2666 H   0  0  0  0  0  0  0  0  0  0  0  0
    1.2877    4.8192    0.3609 H   0  0  0  0  0  0  0  0  0  0  0  0
    5.2692    3.7968   -0.7226 N   0  0  0  0  0  0  0  0  0  0  0  0
    6.7048    3.5819   -0.5998 C   0  0  0  0  0  0  0  0  0  0  0  0
    4.9168    4.3269   -1.5139 H   0  0  0  0  0  0  0  0  0  0  0  0
    7.0484    3.8480    0.4053 H   0  0  0  0  0  0  0  0  0  0  0  0
    6.9522    2.5327   -0.7919 H   0  0  0  0  0  0  0  0  0  0  0  0
    7.2415    4.2026   -1.3234 H   0  0  0  0  0  0  0  0  0  0  0  0
  1  2  2  0  0  0  0
  1  3  1  0  0  0  0
  1  7  1  0  0  0  0
  3  4  1  0  0  0  0
  3  5  1  0  0  0  0
  3  6  1  0  0  0  0
  7  8  1  0  0  0  0
  7 12  1  0  0  0  0
  8  9  1  0  0  0  0
  8 11  1  0  0  0  0
  8 13  1  0  0  0  0
  9 10  2  0  0  0  0
  9 17  1  0  0  0  0
 11 14  1  0  0  0  0
 11 15  1  0  0  0  0
 11 16  1  0  0  0  0
 17 18  1  0  0  0  0
 17 25  1  0  0  0  0
 18 19  1  0  0  0  0
 18 21  1  0  0  0  0
 18 26  1  0  0  0  0
 19 20  2  0  0  0  0
 19 29  1  0  0  0  0
 21 22  1  0  0  0  0
 21 27  1  0  0  0  0
 21 28  1  0  0  0  0
 22 23  1  0  0  0  0
 22 24  2  0  0  0  0
 29 30  1  0  0  0  0
 29 34  1  0  0  0  0
 30 31  1  0  0  0  0
 30 33  1  0  0  0  0
 30 35  1  0  0  0  0
 31 32  2  0  0  0  0
 31 39  1  0  0  0  0
 33 36  1  0  0  0  0
 33 37  1  0  0  0  0
 33 38  1  0  0  0  0
 39 40  1  0  0  0  0
 39 41  1  0  0  0  0
 40 42  1  0  0  0  0
 40 43  1  0  0  0  0
 40 44  1  0  0  0  0
M  CHG  1  23  -1
M  END
$$$$

  -OEChem-05262215553D

 44 43  0     1  0  0  0  0  0999 V2000
   -4.5549   -0.1085   -4.0136 C   0  0  0  0  0  0  0  0  0  0  0  0
   -4.3961   -1.2096   -4.5188 O   0  0  0  0  0  0  0  0  0  0  0  0
   -5.8817    0.6118   -4.1720 C   0  0  0  0  0  0  0  0  0  0  0  0
   -5.7341    1.5525   -4.7081 H   0  0  0  0  0  0  0  0  0  0  0  0
   -6.5841   -0.0098   -4.7343 H   0  0  0  0  0  0  0  0  0  0  0  0
   -6.3089    0.8251   -3.1890 H   0  0  0  0  0  0  0  0  0  0  0  0
   -3.5406    0.4894   -3.2991 N   0  0  0  0  0  0  0  0  0  0  0  0
   -2.3035   -0.1801   -2.8793 C   0  0  2  0  0  0  0  0  0  0  0  0
   -1.7398    0.4660   -1.5941 C   0  0  0  0  0  0  0  0  0  0  0  0
   -2.3128    1.4400   -1.1129 O   0  0  0  0  0  0  0  0  0  0  0  0
   -1.2793   -0.0881   -4.0157 C   0  0  0  0  0  0  0  0  0  0  0  0
   -3.7704    1.3400   -2.7838 H   0  0  0  0  0  0  0  0  0  0  0  0
   -2.5104   -1.2325   -2.6571 H   0  0  0  0  0  0  0  0  0  0  0  0
   -1.0458    0.9593   -4.2327 H   0  0  0  0  0  0  0  0  0  0  0  0
   -0.3531   -0.6014   -3.7409 H   0  0  0  0  0  0  0  0  0  0  0  0
   -1.6736   -0.5545   -4.9238 H   0  0  0  0  0  0  0  0  0  0  0  0
   -0.6657   -0.1144   -0.9457 N   0  0  0  0  0  0  0  0  0  0  0  0
    0.1483    0.5158    0.1061 C   0  0  2  0  0  0  0  0  0  0  0  0
    0.8789    1.8263   -0.3272 C   0  0  0  0  0  0  0  0  0  0  0  0
    0.3824    2.6483   -1.0893 O   0  0  0  0  0  0  0  0  0  0  0  0
    1.1475   -0.5802    0.5494 C   0  0  0  0  0  0  0  0  0  0  0  0
    0.4967   -1.7430    1.2926 C   0  0  0  0  0  0  0  0  0  0  0  0
   -0.5449   -1.5382    1.9592 O   0  5  0  0  0  0  0  0  0  0  0  0
    1.0262   -2.8660    1.1214 O   0  0  0  0  0  0  0  0  0  0  0  0
   -0.3480   -1.0107   -1.2998 H   0  0  0  0  0  0  0  0  0  0  0  0
   -0.4970    0.7834    0.9502 H   0  0  0  0  0  0  0  0  0  0  0  0
    1.8718   -0.1582    1.2494 H   0  0  0  0  0  0  0  0  0  0  0  0
    1.6967   -0.9579   -0.3183 H   0  0  0  0  0  0  0  0  0  0  0  0
    2.2080    2.0435    0.0032 N   0  0  0  0  0  0  0  0  0  0  0  0
    3.0253    3.1714   -0.4647 C   0  0  2  0  0  0  0  0  0  0  0  0
    4.5131    2.7979   -0.6217 C   0  0  0  0  0  0  0  0  0  0  0  0
    5.0111    1.9038    0.0529 O   0  0  0  0  0  0  0  0  0  0  0  0
    2.8694    4.3222    0.5329 C   0  0  0  0  0  0  0  0  0  0  0  0
    2.6808    1.3036    0.5207 H   0  0  0  0  0  0  0  0  0  0  0  0
    2.6724    3.4989   -1.4477 H   0  0  0  0  0  0  0  0  0  0  0  0
    3.2186    4.0175    1.5247 H   0  0  0  0  0  0  0  0  0  0  0  0
    3.4499    5.1911    0.2093 H   0  0  0  0  0  0  0  0  0  0  0  0
    1.8178    4.6170    0.6091 H   0  0  0  0  0  0  0  0  0  0  0  0
    5.3066    3.4881   -1.5208 N   0  0  0  0  0  0  0  0  0  0  0  0
    6.7097    3.1746   -1.7549 C   0  0  0  0  0  0  0  0  0  0  0  0
    4.8539    4.1906   -2.0979 H   0  0  0  0  0  0  0  0  0  0  0  0
    7.2900    3.3080   -0.8362 H   0  0  0  0  0  0  0  0  0  0  0  0
    6.8193    2.1397   -2.0951 H   0  0  0  0  0  0  0  0  0  0  0  0
    7.1211    3.8365   -2.5226 H   0  0  0  0  0  0  0  0  0  0  0  0
  1  2  2  0  0  0  0
  1  3  1  0  0  0  0
  1  7  1  0  0  0  0
  3  4  1  0  0  0  0
  3  5  1  0  0  0  0
  3  6  1  0  0  0  0
  7  8  1  0  0  0  0
  7 12  1  0  0  0  0
  8  9  1  0  0  0  0
  8 11  1  0  0  0  0
  8 13  1  0  0  0  0
  9 10  2  0  0  0  0
  9 17  1  0  0  0  0
 11 14  1  0  0  0  0
 11 15  1  0  0  0  0
 11 16  1  0  0  0  0
 17 18  1  0  0  0  0
 17 25  1  0  0  0  0
 18 19  1  0  0  0  0
 18 21  1  0  0  0  0
 18 26  1  0  0  0  0
 19 20  2  0  0  0  0
 19 29  1  0  0  0  0
 21 22  1  0  0  0  0
 21 27  1  0  0  0  0
 21 28  1  0  0  0  0
 22 23  1  0  0  0  0
 22 24  2  0  0  0  0
 29 30  1  0  0  0  0
 29 34  1  0  0  0  0
 30 31  1  0  0  0  0
 30 33  1  0  0  0  0
 30 35  1  0  0  0  0
 31 32  2  0  0  0  0
 31 39  1  0  0  0  0
 33 36  1  0  0  0  0
 33 37  1  0  0  0  0
 33 38  1  0  0  0  0
 39 40  1  0  0  0  0
 39 41  1  0  0  0  0
 40 42  1  0  0  0  0
 40 43  1  0  0  0  0
 40 44  1  0  0  0  0
M  CHG  1  23  -1
M  END
$$$$

  -OEChem-05262215553D

 44 43  0     1  0  0  0  0  0999 V2000
   -4.5976   -0.1501   -3.9780 C   0  0  0  0  0  0  0  0  0  0  0  0
   -4.4941   -1.2948   -4.3920 O   0  0  0  0  0  0  0  0  0  0  0  0
   -5.8921    0.6150   -4.1832 C   0  0  0  0  0  0  0  0  0  0  0  0
   -5.6940    1.5462   -4.7196 H   0  0  0  0  0  0  0  0  0  0  0  0
   -6.5979    0.0158   -4.7648 H   0  0  0  0  0  0  0  0  0  0  0  0
   -6.3408    0.8493   -3.2146 H   0  0  0  0  0  0  0  0  0  0  0  0
   -3.5496    0.4595   -3.3249 N   0  0  0  0  0  0  0  0  0  0  0  0
   -2.3316   -0.2215   -2.8689 C   0  0  2  0  0  0  0  0  0  0  0  0
   -1.7063    0.5208   -1.6666 C   0  0  0  0  0  0  0  0  0  0  0  0
   -2.2081    1.5765   -1.2964 O   0  0  0  0  0  0  0  0  0  0  0  0
   -1.3335   -0.2870   -4.0304 C   0  0  0  0  0  0  0  0  0  0  0  0
   -3.7356    1.3605   -2.8825 H   0  0  0  0  0  0  0  0  0  0  0  0
   -2.5780   -1.2369   -2.5402 H   0  0  0  0  0  0  0  0  0  0  0  0
   -1.0648    0.7223   -4.3583 H   0  0  0  0  0  0  0  0  0  0  0  0
   -0.4218   -0.8092   -3.7248 H   0  0  0  0  0  0  0  0  0  0  0  0
   -1.7688   -0.8249   -4.8780 H   0  0  0  0  0  0  0  0  0  0  0  0
   -0.6537   -0.0567   -0.9820 N   0  0  0  0  0  0  0  0  0  0  0  0
    0.1622    0.5594    0.0773 C   0  0  2  0  0  0  0  0  0  0  0  0
    0.9328    1.8454   -0.3508 C   0  0  0  0  0  0  0  0  0  0  0  0
    0.3771    2.8564   -0.7616 O   0  0  0  0  0  0  0  0  0  0  0  0
    1.1281   -0.5560    0.5424 C   0  0  0  0  0  0  0  0  0  0  0  0
    0.4352   -1.6948    1.2836 C   0  0  0  0  0  0  0  0  0  0  0  0
   -0.6110   -1.4573    1.9316 O   0  5  0  0  0  0  0  0  0  0  0  0
    0.9275   -2.8347    1.1147 O   0  0  0  0  0  0  0  0  0  0  0  0
   -0.4426   -1.0230   -1.2136 H   0  0  0  0  0  0  0  0  0  0  0  0
   -0.4878    0.8508    0.9102 H   0  0  0  0  0  0  0  0  0  0  0  0
    1.8520   -0.1400    1.2473 H   0  0  0  0  0  0  0  0  0  0  0  0
    1.6789   -0.9564   -0.3142 H   0  0  0  0  0  0  0  0  0  0  0  0
    2.3164    1.8973   -0.2818 N   0  0  0  0  0  0  0  0  0  0  0  0
    3.1432    3.0063   -0.7755 C   0  0  2  0  0  0  0  0  0  0  0  0
    4.4833    2.5239   -1.3674 C   0  0  0  0  0  0  0  0  0  0  0  0
    4.9477    1.4299   -1.0668 O   0  0  0  0  0  0  0  0  0  0  0  0
    3.3872    3.9768    0.3831 C   0  0  0  0  0  0  0  0  0  0  0  0
    2.7931    1.0287   -0.0412 H   0  0  0  0  0  0  0  0  0  0  0  0
    2.6123    3.5317   -1.5761 H   0  0  0  0  0  0  0  0  0  0  0  0
    3.9248    3.4755    1.1939 H   0  0  0  0  0  0  0  0  0  0  0  0
    3.9784    4.8340    0.0482 H   0  0  0  0  0  0  0  0  0  0  0  0
    2.4333    4.3465    0.7727 H   0  0  0  0  0  0  0  0  0  0  0  0
    5.1776    3.3308   -2.2513 N   0  0  0  0  0  0  0  0  0  0  0  0
    6.4163    2.9248   -2.9018 C   0  0  0  0  0  0  0  0  0  0  0  0
    4.7403    4.2059   -2.5242 H   0  0  0  0  0  0  0  0  0  0  0  0
    7.1794    2.6793   -2.1561 H   0  0  0  0  0  0  0  0  0  0  0  0
    6.2458    2.0479   -3.5348 H   0  0  0  0  0  0  0  0  0  0  0  0
    6.7962    3.7371   -3.5283 H   0  0  0  0  0  0  0  0  0  0  0  0
  1  2  2  0  0  0  0
  1  3  1  0  0  0  0
  1  7  1  0  0  0  0
  3  4  1  0  0  0  0
  3  5  1  0  0  0  0
  3  6  1  0  0  0  0
  7  8  1  0  0  0  0
  7 12  1  0  0  0  0
  8  9  1  0  0  0  0
  8 11  1  0  0  0  0
  8 13  1  0  0  0  0
  9 10  2  0  0  0  0
  9 17  1  0  0  0  0
 11 14  1  0  0  0  0
 11 15  1  0  0  0  0
 11 16  1  0  0  0  0
 17 18  1  0  0  0  0
 17 25  1  0  0  0  0
 18 19  1  0  0  0  0
 18 21  1  0  0  0  0
 18 26  1  0  0  0  0
 19 20  2  0  0  0  0
 19 29  1  0  0  0  0
 21 22  1  0  0  0  0
 21 27  1  0  0  0  0
 21 28  1  0  0  0  0
 22 23  1  0  0  0  0
 22 24  2  0  0  0  0
 29 30  1  0  0  0  0
 29 34  1  0  0  0  0
 30 31  1  0  0  0  0
 30 33  1  0  0  0  0
 30 35  1  0  0  0  0
 31 32  2  0  0  0  0
 31 39  1  0  0  0  0
 33 36  1  0  0  0  0
 33 37  1  0  0  0  0
 33 38  1  0  0  0  0
 39 40  1  0  0  0  0
 39 41  1  0  0  0  0
 40 42  1  0  0  0  0
 40 43  1  0  0  0  0
 40 44  1  0  0  0  0
M  CHG  1  23  -1
M  END
$$$$

  -OEChem-05262215553D

 44 43  0     1  0  0  0  0  0999 V2000
   -4.7291   -0.1750   -3.8466 C   0  0  0  0  0  0  0  0  0  0  0  0
   -4.8492   -1.3866   -3.9421 O   0  0  0  0  0  0  0  0  0  0  0  0
   -5.8976    0.7303   -4.1913 C   0  0  0  0  0  0  0  0  0  0  0  0
   -5.6089    1.4282   -4.9812 H   0  0  0  0  0  0  0  0  0  0  0  0
   -6.7475    0.1359   -4.5381 H   0  0  0  0  0  0  0  0  0  0  0  0
   -6.2005    1.2973   -3.3074 H   0  0  0  0  0  0  0  0  0  0  0  0
   -3.5407    0.3827   -3.4299 N   0  0  0  0  0  0  0  0  0  0  0  0
   -2.4129   -0.3670   -2.8617 C   0  0  2  0  0  0  0  0  0  0  0  0
   -1.5754    0.5332   -1.9251 C   0  0  0  0  0  0  0  0  0  0  0  0
   -1.8253    1.7312   -1.8797 O   0  0  0  0  0  0  0  0  0  0  0  0
   -1.5457   -0.9048   -4.0052 C   0  0  0  0  0  0  0  0  0  0  0  0
   -3.5359    1.3861   -3.2432 H   0  0  0  0  0  0  0  0  0  0  0  0
   -2.7906   -1.2050   -2.2654 H   0  0  0  0  0  0  0  0  0  0  0  0
   -1.1450   -0.0784   -4.6008 H   0  0  0  0  0  0  0  0  0  0  0  0
   -0.7088   -1.4891   -3.6110 H   0  0  0  0  0  0  0  0  0  0  0  0
   -2.1372   -1.5523   -4.6596 H   0  0  0  0  0  0  0  0  0  0  0  0
   -0.5837   -0.0303   -1.1457 N   0  0  0  0  0  0  0  0  0  0  0  0
    0.1802    0.6311   -0.0744 C   0  0  2  0  0  0  0  0  0  0  0  0
    1.0063    1.8721   -0.5160 C   0  0  0  0  0  0  0  0  0  0  0  0
    0.5259    2.9992   -0.5346 O   0  0  0  0  0  0  0  0  0  0  0  0
    1.0922   -0.4700    0.5124 C   0  0  0  0  0  0  0  0  0  0  0  0
    0.3246   -1.5472    1.2709 C   0  0  0  0  0  0  0  0  0  0  0  0
   -0.7546   -1.2459    1.8322 O   0  5  0  0  0  0  0  0  0  0  0  0
    0.7804   -2.7102    1.1807 O   0  0  0  0  0  0  0  0  0  0  0  0
   -0.5992   -1.0468   -1.1025 H   0  0  0  0  0  0  0  0  0  0  0  0
   -0.5127    0.9835    0.6985 H   0  0  0  0  0  0  0  0  0  0  0  0
    1.7847   -0.0195    1.2285 H   0  0  0  0  0  0  0  0  0  0  0  0
    1.6815   -0.9348   -0.2838 H   0  0  0  0  0  0  0  0  0  0  0  0
    2.3827    1.7844   -0.6525 N   0  0  0  0  0  0  0  0  0  0  0  0
    3.2660    2.8949   -1.0297 C   0  0  2  0  0  0  0  0  0  0  0  0
    4.3138    2.4845   -2.0841 C   0  0  0  0  0  0  0  0  0  0  0  0
    4.6816    1.3194   -2.1892 O   0  0  0  0  0  0  0  0  0  0  0  0
    3.9532    3.3992    0.2410 C   0  0  0  0  0  0  0  0  0  0  0  0
    2.7754    0.8446   -0.6684 H   0  0  0  0  0  0  0  0  0  0  0  0
    2.6778    3.7100   -1.4639 H   0  0  0  0  0  0  0  0  0  0  0  0
    4.5552    2.6035    0.6914 H   0  0  0  0  0  0  0  0  0  0  0  0
    4.6068    4.2465    0.0136 H   0  0  0  0  0  0  0  0  0  0  0  0
    3.2042    3.7250    0.9698 H   0  0  0  0  0  0  0  0  0  0  0  0
    4.8660    3.4445   -2.9133 N   0  0  0  0  0  0  0  0  0  0  0  0
    5.8142    3.1355   -3.9747 C   0  0  0  0  0  0  0  0  0  0  0  0
    4.4928    4.3866   -2.8442 H   0  0  0  0  0  0  0  0  0  0  0  0
    6.7012    2.6414   -3.5650 H   0  0  0  0  0  0  0  0  0  0  0  0
    5.3538    2.4766   -4.7182 H   0  0  0  0  0  0  0  0  0  0  0  0
    6.1321    4.0549   -4.4752 H   0  0  0  0  0  0  0  0  0  0  0  0
  1  2  2  0  0  0  0
  1  3  1  0  0  0  0
  1  7  1  0  0  0  0
  3  4  1  0  0  0  0
  3  5  1  0  0  0  0
  3  6  1  0  0  0  0
  7  8  1  0  0  0  0
  7 12  1  0  0  0  0
  8  9  1  0  0  0  0
  8 11  1  0  0  0  0
  8 13  1  0  0  0  0
  9 10  2  0  0  0  0
  9 17  1  0  0  0  0
 11 14  1  0  0  0  0
 11 15  1  0  0  0  0
 11 16  1  0  0  0  0
 17 18  1  0  0  0  0
 17 25  1  0  0  0  0
 18 19  1  0  0  0  0
 18 21  1  0  0  0  0
 18 26  1  0  0  0  0
 19 20  2  0  0  0  0
 19 29  1  0  0  0  0
 21 22  1  0  0  0  0
 21 27  1  0  0  0  0
 21 28  1  0  0  0  0
 22 23  1  0  0  0  0
 22 24  2  0  0  0  0
 29 30  1  0  0  0  0
 29 34  1  0  0  0  0
 30 31  1  0  0  0  0
 30 33  1  0  0  0  0
 30 35  1  0  0  0  0
 31 32  2  0  0  0  0
 31 39  1  0  0  0  0
 33 36  1  0  0  0  0
 33 37  1  0  0  0  0
 33 38  1  0  0  0  0
 39 40  1  0  0  0  0
 39 41  1  0  0  0  0
 40 42  1  0  0  0  0
 40 43  1  0  0  0  0
 40 44  1  0  0  0  0
M  CHG  1  23  -1
M  END
$$$$

  -OEChem-05262215553D

 44 43  0     1  0  0  0  0  0999 V2000
   -4.7171   -0.1644   -3.8276 C   0  0  0  0  0  0  0  0  0  0  0  0
   -4.8585   -1.3741   -3.9173 O   0  0  0  0  0  0  0  0  0  0  0  0
   -5.8759    0.7598   -4.1544 C   0  0  0  0  0  0  0  0  0  0  0  0
   -5.5889    1.4509   -4.9506 H   0  0  0  0  0  0  0  0  0  0  0  0
   -6.7415    0.1795   -4.4856 H   0  0  0  0  0  0  0  0  0  0  0  0
   -6.1539    1.3335   -3.2668 H   0  0  0  0  0  0  0  0  0  0  0  0
   -3.5151    0.3754   -3.4266 N   0  0  0  0  0  0  0  0  0  0  0  0
   -2.3917   -0.3889   -2.8699 C   0  0  2  0  0  0  0  0  0  0  0  0
   -1.5249    0.5059   -1.9558 C   0  0  0  0  0  0  0  0  0  0  0  0
   -1.7154    1.7163   -1.9574 O   0  0  0  0  0  0  0  0  0  0  0  0
   -1.5494   -0.9486   -4.0215 C   0  0  0  0  0  0  0  0  0  0  0  0
   -3.4881    1.3811   -3.2552 H   0  0  0  0  0  0  0  0  0  0  0  0
   -2.7739   -1.2155   -2.2608 H   0  0  0  0  0  0  0  0  0  0  0  0
   -1.1573   -0.1338   -4.6384 H   0  0  0  0  0  0  0  0  0  0  0  0
   -0.7068   -1.5292   -3.6341 H   0  0  0  0  0  0  0  0  0  0  0  0
   -2.1557   -1.6046   -4.6536 H   0  0  0  0  0  0  0  0  0  0  0  0
   -0.5505   -0.0645   -1.1604 N   0  0  0  0  0  0  0  0  0  0  0  0
    0.1776    0.6107   -0.0742 C   0  0  2  0  0  0  0  0  0  0  0  0
    0.9915    1.8530   -0.5209 C   0  0  0  0  0  0  0  0  0  0  0  0
    0.5866    2.9931   -0.3206 O   0  0  0  0  0  0  0  0  0  0  0  0
    1.1071   -0.4621    0.5334 C   0  0  0  0  0  0  0  0  0  0  0  0
    0.3512   -1.5567    1.2784 C   0  0  0  0  0  0  0  0  0  0  0  0
   -0.7476   -1.2808    1.8149 O   0  5  0  0  0  0  0  0  0  0  0  0
    0.8362   -2.7091    1.2000 O   0  0  0  0  0  0  0  0  0  0  0  0
   -0.6029   -1.0778   -1.0802 H   0  0  0  0  0  0  0  0  0  0  0  0
   -0.5346    0.9572    0.6839 H   0  0  0  0  0  0  0  0  0  0  0  0
    1.7780    0.0129    1.2543 H   0  0  0  0  0  0  0  0  0  0  0  0
    1.7204   -0.9173   -0.2501 H   0  0  0  0  0  0  0  0  0  0  0  0
    2.3067    1.7090   -0.9296 N   0  0  0  0  0  0  0  0  0  0  0  0
    3.1570    2.8028   -1.4124 C   0  0  2  0  0  0  0  0  0  0  0  0
    3.9127    2.4275   -2.7034 C   0  0  0  0  0  0  0  0  0  0  0  0
    4.1890    1.2592   -2.9546 O   0  0  0  0  0  0  0  0  0  0  0  0
    4.1412    3.1597   -0.2968 C   0  0  0  0  0  0  0  0  0  0  0  0
    2.6126    0.7573   -1.1241 H   0  0  0  0  0  0  0  0  0  0  0  0
    2.5443    3.6811   -1.6411 H   0  0  0  0  0  0  0  0  0  0  0  0
    4.7715    2.2983   -0.0537 H   0  0  0  0  0  0  0  0  0  0  0  0
    4.7848    3.9896   -0.6033 H   0  0  0  0  0  0  0  0  0  0  0  0
    3.5955    3.4583    0.6040 H   0  0  0  0  0  0  0  0  0  0  0  0
    4.3089    3.4178   -3.5846 N   0  0  0  0  0  0  0  0  0  0  0  0
    4.9824    3.1415   -4.8466 C   0  0  0  0  0  0  0  0  0  0  0  0
    4.0088    4.3667   -3.3818 H   0  0  0  0  0  0  0  0  0  0  0  0
    5.9264    2.6158   -4.6693 H   0  0  0  0  0  0  0  0  0  0  0  0
    4.3489    2.5229   -5.4908 H   0  0  0  0  0  0  0  0  0  0  0  0
    5.2012    4.0768   -5.3701 H   0  0  0  0  0  0  0  0  0  0  0  0
  1  2  2  0  0  0  0
  1  3  1  0  0  0  0
  1  7  1  0  0  0  0
  3  4  1  0  0  0  0
  3  5  1  0  0  0  0
  3  6  1  0  0  0  0
  7  8  1  0  0  0  0
  7 12  1  0  0  0  0
  8  9  1  0  0  0  0
  8 11  1  0  0  0  0
  8 13  1  0  0  0  0
  9 10  2  0  0  0  0
  9 17  1  0  0  0  0
 11 14  1  0  0  0  0
 11 15  1  0  0  0  0
 11 16  1  0  0  0  0
 17 18  1  0  0  0  0
 17 25  1  0  0  0  0
 18 19  1  0  0  0  0
 18 21  1  0  0  0  0
 18 26  1  0  0  0  0
 19 20  2  0  0  0  0
 19 29  1  0  0  0  0
 21 22  1  0  0  0  0
 21 27  1  0  0  0  0
 21 28  1  0  0  0  0
 22 23  1  0  0  0  0
 22 24  2  0  0  0  0
 29 30  1  0  0  0  0
 29 34  1  0  0  0  0
 30 31  1  0  0  0  0
 30 33  1  0  0  0  0
 30 35  1  0  0  0  0
 31 32  2  0  0  0  0
 31 39  1  0  0  0  0
 33 36  1  0  0  0  0
 33 37  1  0  0  0  0
 33 38  1  0  0  0  0
 39 40  1  0  0  0  0
 39 41  1  0  0  0  0
 40 42  1  0  0  0  0
 40 43  1  0  0  0  0
 40 44  1  0  0  0  0
M  CHG  1  23  -1
M  END
$$$$

  -OEChem-05262215553D

 44 43  0     1  0  0  0  0  0999 V2000
   -4.7036   -0.1388   -3.8202 C   0  0  0  0  0  0  0  0  0  0  0  0
   -4.9103   -1.3424   -3.8216 O   0  0  0  0  0  0  0  0  0  0  0  0
   -5.8047    0.8182   -4.2389 C   0  0  0  0  0  0  0  0  0  0  0  0
   -5.4826    1.4020   -5.1047 H   0  0  0  0  0  0  0  0  0  0  0  0
   -6.7080    0.2617   -4.5039 H   0  0  0  0  0  0  0  0  0  0  0  0
   -6.0383    1.4988   -3.4165 H   0  0  0  0  0  0  0  0  0  0  0  0
   -3.4767    0.3630   -3.4459 N   0  0  0  0  0  0  0  0  0  0  0  0
   -2.3975   -0.4240   -2.8362 C   0  0  2  0  0  0  0  0  0  0  0  0
   -1.4886    0.4735   -1.9674 C   0  0  0  0  0  0  0  0  0  0  0  0
   -1.6317    1.6906   -2.0112 O   0  0  0  0  0  0  0  0  0  0  0  0
   -1.5833   -1.0950   -3.9476 C   0  0  0  0  0  0  0  0  0  0  0  0
   -3.3960    1.3748   -3.3429 H   0  0  0  0  0  0  0  0  0  0  0  0
   -2.8255   -1.1925   -2.1828 H   0  0  0  0  0  0  0  0  0  0  0  0
   -1.1418   -0.3403   -4.6060 H   0  0  0  0  0  0  0  0  0  0  0  0
   -0.7776   -1.7008   -3.5217 H   0  0  0  0  0  0  0  0  0  0  0  0
   -2.2243   -1.7491   -4.5465 H   0  0  0  0  0  0  0  0  0  0  0  0
   -0.5237   -0.0986   -1.1617 N   0  0  0  0  0  0  0  0  0  0  0  0
    0.1856    0.5939   -0.0747 C   0  0  2  0  0  0  0  0  0  0  0  0
    0.9933    1.8317   -0.5345 C   0  0  0  0  0  0  0  0  0  0  0  0
    0.7075    2.9601   -0.1469 O   0  0  0  0  0  0  0  0  0  0  0  0
    1.1291   -0.4545    0.5492 C   0  0  0  0  0  0  0  0  0  0  0  0
    0.3839   -1.5547    1.2963 C   0  0  0  0  0  0  0  0  0  0  0  0
   -0.7248   -1.2904    1.8187 O   0  5  0  0  0  0  0  0  0  0  0  0
    0.8828   -2.7017    1.2271 O   0  0  0  0  0  0  0  0  0  0  0  0
   -0.6070   -1.1070   -1.0467 H   0  0  0  0  0  0  0  0  0  0  0  0
   -0.5356    0.9417    0.6742 H   0  0  0  0  0  0  0  0  0  0  0  0
    1.7856    0.0416    1.2693 H   0  0  0  0  0  0  0  0  0  0  0  0
    1.7577   -0.9052   -0.2245 H   0  0  0  0  0  0  0  0  0  0  0  0
    2.1877    1.6613   -1.2134 N   0  0  0  0  0  0  0  0  0  0  0  0
    2.9881    2.7567   -1.7716 C   0  0  2  0  0  0  0  0  0  0  0  0
    3.3884    2.4951   -3.2378 C   0  0  0  0  0  0  0  0  0  0  0  0
    3.5507    1.3518   -3.6516 O   0  0  0  0  0  0  0  0  0  0  0  0
    4.2311    2.9272   -0.8962 C   0  0  0  0  0  0  0  0  0  0  0  0
    2.3664    0.7241   -1.5691 H   0  0  0  0  0  0  0  0  0  0  0  0
    2.4130    3.6880   -1.7558 H   0  0  0  0  0  0  0  0  0  0  0  0
    4.8321    2.0122   -0.9025 H   0  0  0  0  0  0  0  0  0  0  0  0
    4.8471    3.7536   -1.2628 H   0  0  0  0  0  0  0  0  0  0  0  0
    3.9375    3.1446    0.1356 H   0  0  0  0  0  0  0  0  0  0  0  0
    3.5981    3.5600   -4.0956 N   0  0  0  0  0  0  0  0  0  0  0  0
    3.9167    3.3973   -5.5075 C   0  0  0  0  0  0  0  0  0  0  0  0
    3.3769    4.4870   -3.7442 H   0  0  0  0  0  0  0  0  0  0  0  0
    4.8440    2.8274   -5.6275 H   0  0  0  0  0  0  0  0  0  0  0  0
    3.1079    2.8702   -6.0243 H   0  0  0  0  0  0  0  0  0  0  0  0
    4.0502    4.3757   -5.9786 H   0  0  0  0  0  0  0  0  0  0  0  0
  1  2  2  0  0  0  0
  1  3  1  0  0  0  0
  1  7  1  0  0  0  0
  3  4  1  0  0  0  0
  3  5  1  0  0  0  0
  3  6  1  0  0  0  0
  7  8  1  0  0  0  0
  7 12  1  0  0  0  0
  8  9  1  0  0  0  0
  8 11  1  0  0  0  0
  8 13  1  0  0  0  0
  9 10  2  0  0  0  0
  9 17  1  0  0  0  0
 11 14  1  0  0  0  0
 11 15  1  0  0  0  0
 11 16  1  0  0  0  0
 17 18  1  0  0  0  0
 17 25  1  0  0  0  0
 18 19  1  0  0  0  0
 18 21  1  0  0  0  0
 18 26  1  0  0  0  0
 19 20  2  0  0  0  0
 19 29  1  0  0  0  0
 21 22  1  0  0  0  0
 21 27  1  0  0  0  0
 21 28  1  0  0  0  0
 22 23  1  0  0  0  0
 22 24  2  0  0  0  0
 29 30  1  0  0  0  0
 29 34  1  0  0  0  0
 30 31  1  0  0  0  0
 30 33  1  0  0  0  0
 30 35  1  0  0  0  0
 31 32  2  0  0  0  0
 31 39  1  0  0  0  0
 33 36  1  0  0  0  0
 33 37  1  0  0  0  0
 33 38  1  0  0  0  0
 39 40  1  0  0  0  0
 39 41  1  0  0  0  0
 40 42  1  0  0  0  0
 40 43  1  0  0  0  0
 40 44  1  0  0  0  0
M  CHG  1  23  -1
M  END
$$$$

  -OEChem-05262215553D

 44 43  0     1  0  0  0  0  0999 V2000
   -4.1481    0.1628   -4.3148 C   0  0  0  0  0  0  0  0  0  0  0  0
   -4.5678   -0.9691   -4.1319 O   0  0  0  0  0  0  0  0  0  0  0  0
   -4.9694    1.1548   -5.1180 C   0  0  0  0  0  0  0  0  0  0  0  0
   -4.3907    1.5124   -5.9733 H   0  0  0  0  0  0  0  0  0  0  0  0
   -5.8833    0.6791   -5.4846 H   0  0  0  0  0  0  0  0  0  0  0  0
   -5.2424    2.0069   -4.4906 H   0  0  0  0  0  0  0  0  0  0  0  0
   -2.9300    0.5506   -3.8007 N   0  0  0  0  0  0  0  0  0  0  0  0
   -2.1117   -0.2459   -2.8768 C   0  0  2  0  0  0  0  0  0  0  0  0
   -1.1656    0.6640   -2.0620 C   0  0  0  0  0  0  0  0  0  0  0  0
   -1.0961    1.8586   -2.3351 O   0  0  0  0  0  0  0  0  0  0  0  0
   -1.3045   -1.2720   -3.6816 C   0  0  0  0  0  0  0  0  0  0  0  0
   -2.6856    1.5384   -3.8714 H   0  0  0  0  0  0  0  0  0  0  0  0
   -2.7623   -0.7696   -2.1675 H   0  0  0  0  0  0  0  0  0  0  0  0
   -0.6341   -0.7646   -4.3824 H   0  0  0  0  0  0  0  0  0  0  0  0
   -0.7044   -1.8983   -3.0146 H   0  0  0  0  0  0  0  0  0  0  0  0
   -1.9742   -1.9246   -4.2500 H   0  0  0  0  0  0  0  0  0  0  0  0
   -0.3552    0.1279   -1.0797 N   0  0  0  0  0  0  0  0  0  0  0  0
    0.3145    0.9213   -0.0366 C   0  0  2  0  0  0  0  0  0  0  0  0
    1.2843    1.9789   -0.6079 C   0  0  0  0  0  0  0  0  0  0  0  0
    1.1435    3.1736   -0.3784 O   0  0  0  0  0  0  0  0  0  0  0  0
    1.1059   -0.0912    0.8130 C   0  0  0  0  0  0  0  0  0  0  0  0
    0.2015   -1.0103    1.6253 C   0  0  0  0  0  0  0  0  0  0  0  0
   -0.9197   -0.5862    1.9915 O   0  5  0  0  0  0  0  0  0  0  0  0
    0.5860   -2.1969    1.7380 O   0  0  0  0  0  0  0  0  0  0  0  0
   -0.6056   -0.8187   -0.7963 H   0  0  0  0  0  0  0  0  0  0  0  0
   -0.4264    1.4445    0.5799 H   0  0  0  0  0  0  0  0  0  0  0  0
    1.7386    0.4528    1.5197 H   0  0  0  0  0  0  0  0  0  0  0  0
    1.7572   -0.6950    0.1742 H   0  0  0  0  0  0  0  0  0  0  0  0
    2.3504    1.5758   -1.3911 N   0  0  0  0  0  0  0  0  0  0  0  0
    3.2328    2.4981   -2.1209 C   0  0  2  0  0  0  0  0  0  0  0  0
    2.6670    2.9090   -3.5050 C   0  0  0  0  0  0  0  0  0  0  0  0
    3.4174    3.1281   -4.4515 O   0  0  0  0  0  0  0  0  0  0  0  0
    4.6022    1.8146   -2.2197 C   0  0  0  0  0  0  0  0  0  0  0  0
    2.3792    0.5868   -1.6199 H   0  0  0  0  0  0  0  0  0  0  0  0
    3.3589    3.4197   -1.5430 H   0  0  0  0  0  0  0  0  0  0  0  0
    4.5355    0.9084   -2.8296 H   0  0  0  0  0  0  0  0  0  0  0  0
    5.3335    2.4885   -2.6766 H   0  0  0  0  0  0  0  0  0  0  0  0
    4.9635    1.5418   -1.2233 H   0  0  0  0  0  0  0  0  0  0  0  0
    1.3027    3.0084   -3.7103 N   0  0  0  0  0  0  0  0  0  0  0  0
    0.6917    3.3807   -4.9765 C   0  0  0  0  0  0  0  0  0  0  0  0
    0.6915    2.8423   -2.9044 H   0  0  0  0  0  0  0  0  0  0  0  0
    1.0396    4.3686   -5.2949 H   0  0  0  0  0  0  0  0  0  0  0  0
    0.9406    2.6491   -5.7515 H   0  0  0  0  0  0  0  0  0  0  0  0
   -0.3967    3.4152   -4.8684 H   0  0  0  0  0  0  0  0  0  0  0  0
  1  2  2  0  0  0  0
  1  3  1  0  0  0  0
  1  7  1  0  0  0  0
  3  4  1  0  0  0  0
  3  5  1  0  0  0  0
  3  6  1  0  0  0  0
  7  8  1  0  0  0  0
  7 12  1  0  0  0  0
  8  9  1  0  0  0  0
  8 11  1  0  0  0  0
  8 13  1  0  0  0  0
  9 10  2  0  0  0  0
  9 17  1  0  0  0  0
 11 14  1  0  0  0  0
 11 15  1  0  0  0  0
 11 16  1  0  0  0  0
 17 18  1  0  0  0  0
 17 25  1  0  0  0  0
 18 19  1  0  0  0  0
 18 21  1  0  0  0  0
 18 26  1  0  0  0  0
 19 20  2  0  0  0  0
 19 29  1  0  0  0  0
 21 22  1  0  0  0  0
 21 27  1  0  0  0  0
 21 28  1  0  0  0  0
 22 23  1  0  0  0  0
 22 24  2  0  0  0  0
 29 30  1  0  0  0  0
 29 34  1  0  0  0  0
 30 31  1  0  0  0  0
 30 33  1  0  0  0  0
 30 35  1  0  0  0  0
 31 32  2  0  0  0  0
 31 39  1  0  0  0  0
 33 36  1  0  0  0  0
 33 37  1  0  0  0  0
 33 38  1  0  0  0  0
 39 40  1  0  0  0  0
 39 41  1  0  0  0  0
 40 42  1  0  0  0  0
 40 43  1  0  0  0  0
 40 44  1  0  0  0  0
M  CHG  1  23  -1
M  END
$$$$

  -OEChem-05262215553D

 44 43  0     1  0  0  0  0  0999 V2000
   -4.2545   -0.0328   -4.3148 C   0  0  0  0  0  0  0  0  0  0  0  0
   -4.6626   -1.1615   -4.0909 O   0  0  0  0  0  0  0  0  0  0  0  0
   -5.1004    0.9332   -5.1240 C   0  0  0  0  0  0  0  0  0  0  0  0
   -4.5565    1.2436   -6.0194 H   0  0  0  0  0  0  0  0  0  0  0  0
   -6.0359    0.4546   -5.4273 H   0  0  0  0  0  0  0  0  0  0  0  0
   -5.3341    1.8164   -4.5243 H   0  0  0  0  0  0  0  0  0  0  0  0
   -3.0255    0.3750   -3.8440 N   0  0  0  0  0  0  0  0  0  0  0  0
   -2.1897   -0.3870   -2.9066 C   0  0  2  0  0  0  0  0  0  0  0  0
   -1.2518    0.5560   -2.1206 C   0  0  0  0  0  0  0  0  0  0  0  0
   -1.2308    1.7535   -2.3913 O   0  0  0  0  0  0  0  0  0  0  0  0
   -1.3784   -1.4250   -3.6917 C   0  0  0  0  0  0  0  0  0  0  0  0
   -2.7956    1.3638   -3.9415 H   0  0  0  0  0  0  0  0  0  0  0  0
   -2.8279   -0.9006   -2.1786 H   0  0  0  0  0  0  0  0  0  0  0  0
   -0.7141   -0.9303   -4.4072 H   0  0  0  0  0  0  0  0  0  0  0  0
   -0.7719   -2.0331   -3.0134 H   0  0  0  0  0  0  0  0  0  0  0  0
   -2.0468   -2.0941   -4.2424 H   0  0  0  0  0  0  0  0  0  0  0  0
   -0.3939    0.0536   -1.1621 N   0  0  0  0  0  0  0  0  0  0  0  0
    0.2527    0.8773   -0.1266 C   0  0  2  0  0  0  0  0  0  0  0  0
    1.1540    1.9948   -0.6970 C   0  0  0  0  0  0  0  0  0  0  0  0
    1.1479    3.1263   -0.2290 O   0  0  0  0  0  0  0  0  0  0  0  0
    1.1200   -0.0980    0.6890 C   0  0  0  0  0  0  0  0  0  0  0  0
    0.2861   -1.0759    1.5084 C   0  0  0  0  0  0  0  0  0  0  0  0
   -0.8482   -0.7181    1.9049 O   0  5  0  0  0  0  0  0  0  0  0  0
    0.7300   -2.2448    1.5840 O   0  0  0  0  0  0  0  0  0  0  0  0
   -0.5962   -0.9036   -0.8739 H   0  0  0  0  0  0  0  0  0  0  0  0
   -0.5018    1.3508    0.5127 H   0  0  0  0  0  0  0  0  0  0  0  0
    1.7363    0.4725    1.3891 H   0  0  0  0  0  0  0  0  0  0  0  0
    1.7913   -0.6525    0.0265 H   0  0  0  0  0  0  0  0  0  0  0  0
    2.0236    1.7049   -1.7328 N   0  0  0  0  0  0  0  0  0  0  0  0
    2.8831    2.6940   -2.4002 C   0  0  2  0  0  0  0  0  0  0  0  0
    2.1892    3.4325   -3.5727 C   0  0  0  0  0  0  0  0  0  0  0  0
    2.8582    4.0289   -4.4115 O   0  0  0  0  0  0  0  0  0  0  0  0
    4.1393    1.9456   -2.8605 C   0  0  0  0  0  0  0  0  0  0  0  0
    1.9403    0.7751   -2.1313 H   0  0  0  0  0  0  0  0  0  0  0  0
    3.1889    3.4580   -1.6777 H   0  0  0  0  0  0  0  0  0  0  0  0
    3.8848    1.1984   -3.6186 H   0  0  0  0  0  0  0  0  0  0  0  0
    4.8638    2.6445   -3.2900 H   0  0  0  0  0  0  0  0  0  0  0  0
    4.6121    1.4397   -2.0129 H   0  0  0  0  0  0  0  0  0  0  0  0
    0.8161    3.3890   -3.7345 N   0  0  0  0  0  0  0  0  0  0  0  0
    0.0988    4.0957   -4.7838 C   0  0  0  0  0  0  0  0  0  0  0  0
    0.2724    2.9326   -2.9955 H   0  0  0  0  0  0  0  0  0  0  0  0
    0.2335    5.1767   -4.6763 H   0  0  0  0  0  0  0  0  0  0  0  0
    0.4598    3.7884   -5.7705 H   0  0  0  0  0  0  0  0  0  0  0  0
   -0.9700    3.8705   -4.7216 H   0  0  0  0  0  0  0  0  0  0  0  0
  1  2  2  0  0  0  0
  1  3  1  0  0  0  0
  1  7  1  0  0  0  0
  3  4  1  0  0  0  0
  3  5  1  0  0  0  0
  3  6  1  0  0  0  0
  7  8  1  0  0  0  0
  7 12  1  0  0  0  0
  8  9  1  0  0  0  0
  8 11  1  0  0  0  0
  8 13  1  0  0  0  0
  9 10  2  0  0  0  0
  9 17  1  0  0  0  0
 11 14  1  0  0  0  0
 11 15  1  0  0  0  0
 11 16  1  0  0  0  0
 17 18  1  0  0  0  0
 17 25  1  0  0  0  0
 18 19  1  0  0  0  0
 18 21  1  0  0  0  0
 18 26  1  0  0  0  0
 19 20  2  0  0  0  0
 19 29  1  0  0  0  0
 21 22  1  0  0  0  0
 21 27  1  0  0  0  0
 21 28  1  0  0  0  0
 22 23  1  0  0  0  0
 22 24  2  0  0  0  0
 29 30  1  0  0  0  0
 29 34  1  0  0  0  0
 30 31  1  0  0  0  0
 30 33  1  0  0  0  0
 30 35  1  0  0  0  0
 31 32  2  0  0  0  0
 31 39  1  0  0  0  0
 33 36  1  0  0  0  0
 33 37  1  0  0  0  0
 33 38  1  0  0  0  0
 39 40  1  0  0  0  0
 39 41  1  0  0  0  0
 40 42  1  0  0  0  0
 40 43  1  0  0  0  0
 40 44  1  0  0  0  0
M  CHG  1  23  -1
M  END
$$$$

  -OEChem-05262215553D

 44 43  0     1  0  0  0  0  0999 V2000
   -4.1499   -0.3782   -4.6265 C   0  0  0  0  0  0  0  0  0  0  0  0
   -4.5434   -1.5064   -4.3742 O   0  0  0  0  0  0  0  0  0  0  0  0
   -4.9734    0.5299   -5.5216 C   0  0  0  0  0  0  0  0  0  0  0  0
   -4.3813    0.8373   -6.3873 H   0  0  0  0  0  0  0  0  0  0  0  0
   -5.8667    0.0060   -5.8726 H   0  0  0  0  0  0  0  0  0  0  0  0
   -5.2818    1.4193   -4.9662 H   0  0  0  0  0  0  0  0  0  0  0  0
   -2.9639    0.0850   -4.1003 N   0  0  0  0  0  0  0  0  0  0  0  0
   -2.1792   -0.6023   -3.0659 C   0  0  2  0  0  0  0  0  0  0  0  0
   -1.3354    0.4117   -2.2610 C   0  0  0  0  0  0  0  0  0  0  0  0
   -1.3961    1.6049   -2.5405 O   0  0  0  0  0  0  0  0  0  0  0  0
   -1.2816   -1.6502   -3.7356 C   0  0  0  0  0  0  0  0  0  0  0  0
   -2.7585    1.0768   -4.2249 H   0  0  0  0  0  0  0  0  0  0  0  0
   -2.8541   -1.1014   -2.3616 H   0  0  0  0  0  0  0  0  0  0  0  0
   -0.5812   -1.1690   -4.4253 H   0  0  0  0  0  0  0  0  0  0  0  0
   -0.7099   -2.2047   -2.9850 H   0  0  0  0  0  0  0  0  0  0  0  0
   -1.8882   -2.3666   -4.2985 H   0  0  0  0  0  0  0  0  0  0  0  0
   -0.4844   -0.0155   -1.2595 N   0  0  0  0  0  0  0  0  0  0  0  0
    0.1137    0.8777   -0.2520 C   0  0  2  0  0  0  0  0  0  0  0  0
    0.9995    1.9990   -0.8425 C   0  0  0  0  0  0  0  0  0  0  0  0
    1.1083    3.0869   -0.2865 O   0  0  0  0  0  0  0  0  0  0  0  0
    0.9878   -0.0321    0.6290 C   0  0  0  0  0  0  0  0  0  0  0  0
    0.1621   -0.9929    1.4768 C   0  0  0  0  0  0  0  0  0  0  0  0
   -0.9908   -0.6486    1.8305 O   0  5  0  0  0  0  0  0  0  0  0  0
    0.6376   -2.1425    1.6238 O   0  0  0  0  0  0  0  0  0  0  0  0
   -0.6339   -0.9747   -0.9475 H   0  0  0  0  0  0  0  0  0  0  0  0
   -0.6714    1.3553    0.3459 H   0  0  0  0  0  0  0  0  0  0  0  0
    1.5718    0.5873    1.3150 H   0  0  0  0  0  0  0  0  0  0  0  0
    1.6899   -0.5967    0.0080 H   0  0  0  0  0  0  0  0  0  0  0  0
    1.6810    1.7933   -2.0288 N   0  0  0  0  0  0  0  0  0  0  0  0
    2.4397    2.8328   -2.7385 C   0  0  2  0  0  0  0  0  0  0  0  0
    1.5237    3.7973   -3.5331 C   0  0  0  0  0  0  0  0  0  0  0  0
    1.6827    3.9974   -4.7344 O   0  0  0  0  0  0  0  0  0  0  0  0
    3.4684    2.1159   -3.6211 C   0  0  0  0  0  0  0  0  0  0  0  0
    1.3982    0.9649   -2.5429 H   0  0  0  0  0  0  0  0  0  0  0  0
    2.9891    3.4398   -2.0113 H   0  0  0  0  0  0  0  0  0  0  0  0
    2.9664    1.5015   -4.3751 H   0  0  0  0  0  0  0  0  0  0  0  0
    4.1032    2.8454   -4.1335 H   0  0  0  0  0  0  0  0  0  0  0  0
    4.1074    1.4702   -3.0112 H   0  0  0  0  0  0  0  0  0  0  0  0
    0.5106    4.4579   -2.8675 N   0  0  0  0  0  0  0  0  0  0  0  0
   -0.5381    5.2101   -3.5374 C   0  0  0  0  0  0  0  0  0  0  0  0
    0.3622    4.1633   -1.8985 H   0  0  0  0  0  0  0  0  0  0  0  0
   -0.1066    5.9963   -4.1653 H   0  0  0  0  0  0  0  0  0  0  0  0
   -1.1415    4.5448   -4.1634 H   0  0  0  0  0  0  0  0  0  0  0  0
   -1.1922    5.6806   -2.7972 H   0  0  0  0  0  0  0  0  0  0  0  0
  1  2  2  0  0  0  0
  1  3  1  0  0  0  0
  1  7  1  0  0  0  0
  3  4  1  0  0  0  0
  3  5  1  0  0  0  0
  3  6  1  0  0  0  0
  7  8  1  0  0  0  0
  7 12  1  0  0  0  0
  8  9  1  0  0  0  0
  8 11  1  0  0  0  0
  8 13  1  0  0  0  0
  9 10  2  0  0  0  0
  9 17  1  0  0  0  0
 11 14  1  0  0  0  0
 11 15  1  0  0  0  0
 11 16  1  0  0  0  0
 17 18  1  0  0  0  0
 17 25  1  0  0  0  0
 18 19  1  0  0  0  0
 18 21  1  0  0  0  0
 18 26  1  0  0  0  0
 19 20  2  0  0  0  0
 19 29  1  0  0  0  0
 21 22  1  0  0  0  0
 21 27  1  0  0  0  0
 21 28  1  0  0  0  0
 22 23  1  0  0  0  0
 22 24  2  0  0  0  0
 29 30  1  0  0  0  0
 29 34  1  0  0  0  0
 30 31  1  0  0  0  0
 30 33  1  0  0  0  0
 30 35  1  0  0  0  0
 31 32  2  0  0  0  0
 31 39  1  0  0  0  0
 33 36  1  0  0  0  0
 33 37  1  0  0  0  0
 33 38  1  0  0  0  0
 39 40  1  0  0  0  0
 39 41  1  0  0  0  0
 40 42  1  0  0  0  0
 40 43  1  0  0  0  0
 40 44  1  0  0  0  0
M  CHG  1  23  -1
M  END
$$$$

  -OEChem-05262215553D

 44 43  0     1  0  0  0  0  0999 V2000
   -4.8073   -0.2464   -3.7501 C   0  0  0  0  0  0  0  0  0  0  0  0
   -4.9730   -1.4560   -3.7798 O   0  0  0  0  0  0  0  0  0  0  0  0
   -5.9479    0.6831   -4.1230 C   0  0  0  0  0  0  0  0  0  0  0  0
   -5.6647    1.2933   -4.9841 H   0  0  0  0  0  0  0  0  0  0  0  0
   -6.8398    0.1041   -4.3777 H   0  0  0  0  0  0  0  0  0  0  0  0
   -6.1828    1.3400   -3.2818 H   0  0  0  0  0  0  0  0  0  0  0  0
   -3.5934    0.2871   -3.3767 N   0  0  0  0  0  0  0  0  0  0  0  0
   -2.4724   -0.4794   -2.8185 C   0  0  2  0  0  0  0  0  0  0  0  0
   -1.6023    0.4080   -1.9020 C   0  0  0  0  0  0  0  0  0  0  0  0
   -1.7992    1.6192   -1.8649 O   0  0  0  0  0  0  0  0  0  0  0  0
   -1.6332   -1.0347   -3.9746 C   0  0  0  0  0  0  0  0  0  0  0  0
   -3.5402    1.2991   -3.2623 H   0  0  0  0  0  0  0  0  0  0  0  0
   -2.8547   -1.3081   -2.2125 H   0  0  0  0  0  0  0  0  0  0  0  0
   -1.2258   -0.2168   -4.5782 H   0  0  0  0  0  0  0  0  0  0  0  0
   -0.8011   -1.6343   -3.5929 H   0  0  0  0  0  0  0  0  0  0  0  0
   -2.2474   -1.6716   -4.6188 H   0  0  0  0  0  0  0  0  0  0  0  0
   -0.5821   -0.1480   -1.1538 N   0  0  0  0  0  0  0  0  0  0  0  0
    0.1944    0.5677   -0.1246 C   0  0  2  0  0  0  0  0  0  0  0  0
    0.9707    1.8054   -0.6414 C   0  0  0  0  0  0  0  0  0  0  0  0
    1.4547    2.6224    0.1364 O   0  0  0  0  0  0  0  0  0  0  0  0
    1.1950   -0.4703    0.4165 C   0  0  0  0  0  0  0  0  0  0  0  0
    0.5206   -1.5811    1.2147 C   0  0  0  0  0  0  0  0  0  0  0  0
   -0.5470   -1.3291    1.8236 O   0  5  0  0  0  0  0  0  0  0  0  0
    1.0087   -2.7278    1.0818 O   0  0  0  0  0  0  0  0  0  0  0  0
   -0.6067   -1.1623   -1.0587 H   0  0  0  0  0  0  0  0  0  0  0  0
   -0.4707    0.9123    0.6756 H   0  0  0  0  0  0  0  0  0  0  0  0
    1.9005    0.0272    1.0875 H   0  0  0  0  0  0  0  0  0  0  0  0
    1.7682   -0.9031   -0.4086 H   0  0  0  0  0  0  0  0  0  0  0  0
    1.1646    1.9933   -1.9977 N   0  0  0  0  0  0  0  0  0  0  0  0
    1.6419    3.2414   -2.5955 C   0  0  2  0  0  0  0  0  0  0  0  0
    0.9520    3.5209   -3.9470 C   0  0  0  0  0  0  0  0  0  0  0  0
    0.5755    2.5998   -4.6660 O   0  0  0  0  0  0  0  0  0  0  0  0
    3.1585    3.1443   -2.7748 C   0  0  0  0  0  0  0  0  0  0  0  0
    0.5903    1.3984   -2.5919 H   0  0  0  0  0  0  0  0  0  0  0  0
    1.4100    4.0789   -1.9295 H   0  0  0  0  0  0  0  0  0  0  0  0
    3.4117    2.3119   -3.4390 H   0  0  0  0  0  0  0  0  0  0  0  0
    3.5530    4.0693   -3.2053 H   0  0  0  0  0  0  0  0  0  0  0  0
    3.6426    2.9778   -1.8072 H   0  0  0  0  0  0  0  0  0  0  0  0
    0.7771    4.8252   -4.3743 N   0  0  0  0  0  0  0  0  0  0  0  0
    0.0678    5.1743   -5.5975 C   0  0  0  0  0  0  0  0  0  0  0  0
    1.0141    5.5611   -3.7158 H   0  0  0  0  0  0  0  0  0  0  0  0
    0.5433    4.7034   -6.4641 H   0  0  0  0  0  0  0  0  0  0  0  0
   -0.9743    4.8430   -5.5425 H   0  0  0  0  0  0  0  0  0  0  0  0
    0.0810    6.2582   -5.7445 H   0  0  0  0  0  0  0  0  0  0  0  0
  1  2  2  0  0  0  0
  1  3  1  0  0  0  0
  1  7  1  0  0  0  0
  3  4  1  0  0  0  0
  3  5  1  0  0  0  0
  3  6  1  0  0  0  0
  7  8  1  0  0  0  0
  7 12  1  0  0  0  0
  8  9  1  0  0  0  0
  8 11  1  0  0  0  0
  8 13  1  0  0  0  0
  9 10  2  0  0  0  0
  9 17  1  0  0  0  0
 11 14  1  0  0  0  0
 11 15  1  0  0  0  0
 11 16  1  0  0  0  0
 17 18  1  0  0  0  0
 17 25  1  0  0  0  0
 18 19  1  0  0  0  0
 18 21  1  0  0  0  0
 18 26  1  0  0  0  0
 19 20  2  0  0  0  0
 19 29  1  0  0  0  0
 21 22  1  0  0  0  0
 21 27  1  0  0  0  0
 21 28  1  0  0  0  0
 22 23  1  0  0  0  0
 22 24  2  0  0  0  0
 29 30  1  0  0  0  0
 29 34  1  0  0  0  0
 30 31  1  0  0  0  0
 30 33  1  0  0  0  0
 30 35  1  0  0  0  0
 31 32  2  0  0  0  0
 31 39  1  0  0  0  0
 33 36  1  0  0  0  0
 33 37  1  0  0  0  0
 33 38  1  0  0  0  0
 39 40  1  0  0  0  0
 39 41  1  0  0  0  0
 40 42  1  0  0  0  0
 40 43  1  0  0  0  0
 40 44  1  0  0  0  0
M  CHG  1  23  -1
M  END
$$$$

  -OEChem-05262215553D

 44 43  0     1  0  0  0  0  0999 V2000
   -4.8665   -0.4092   -3.7546 C   0  0  0  0  0  0  0  0  0  0  0  0
   -5.0570   -1.6149   -3.7115 O   0  0  0  0  0  0  0  0  0  0  0  0
   -5.9680    0.5148   -4.2411 C   0  0  0  0  0  0  0  0  0  0  0  0
   -5.6148    1.0981   -5.0951 H   0  0  0  0  0  0  0  0  0  0  0  0
   -6.8420   -0.0664   -4.5472 H   0  0  0  0  0  0  0  0  0  0  0  0
   -6.2612    1.1973   -3.4394 H   0  0  0  0  0  0  0  0  0  0  0  0
   -3.6601    0.1268   -3.3620 N   0  0  0  0  0  0  0  0  0  0  0  0
   -2.5775   -0.6190   -2.7075 C   0  0  2  0  0  0  0  0  0  0  0  0
   -1.7164    0.3233   -1.8372 C   0  0  0  0  0  0  0  0  0  0  0  0
   -1.9867    1.5196   -1.7873 O   0  0  0  0  0  0  0  0  0  0  0  0
   -1.7232   -1.2913   -3.7888 C   0  0  0  0  0  0  0  0  0  0  0  0
   -3.5970    1.1435   -3.3047 H   0  0  0  0  0  0  0  0  0  0  0  0
   -2.9991   -1.3851   -2.0475 H   0  0  0  0  0  0  0  0  0  0  0  0
   -1.2712   -0.5369   -4.4407 H   0  0  0  0  0  0  0  0  0  0  0  0
   -0.9242   -1.8862   -3.3359 H   0  0  0  0  0  0  0  0  0  0  0  0
   -2.3390   -1.9575   -4.4009 H   0  0  0  0  0  0  0  0  0  0  0  0
   -0.6183   -0.1576   -1.1521 N   0  0  0  0  0  0  0  0  0  0  0  0
    0.1855    0.5945   -0.1695 C   0  0  2  0  0  0  0  0  0  0  0  0
    0.8734    1.8857   -0.6965 C   0  0  0  0  0  0  0  0  0  0  0  0
    1.6062    2.5503    0.0308 O   0  0  0  0  0  0  0  0  0  0  0  0
    1.2519   -0.4157    0.3008 C   0  0  0  0  0  0  0  0  0  0  0  0
    0.6638   -1.5530    1.1298 C   0  0  0  0  0  0  0  0  0  0  0  0
   -0.3714   -1.3399    1.8061 O   0  5  0  0  0  0  0  0  0  0  0  0
    1.1727   -2.6841    0.9489 O   0  0  0  0  0  0  0  0  0  0  0  0
   -0.5549   -1.1719   -1.0823 H   0  0  0  0  0  0  0  0  0  0  0  0
   -0.4483    0.8967    0.6717 H   0  0  0  0  0  0  0  0  0  0  0  0
    1.9809    0.0959    0.9346 H   0  0  0  0  0  0  0  0  0  0  0  0
    1.7891   -0.8225   -0.5611 H   0  0  0  0  0  0  0  0  0  0  0  0
    0.7336    2.2947   -2.0107 N   0  0  0  0  0  0  0  0  0  0  0  0
    1.2609    3.5510   -2.5515 C   0  0  2  0  0  0  0  0  0  0  0  0
    0.3855    4.1056   -3.6953 C   0  0  0  0  0  0  0  0  0  0  0  0
   -0.2370    3.3560   -4.4412 O   0  0  0  0  0  0  0  0  0  0  0  0
    2.6880    3.3042   -3.0490 C   0  0  0  0  0  0  0  0  0  0  0  0
   -0.0793    1.8980   -2.4858 H   0  0  0  0  0  0  0  0  0  0  0  0
    1.2808    4.3069   -1.7601 H   0  0  0  0  0  0  0  0  0  0  0  0
    2.6909    2.5462   -3.8388 H   0  0  0  0  0  0  0  0  0  0  0  0
    3.1197    4.2268   -3.4477 H   0  0  0  0  0  0  0  0  0  0  0  0
    3.3199    2.9526   -2.2273 H   0  0  0  0  0  0  0  0  0  0  0  0
    0.3246    5.4708   -3.9126 N   0  0  0  0  0  0  0  0  0  0  0  0
   -0.5101    6.0818   -4.9380 C   0  0  0  0  0  0  0  0  0  0  0  0
    0.8029    6.0680   -3.2449 H   0  0  0  0  0  0  0  0  0  0  0  0
   -0.2241    5.7194   -5.9309 H   0  0  0  0  0  0  0  0  0  0  0  0
   -1.5648    5.8434   -4.7650 H   0  0  0  0  0  0  0  0  0  0  0  0
   -0.3926    7.1694   -4.9206 H   0  0  0  0  0  0  0  0  0  0  0  0
  1  2  2  0  0  0  0
  1  3  1  0  0  0  0
  1  7  1  0  0  0  0
  3  4  1  0  0  0  0
  3  5  1  0  0  0  0
  3  6  1  0  0  0  0
  7  8  1  0  0  0  0
  7 12  1  0  0  0  0
  8  9  1  0  0  0  0
  8 11  1  0  0  0  0
  8 13  1  0  0  0  0
  9 10  2  0  0  0  0
  9 17  1  0  0  0  0
 11 14  1  0  0  0  0
 11 15  1  0  0  0  0
 11 16  1  0  0  0  0
 17 18  1  0  0  0  0
 17 25  1  0  0  0  0
 18 19  1  0  0  0  0
 18 21  1  0  0  0  0
 18 26  1  0  0  0  0
 19 20  2  0  0  0  0
 19 29  1  0  0  0  0
 21 22  1  0  0  0  0
 21 27  1  0  0  0  0
 21 28  1  0  0  0  0
 22 23  1  0  0  0  0
 22 24  2  0  0  0  0
 29 30  1  0  0  0  0
 29 34  1  0  0  0  0
 30 31  1  0  0  0  0
 30 33  1  0  0  0  0
 30 35  1  0  0  0  0
 31 32  2  0  0  0  0
 31 39  1  0  0  0  0
 33 36  1  0  0  0  0
 33 37  1  0  0  0  0
 33 38  1  0  0  0  0
 39 40  1  0  0  0  0
 39 41  1  0  0  0  0
 40 42  1  0  0  0  0
 40 43  1  0  0  0  0
 40 44  1  0  0  0  0
M  CHG  1  23  -1
M  END
$$$$

  -OEChem-05262215553D

 44 43  0     1  0  0  0  0  0999 V2000
   -4.8547   -0.4768   -3.8057 C   0  0  0  0  0  0  0  0  0  0  0  0
   -5.0060   -1.6887   -3.7999 O   0  0  0  0  0  0  0  0  0  0  0  0
   -5.9735    0.4237   -4.2970 C   0  0  0  0  0  0  0  0  0  0  0  0
   -5.6402    0.9866   -5.1725 H   0  0  0  0  0  0  0  0  0  0  0  0
   -6.8474   -0.1736   -4.5719 H   0  0  0  0  0  0  0  0  0  0  0  0
   -6.2598    1.1254   -3.5095 H   0  0  0  0  0  0  0  0  0  0  0  0
   -3.6760    0.0867   -3.3696 N   0  0  0  0  0  0  0  0  0  0  0  0
   -2.5889   -0.6430   -2.7031 C   0  0  2  0  0  0  0  0  0  0  0  0
   -1.7767    0.3031   -1.7904 C   0  0  0  0  0  0  0  0  0  0  0  0
   -2.1303    1.4719   -1.6644 O   0  0  0  0  0  0  0  0  0  0  0  0
   -1.6910   -1.2716   -3.7757 C   0  0  0  0  0  0  0  0  0  0  0  0
   -3.6546    1.1023   -3.2729 H   0  0  0  0  0  0  0  0  0  0  0  0
   -3.0060   -1.4335   -2.0694 H   0  0  0  0  0  0  0  0  0  0  0  0
   -1.2434   -0.4935   -4.4021 H   0  0  0  0  0  0  0  0  0  0  0  0
   -0.8881   -1.8550   -3.3147 H   0  0  0  0  0  0  0  0  0  0  0  0
   -2.2744   -1.9415   -4.4147 H   0  0  0  0  0  0  0  0  0  0  0  0
   -0.6439   -0.1441   -1.1395 N   0  0  0  0  0  0  0  0  0  0  0  0
    0.1793    0.6131   -0.1763 C   0  0  2  0  0  0  0  0  0  0  0  0
    0.8304    1.9282   -0.7022 C   0  0  0  0  0  0  0  0  0  0  0  0
    1.7493    2.4664   -0.0906 O   0  0  0  0  0  0  0  0  0  0  0  0
    1.2610   -0.4002    0.2587 C   0  0  0  0  0  0  0  0  0  0  0  0
    0.6999   -1.5441    1.0976 C   0  0  0  0  0  0  0  0  0  0  0  0
   -0.3156   -1.3387    1.8055 O   0  5  0  0  0  0  0  0  0  0  0  0
    1.2058   -2.6725    0.8932 O   0  0  0  0  0  0  0  0  0  0  0  0
   -0.5113   -1.1538   -1.1298 H   0  0  0  0  0  0  0  0  0  0  0  0
   -0.4362    0.8972    0.6843 H   0  0  0  0  0  0  0  0  0  0  0  0
    2.0073    0.1041    0.8775 H   0  0  0  0  0  0  0  0  0  0  0  0
    1.7752   -0.7998   -0.6208 H   0  0  0  0  0  0  0  0  0  0  0  0
    0.4262    2.5342   -1.8787 N   0  0  0  0  0  0  0  0  0  0  0  0
    0.9429    3.8091   -2.3887 C   0  0  2  0  0  0  0  0  0  0  0  0
   -0.0846    4.5567   -3.2643 C   0  0  0  0  0  0  0  0  0  0  0  0
   -0.8486    3.9504   -4.0081 O   0  0  0  0  0  0  0  0  0  0  0  0
    2.2135    3.5311   -3.1975 C   0  0  0  0  0  0  0  0  0  0  0  0
   -0.4862    2.2258   -2.2263 H   0  0  0  0  0  0  0  0  0  0  0  0
    1.1893    4.4612   -1.5447 H   0  0  0  0  0  0  0  0  0  0  0  0
    1.9896    2.8762   -4.0456 H   0  0  0  0  0  0  0  0  0  0  0  0
    2.6364    4.4651   -3.5786 H   0  0  0  0  0  0  0  0  0  0  0  0
    2.9646    3.0427   -2.5690 H   0  0  0  0  0  0  0  0  0  0  0  0
   -0.1124    5.9402   -3.2584 N   0  0  0  0  0  0  0  0  0  0  0  0
   -1.0546    6.7258   -4.0436 C   0  0  0  0  0  0  0  0  0  0  0  0
    0.4981    6.4142   -2.5998 H   0  0  0  0  0  0  0  0  0  0  0  0
   -0.9232    6.5250   -5.1119 H   0  0  0  0  0  0  0  0  0  0  0  0
   -2.0841    6.4818   -3.7622 H   0  0  0  0  0  0  0  0  0  0  0  0
   -0.8914    7.7935   -3.8700 H   0  0  0  0  0  0  0  0  0  0  0  0
  1  2  2  0  0  0  0
  1  3  1  0  0  0  0
  1  7  1  0  0  0  0
  3  4  1  0  0  0  0
  3  5  1  0  0  0  0
  3  6  1  0  0  0  0
  7  8  1  0  0  0  0
  7 12  1  0  0  0  0
  8  9  1  0  0  0  0
  8 11  1  0  0  0  0
  8 13  1  0  0  0  0
  9 10  2  0  0  0  0
  9 17  1  0  0  0  0
 11 14  1  0  0  0  0
 11 15  1  0  0  0  0
 11 16  1  0  0  0  0
 17 18  1  0  0  0  0
 17 25  1  0  0  0  0
 18 19  1  0  0  0  0
 18 21  1  0  0  0  0
 18 26  1  0  0  0  0
 19 20  2  0  0  0  0
 19 29  1  0  0  0  0
 21 22  1  0  0  0  0
 21 27  1  0  0  0  0
 21 28  1  0  0  0  0
 22 23  1  0  0  0  0
 22 24  2  0  0  0  0
 29 30  1  0  0  0  0
 29 34  1  0  0  0  0
 30 31  1  0  0  0  0
 30 33  1  0  0  0  0
 30 35  1  0  0  0  0
 31 32  2  0  0  0  0
 31 39  1  0  0  0  0
 33 36  1  0  0  0  0
 33 37  1  0  0  0  0
 33 38  1  0  0  0  0
 39 40  1  0  0  0  0
 39 41  1  0  0  0  0
 40 42  1  0  0  0  0
 40 43  1  0  0  0  0
 40 44  1  0  0  0  0
M  CHG  1  23  -1
M  END
$$$$

  -OEChem-05262215553D

 44 43  0     1  0  0  0  0  0999 V2000
   -4.6302   -1.2691   -4.1311 C   0  0  0  0  0  0  0  0  0  0  0  0
   -4.6115   -2.4569   -3.8496 O   0  0  0  0  0  0  0  0  0  0  0  0
   -5.8084   -0.6889   -4.8923 C   0  0  0  0  0  0  0  0  0  0  0  0
   -5.4678   -0.2652   -5.8403 H   0  0  0  0  0  0  0  0  0  0  0  0
   -6.5461   -1.4691   -5.0995 H   0  0  0  0  0  0  0  0  0  0  0  0
   -6.2833    0.0972   -4.2996 H   0  0  0  0  0  0  0  0  0  0  0  0
   -3.5904   -0.4434   -3.7625 N   0  0  0  0  0  0  0  0  0  0  0  0
   -2.4948   -0.8221   -2.8593 C   0  0  2  0  0  0  0  0  0  0  0  0
   -1.8731    0.4271   -2.1952 C   0  0  0  0  0  0  0  0  0  0  0  0
   -2.2445    1.5433   -2.5492 O   0  0  0  0  0  0  0  0  0  0  0  0
   -1.4309   -1.5907   -3.6523 C   0  0  0  0  0  0  0  0  0  0  0  0
   -3.7201    0.5574   -3.9086 H   0  0  0  0  0  0  0  0  0  0  0  0
   -2.8840   -1.4622   -2.0596 H   0  0  0  0  0  0  0  0  0  0  0  0
   -1.0219   -0.9638   -4.4508 H   0  0  0  0  0  0  0  0  0  0  0  0
   -0.6114   -1.9001   -2.9962 H   0  0  0  0  0  0  0  0  0  0  0  0
   -1.8650   -2.4891   -4.1019 H   0  0  0  0  0  0  0  0  0  0  0  0
   -0.9266    0.2824   -1.1996 N   0  0  0  0  0  0  0  0  0  0  0  0
   -0.3358    1.3332   -0.3458 C   0  0  2  0  0  0  0  0  0  0  0  0
    0.4420    2.4804   -1.0616 C   0  0  0  0  0  0  0  0  0  0  0  0
    1.3612    3.0761   -0.5059 O   0  0  0  0  0  0  0  0  0  0  0  0
    0.5784    0.5393    0.6141 C   0  0  0  0  0  0  0  0  0  0  0  0
   -0.2063   -0.3238    1.5972 C   0  0  0  0  0  0  0  0  0  0  0  0
   -1.3530    0.0465    1.9470 O   0  5  0  0  0  0  0  0  0  0  0  0
    0.2845   -1.4486    1.8501 O   0  0  0  0  0  0  0  0  0  0  0  0
   -0.8176   -0.6666   -0.8446 H   0  0  0  0  0  0  0  0  0  0  0  0
   -1.1335    1.8236    0.2228 H   0  0  0  0  0  0  0  0  0  0  0  0
    1.1700    1.2328    1.2172 H   0  0  0  0  0  0  0  0  0  0  0  0
    1.2759   -0.0808    0.0430 H   0  0  0  0  0  0  0  0  0  0  0  0
    0.1266    2.9116   -2.3362 N   0  0  0  0  0  0  0  0  0  0  0  0
    0.8263    3.9675   -3.0838 C   0  0  2  0  0  0  0  0  0  0  0  0
    0.4245    5.3967   -2.6399 C   0  0  0  0  0  0  0  0  0  0  0  0
    0.0770    6.2545   -3.4465 O   0  0  0  0  0  0  0  0  0  0  0  0
    0.5611    3.7076   -4.5716 C   0  0  0  0  0  0  0  0  0  0  0  0
   -0.7571    2.5539   -2.7066 H   0  0  0  0  0  0  0  0  0  0  0  0
    1.9039    3.8723   -2.9146 H   0  0  0  0  0  0  0  0  0  0  0  0
   -0.5051    3.8148   -4.7950 H   0  0  0  0  0  0  0  0  0  0  0  0
    1.1195    4.4192   -5.1876 H   0  0  0  0  0  0  0  0  0  0  0  0
    0.8757    2.6954   -4.8431 H   0  0  0  0  0  0  0  0  0  0  0  0
    0.5034    5.7313   -1.3027 N   0  0  0  0  0  0  0  0  0  0  0  0
    0.1453    7.0301   -0.7547 C   0  0  0  0  0  0  0  0  0  0  0  0
    0.8161    4.9851   -0.6744 H   0  0  0  0  0  0  0  0  0  0  0  0
    0.7574    7.8175   -1.2058 H   0  0  0  0  0  0  0  0  0  0  0  0
   -0.9103    7.2470   -0.9462 H   0  0  0  0  0  0  0  0  0  0  0  0
    0.3106    7.0389    0.3269 H   0  0  0  0  0  0  0  0  0  0  0  0
  1  2  2  0  0  0  0
  1  3  1  0  0  0  0
  1  7  1  0  0  0  0
  3  4  1  0  0  0  0
  3  5  1  0  0  0  0
  3  6  1  0  0  0  0
  7  8  1  0  0  0  0
  7 12  1  0  0  0  0
  8  9  1  0  0  0  0
  8 11  1  0  0  0  0
  8 13  1  0  0  0  0
  9 10  2  0  0  0  0
  9 17  1  0  0  0  0
 11 14  1  0  0  0  0
 11 15  1  0  0  0  0
 11 16  1  0  0  0  0
 17 18  1  0  0  0  0
 17 25  1  0  0  0  0
 18 19  1  0  0  0  0
 18 21  1  0  0  0  0
 18 26  1  0  0  0  0
 19 20  2  0  0  0  0
 19 29  1  0  0  0  0
 21 22  1  0  0  0  0
 21 27  1  0  0  0  0
 21 28  1  0  0  0  0
 22 23  1  0  0  0  0
 22 24  2  0  0  0  0
 29 30  1  0  0  0  0
 29 34  1  0  0  0  0
 30 31  1  0  0  0  0
 30 33  1  0  0  0  0
 30 35  1  0  0  0  0
 31 32  2  0  0  0  0
 31 39  1  0  0  0  0
 33 36  1  0  0  0  0
 33 37  1  0  0  0  0
 33 38  1  0  0  0  0
 39 40  1  0  0  0  0
 39 41  1  0  0  0  0
 40 42  1  0  0  0  0
 40 43  1  0  0  0  0
 40 44  1  0  0  0  0
M  CHG  1  23  -1
M  END
$$$$

  -OEChem-05262215553D

 44 43  0     1  0  0  0  0  0999 V2000
   -4.5176   -1.3084   -4.2031 C   0  0  0  0  0  0  0  0  0  0  0  0
   -4.3847   -2.5079   -4.0181 O   0  0  0  0  0  0  0  0  0  0  0  0
   -5.7558   -0.7819   -4.9059 C   0  0  0  0  0  0  0  0  0  0  0  0
   -5.4720   -0.2761   -5.8321 H   0  0  0  0  0  0  0  0  0  0  0  0
   -6.4334   -1.6061   -5.1457 H   0  0  0  0  0  0  0  0  0  0  0  0
   -6.2792   -0.0742   -4.2581 H   0  0  0  0  0  0  0  0  0  0  0  0
   -3.5518   -0.4219   -3.7786 N   0  0  0  0  0  0  0  0  0  0  0  0
   -2.4158   -0.7693   -2.9138 C   0  0  2  0  0  0  0  0  0  0  0  0
   -1.9171    0.4695   -2.1371 C   0  0  0  0  0  0  0  0  0  0  0  0
   -2.3894    1.5729   -2.4011 O   0  0  0  0  0  0  0  0  0  0  0  0
   -1.2875   -1.3489   -3.7752 C   0  0  0  0  0  0  0  0  0  0  0  0
   -3.7735    0.5713   -3.8433 H   0  0  0  0  0  0  0  0  0  0  0  0
   -2.7305   -1.5171   -2.1771 H   0  0  0  0  0  0  0  0  0  0  0  0
   -0.9541   -0.6142   -4.5147 H   0  0  0  0  0  0  0  0  0  0  0  0
   -0.4327   -1.6287   -3.1518 H   0  0  0  0  0  0  0  0  0  0  0  0
   -1.6324   -2.2432   -4.3033 H   0  0  0  0  0  0  0  0  0  0  0  0
   -0.9747    0.3236   -1.1375 N   0  0  0  0  0  0  0  0  0  0  0  0
   -0.4448    1.3563   -0.2251 C   0  0  2  0  0  0  0  0  0  0  0  0
    0.2798    2.5672   -0.8891 C   0  0  0  0  0  0  0  0  0  0  0  0
    1.3341    3.0172   -0.4481 O   0  0  0  0  0  0  0  0  0  0  0  0
    0.4816    0.5678    0.7274 C   0  0  0  0  0  0  0  0  0  0  0  0
   -0.2859   -0.3655    1.6590 C   0  0  0  0  0  0  0  0  0  0  0  0
   -1.4557   -0.0589    1.9938 O   0  5  0  0  0  0  0  0  0  0  0  0
    0.2532   -1.4717    1.8948 O   0  0  0  0  0  0  0  0  0  0  0  0
   -0.7874   -0.6369   -0.8546 H   0  0  0  0  0  0  0  0  0  0  0  0
   -1.2742    1.7861    0.3473 H   0  0  0  0  0  0  0  0  0  0  0  0
    1.0267    1.2652    1.3685 H   0  0  0  0  0  0  0  0  0  0  0  0
    1.2190    0.0004    0.1518 H   0  0  0  0  0  0  0  0  0  0  0  0
   -0.2394    3.2176   -1.9915 N   0  0  0  0  0  0  0  0  0  0  0  0
    0.4147    4.2994   -2.7429 C   0  0  2  0  0  0  0  0  0  0  0  0
    0.2741    5.6838   -2.0610 C   0  0  0  0  0  0  0  0  0  0  0  0
   -0.1188    6.6730   -2.6730 O   0  0  0  0  0  0  0  0  0  0  0  0
   -0.1706    4.2705   -4.1601 C   0  0  0  0  0  0  0  0  0  0  0  0
   -1.1466    2.8722   -2.3159 H   0  0  0  0  0  0  0  0  0  0  0  0
    1.4861    4.0873   -2.8179 H   0  0  0  0  0  0  0  0  0  0  0  0
   -1.2419    4.4948   -4.1361 H   0  0  0  0  0  0  0  0  0  0  0  0
    0.3267    5.0125   -4.7923 H   0  0  0  0  0  0  0  0  0  0  0  0
   -0.0296    3.2833   -4.6103 H   0  0  0  0  0  0  0  0  0  0  0  0
    0.6414    5.8213   -0.7371 N   0  0  0  0  0  0  0  0  0  0  0  0
    0.5344    7.0555    0.0255 C   0  0  0  0  0  0  0  0  0  0  0  0
    0.9731    4.9685   -0.2766 H   0  0  0  0  0  0  0  0  0  0  0  0
    1.1139    7.8523   -0.4514 H   0  0  0  0  0  0  0  0  0  0  0  0
   -0.5115    7.3707    0.0965 H   0  0  0  0  0  0  0  0  0  0  0  0
    0.9213    6.9051    1.0379 H   0  0  0  0  0  0  0  0  0  0  0  0
  1  2  2  0  0  0  0
  1  3  1  0  0  0  0
  1  7  1  0  0  0  0
  3  4  1  0  0  0  0
  3  5  1  0  0  0  0
  3  6  1  0  0  0  0
  7  8  1  0  0  0  0
  7 12  1  0  0  0  0
  8  9  1  0  0  0  0
  8 11  1  0  0  0  0
  8 13  1  0  0  0  0
  9 10  2  0  0  0  0
  9 17  1  0  0  0  0
 11 14  1  0  0  0  0
 11 15  1  0  0  0  0
 11 16  1  0  0  0  0
 17 18  1  0  0  0  0
 17 25  1  0  0  0  0
 18 19  1  0  0  0  0
 18 21  1  0  0  0  0
 18 26  1  0  0  0  0
 19 20  2  0  0  0  0
 19 29  1  0  0  0  0
 21 22  1  0  0  0  0
 21 27  1  0  0  0  0
 21 28  1  0  0  0  0
 22 23  1  0  0  0  0
 22 24  2  0  0  0  0
 29 30  1  0  0  0  0
 29 34  1  0  0  0  0
 30 31  1  0  0  0  0
 30 33  1  0  0  0  0
 30 35  1  0  0  0  0
 31 32  2  0  0  0  0
 31 39  1  0  0  0  0
 33 36  1  0  0  0  0
 33 37  1  0  0  0  0
 33 38  1  0  0  0  0
 39 40  1  0  0  0  0
 39 41  1  0  0  0  0
 40 42  1  0  0  0  0
 40 43  1  0  0  0  0
 40 44  1  0  0  0  0
M  CHG  1  23  -1
M  END
$$$$

  -OEChem-05262215553D

 44 43  0     1  0  0  0  0  0999 V2000
   -4.4054   -1.2723   -4.2273 C   0  0  0  0  0  0  0  0  0  0  0  0
   -4.1868   -2.4702   -4.1377 O   0  0  0  0  0  0  0  0  0  0  0  0
   -5.6793   -0.7819   -4.8908 C   0  0  0  0  0  0  0  0  0  0  0  0
   -5.4341   -0.1960   -5.7800 H   0  0  0  0  0  0  0  0  0  0  0  0
   -6.3020   -1.6307   -5.1868 H   0  0  0  0  0  0  0  0  0  0  0  0
   -6.2448   -0.1565   -4.1955 H   0  0  0  0  0  0  0  0  0  0  0  0
   -3.5024   -0.3556   -3.7345 N   0  0  0  0  0  0  0  0  0  0  0  0
   -2.3293   -0.6891   -2.9155 C   0  0  2  0  0  0  0  0  0  0  0  0
   -1.9027    0.5144   -2.0460 C   0  0  0  0  0  0  0  0  0  0  0  0
   -2.4503    1.6022   -2.2130 O   0  0  0  0  0  0  0  0  0  0  0  0
   -1.1799   -1.1122   -3.8377 C   0  0  0  0  0  0  0  0  0  0  0  0
   -3.7909    0.6222   -3.7225 H   0  0  0  0  0  0  0  0  0  0  0  0
   -2.5760   -1.5156   -2.2394 H   0  0  0  0  0  0  0  0  0  0  0  0
   -0.9116   -0.2942   -4.5137 H   0  0  0  0  0  0  0  0  0  0  0  0
   -0.2968   -1.3843   -3.2512 H   0  0  0  0  0  0  0  0  0  0  0  0
   -1.4715   -1.9796   -4.4378 H   0  0  0  0  0  0  0  0  0  0  0  0
   -0.9378    0.3517   -1.0712 N   0  0  0  0  0  0  0  0  0  0  0  0
   -0.4626    1.3506   -0.0963 C   0  0  2  0  0  0  0  0  0  0  0  0
    0.1685    2.6374   -0.7050 C   0  0  0  0  0  0  0  0  0  0  0  0
    1.3219    2.9813   -0.4592 O   0  0  0  0  0  0  0  0  0  0  0  0
    0.5281    0.5761    0.7998 C   0  0  0  0  0  0  0  0  0  0  0  0
   -0.1585   -0.4633    1.6803 C   0  0  0  0  0  0  0  0  0  0  0  0
   -1.3432   -0.2608    2.0416 O   0  5  0  0  0  0  0  0  0  0  0  0
    0.4637   -1.5368    1.8544 O   0  0  0  0  0  0  0  0  0  0  0  0
   -0.6729   -0.6111   -0.8711 H   0  0  0  0  0  0  0  0  0  0  0  0
   -1.3088    1.6903    0.5113 H   0  0  0  0  0  0  0  0  0  0  0  0
    1.0297    1.2757    1.4734 H   0  0  0  0  0  0  0  0  0  0  0  0
    1.2958    0.0974    0.1848 H   0  0  0  0  0  0  0  0  0  0  0  0
   -0.5572    3.4672   -1.5372 N   0  0  0  0  0  0  0  0  0  0  0  0
   -0.0044    4.5946   -2.3032 C   0  0  2  0  0  0  0  0  0  0  0  0
    0.1611    5.8835   -1.4589 C   0  0  0  0  0  0  0  0  0  0  0  0
   -0.2831    6.9664   -1.8296 O   0  0  0  0  0  0  0  0  0  0  0  0
   -0.9177    4.7924   -3.5188 C   0  0  0  0  0  0  0  0  0  0  0  0
   -1.4731    3.0996   -1.8112 H   0  0  0  0  0  0  0  0  0  0  0  0
    0.9910    4.3251   -2.6714 H   0  0  0  0  0  0  0  0  0  0  0  0
   -1.9254    5.0759   -3.1985 H   0  0  0  0  0  0  0  0  0  0  0  0
   -0.5232    5.5811   -4.1669 H   0  0  0  0  0  0  0  0  0  0  0  0
   -0.9826    3.8675   -4.1000 H   0  0  0  0  0  0  0  0  0  0  0  0
    0.8720    5.8242   -0.2770 N   0  0  0  0  0  0  0  0  0  0  0  0
    1.0710    6.9488    0.6236 C   0  0  0  0  0  0  0  0  0  0  0  0
    1.2197    4.8968   -0.0139 H   0  0  0  0  0  0  0  0  0  0  0  0
    1.5609    7.7771    0.1015 H   0  0  0  0  0  0  0  0  0  0  0  0
    0.1102    7.2956    1.0169 H   0  0  0  0  0  0  0  0  0  0  0  0
    1.7033    6.6478    1.4646 H   0  0  0  0  0  0  0  0  0  0  0  0
  1  2  2  0  0  0  0
  1  3  1  0  0  0  0
  1  7  1  0  0  0  0
  3  4  1  0  0  0  0
  3  5  1  0  0  0  0
  3  6  1  0  0  0  0
  7  8  1  0  0  0  0
  7 12  1  0  0  0  0
  8  9  1  0  0  0  0
  8 11  1  0  0  0  0
  8 13  1  0  0  0  0
  9 10  2  0  0  0  0
  9 17  1  0  0  0  0
 11 14  1  0  0  0  0
 11 15  1  0  0  0  0
 11 16  1  0  0  0  0
 17 18  1  0  0  0  0
 17 25  1  0  0  0  0
 18 19  1  0  0  0  0
 18 21  1  0  0  0  0
 18 26  1  0  0  0  0
 19 20  2  0  0  0  0
 19 29  1  0  0  0  0
 21 22  1  0  0  0  0
 21 27  1  0  0  0  0
 21 28  1  0  0  0  0
 22 23  1  0  0  0  0
 22 24  2  0  0  0  0
 29 30  1  0  0  0  0
 29 34  1  0  0  0  0
 30 31  1  0  0  0  0
 30 33  1  0  0  0  0
 30 35  1  0  0  0  0
 31 32  2  0  0  0  0
 31 39  1  0  0  0  0
 33 36  1  0  0  0  0
 33 37  1  0  0  0  0
 33 38  1  0  0  0  0
 39 40  1  0  0  0  0
 39 41  1  0  0  0  0
 40 42  1  0  0  0  0
 40 43  1  0  0  0  0
 40 44  1  0  0  0  0
M  CHG  1  23  -1
M  END
$$$$

  -OEChem-05262215553D

 44 43  0     1  0  0  0  0  0999 V2000
   -4.3344   -1.1170   -4.2530 C   0  0  0  0  0  0  0  0  0  0  0  0
   -4.0889   -2.3129   -4.2461 O   0  0  0  0  0  0  0  0  0  0  0  0
   -5.6299   -0.6141   -4.8633 C   0  0  0  0  0  0  0  0  0  0  0  0
   -5.4139    0.0990   -5.6625 H   0  0  0  0  0  0  0  0  0  0  0  0
   -6.2007   -1.4488   -5.2798 H   0  0  0  0  0  0  0  0  0  0  0  0
   -6.2342   -0.1210   -4.0981 H   0  0  0  0  0  0  0  0  0  0  0  0
   -3.4457   -0.2151   -3.7088 N   0  0  0  0  0  0  0  0  0  0  0  0
   -2.2520   -0.5770   -2.9325 C   0  0  2  0  0  0  0  0  0  0  0  0
   -1.8308    0.5726   -1.9905 C   0  0  0  0  0  0  0  0  0  0  0  0
   -2.3810    1.6688   -2.0862 O   0  0  0  0  0  0  0  0  0  0  0  0
   -1.1105   -0.9144   -3.8986 C   0  0  0  0  0  0  0  0  0  0  0  0
   -3.7517    0.7543   -3.6331 H   0  0  0  0  0  0  0  0  0  0  0  0
   -2.4719   -1.4513   -2.3094 H   0  0  0  0  0  0  0  0  0  0  0  0
   -0.8718   -0.0491   -4.5249 H   0  0  0  0  0  0  0  0  0  0  0  0
   -0.2119   -1.2034   -3.3449 H   0  0  0  0  0  0  0  0  0  0  0  0
   -1.3942   -1.7481   -4.5483 H   0  0  0  0  0  0  0  0  0  0  0  0
   -0.8655    0.3572   -1.0264 N   0  0  0  0  0  0  0  0  0  0  0  0
   -0.4227    1.3175   -0.0025 C   0  0  2  0  0  0  0  0  0  0  0  0
    0.1764    2.6344   -0.5692 C   0  0  0  0  0  0  0  0  0  0  0  0
    1.3747    2.8959   -0.4997 O   0  0  0  0  0  0  0  0  0  0  0  0
    0.5853    0.5442    0.8733 C   0  0  0  0  0  0  0  0  0  0  0  0
   -0.0739   -0.5506    1.7066 C   0  0  0  0  0  0  0  0  0  0  0  0
   -1.2684   -0.4005    2.0618 O   0  5  0  0  0  0  0  0  0  0  0  0
    0.5877   -1.6028    1.8651 O   0  0  0  0  0  0  0  0  0  0  0  0
   -0.5906   -0.6116   -0.8747 H   0  0  0  0  0  0  0  0  0  0  0  0
   -1.2798    1.6110    0.6135 H   0  0  0  0  0  0  0  0  0  0  0  0
    1.0597    1.2375    1.5729 H   0  0  0  0  0  0  0  0  0  0  0  0
    1.3719    0.1117    0.2479 H   0  0  0  0  0  0  0  0  0  0  0  0
   -0.6520    3.6009   -1.1067 N   0  0  0  0  0  0  0  0  0  0  0  0
   -0.1802    4.8089   -1.8030 C   0  0  2  0  0  0  0  0  0  0  0  0
    0.2294    5.9529   -0.8392 C   0  0  0  0  0  0  0  0  0  0  0  0
   -0.1529    7.1080   -1.0048 O   0  0  0  0  0  0  0  0  0  0  0  0
   -1.2932    5.2221   -2.7743 C   0  0  0  0  0  0  0  0  0  0  0  0
   -1.5864    3.2524   -1.3394 H   0  0  0  0  0  0  0  0  0  0  0  0
    0.7052    4.5585   -2.3960 H   0  0  0  0  0  0  0  0  0  0  0  0
   -2.1958    5.5072   -2.2241 H   0  0  0  0  0  0  0  0  0  0  0  0
   -0.9720    6.0743   -3.3812 H   0  0  0  0  0  0  0  0  0  0  0  0
   -1.5400    4.3937   -3.4457 H   0  0  0  0  0  0  0  0  0  0  0  0
    1.0831    5.6803    0.2114 N   0  0  0  0  0  0  0  0  0  0  0  0
    1.5368    6.6617    1.1843 C   0  0  0  0  0  0  0  0  0  0  0  0
    1.4066    4.7109    0.2812 H   0  0  0  0  0  0  0  0  0  0  0  0
    2.1003    7.4588    0.6893 H   0  0  0  0  0  0  0  0  0  0  0  0
    0.6831    7.1032    1.7086 H   0  0  0  0  0  0  0  0  0  0  0  0
    2.1866    6.1839    1.9234 H   0  0  0  0  0  0  0  0  0  0  0  0
  1  2  2  0  0  0  0
  1  3  1  0  0  0  0
  1  7  1  0  0  0  0
  3  4  1  0  0  0  0
  3  5  1  0  0  0  0
  3  6  1  0  0  0  0
  7  8  1  0  0  0  0
  7 12  1  0  0  0  0
  8  9  1  0  0  0  0
  8 11  1  0  0  0  0
  8 13  1  0  0  0  0
  9 10  2  0  0  0  0
  9 17  1  0  0  0  0
 11 14  1  0  0  0  0
 11 15  1  0  0  0  0
 11 16  1  0  0  0  0
 17 18  1  0  0  0  0
 17 25  1  0  0  0  0
 18 19  1  0  0  0  0
 18 21  1  0  0  0  0
 18 26  1  0  0  0  0
 19 20  2  0  0  0  0
 19 29  1  0  0  0  0
 21 22  1  0  0  0  0
 21 27  1  0  0  0  0
 21 28  1  0  0  0  0
 22 23  1  0  0  0  0
 22 24  2  0  0  0  0
 29 30  1  0  0  0  0
 29 34  1  0  0  0  0
 30 31  1  0  0  0  0
 30 33  1  0  0  0  0
 30 35  1  0  0  0  0
 31 32  2  0  0  0  0
 31 39  1  0  0  0  0
 33 36  1  0  0  0  0
 33 37  1  0  0  0  0
 33 38  1  0  0  0  0
 39 40  1  0  0  0  0
 39 41  1  0  0  0  0
 40 42  1  0  0  0  0
 40 43  1  0  0  0  0
 40 44  1  0  0  0  0
M  CHG  1  23  -1
M  END
$$$$

  -OEChem-05262215553D

 44 43  0     1  0  0  0  0  0999 V2000
   -4.6393   -0.2671   -3.9368 C   0  0  0  0  0  0  0  0  0  0  0  0
   -4.5654   -1.4352   -4.2853 O   0  0  0  0  0  0  0  0  0  0  0  0
   -5.9237    0.5097   -4.1624 C   0  0  0  0  0  0  0  0  0  0  0  0
   -5.7281    1.3769   -4.7979 H   0  0  0  0  0  0  0  0  0  0  0  0
   -6.6681   -0.1252   -4.6507 H   0  0  0  0  0  0  0  0  0  0  0  0
   -6.3253    0.8518   -3.2051 H   0  0  0  0  0  0  0  0  0  0  0  0
   -3.5647    0.3581   -3.3426 N   0  0  0  0  0  0  0  0  0  0  0  0
   -2.3334   -0.3151   -2.9084 C   0  0  2  0  0  0  0  0  0  0  0  0
   -1.6316    0.4875   -1.7905 C   0  0  0  0  0  0  0  0  0  0  0  0
   -2.0580    1.5993   -1.4831 O   0  0  0  0  0  0  0  0  0  0  0  0
   -1.4001   -0.4750   -4.1142 C   0  0  0  0  0  0  0  0  0  0  0  0
   -3.7180    1.2920   -2.9623 H   0  0  0  0  0  0  0  0  0  0  0  0
   -2.5777   -1.3033   -2.5032 H   0  0  0  0  0  0  0  0  0  0  0  0
   -1.1379    0.5044   -4.5267 H   0  0  0  0  0  0  0  0  0  0  0  0
   -0.4789   -0.9883   -3.8218 H   0  0  0  0  0  0  0  0  0  0  0  0
   -1.8862   -1.0645   -4.8976 H   0  0  0  0  0  0  0  0  0  0  0  0
   -0.5462   -0.0453   -1.1237 N   0  0  0  0  0  0  0  0  0  0  0  0
    0.1569    0.5975   -0.0051 C   0  0  2  0  0  0  0  0  0  0  0  0
    0.7676    1.9730   -0.3816 C   0  0  0  0  0  0  0  0  0  0  0  0
    1.9190    2.0831   -0.7974 O   0  0  0  0  0  0  0  0  0  0  0  0
    1.2391   -0.4025    0.4511 C   0  0  0  0  0  0  0  0  0  0  0  0
    0.6592   -1.6494    1.1111 C   0  0  0  0  0  0  0  0  0  0  0  0
   -0.4367   -1.5575    1.7162 O   0  5  0  0  0  0  0  0  0  0  0  0
    1.2693   -2.7248    0.9049 O   0  0  0  0  0  0  0  0  0  0  0  0
   -0.3465   -1.0303   -1.2806 H   0  0  0  0  0  0  0  0  0  0  0  0
   -0.5425    0.7713    0.8203 H   0  0  0  0  0  0  0  0  0  0  0  0
    1.8856    0.0838    1.1860 H   0  0  0  0  0  0  0  0  0  0  0  0
    1.8619   -0.6936   -0.4003 H   0  0  0  0  0  0  0  0  0  0  0  0
    0.0199    3.1250   -0.2213 N   0  0  0  0  0  0  0  0  0  0  0  0
    0.4483    4.4492   -0.6880 C   0  0  2  0  0  0  0  0  0  0  0  0
   -0.1792    5.6072    0.1157 C   0  0  0  0  0  0  0  0  0  0  0  0
   -1.3520    5.5775    0.4716 O   0  0  0  0  0  0  0  0  0  0  0  0
    0.0831    4.5754   -2.1701 C   0  0  0  0  0  0  0  0  0  0  0  0
   -0.9865    2.9649   -0.1346 H   0  0  0  0  0  0  0  0  0  0  0  0
    1.5342    4.5362   -0.5817 H   0  0  0  0  0  0  0  0  0  0  0  0
   -0.9990    4.4770   -2.3056 H   0  0  0  0  0  0  0  0  0  0  0  0
    0.3981    5.5474   -2.5606 H   0  0  0  0  0  0  0  0  0  0  0  0
    0.5787    3.7914   -2.7511 H   0  0  0  0  0  0  0  0  0  0  0  0
    0.5755    6.7345    0.3908 N   0  0  0  0  0  0  0  0  0  0  0  0
    0.0764    7.8654    1.1617 C   0  0  0  0  0  0  0  0  0  0  0  0
    1.5583    6.7067    0.1364 H   0  0  0  0  0  0  0  0  0  0  0  0
   -0.8151    8.2891    0.6880 H   0  0  0  0  0  0  0  0  0  0  0  0
   -0.1792    7.5518    2.1791 H   0  0  0  0  0  0  0  0  0  0  0  0
    0.8395    8.6474    1.2203 H   0  0  0  0  0  0  0  0  0  0  0  0
  1  2  2  0  0  0  0
  1  3  1  0  0  0  0
  1  7  1  0  0  0  0
  3  4  1  0  0  0  0
  3  5  1  0  0  0  0
  3  6  1  0  0  0  0
  7  8  1  0  0  0  0
  7 12  1  0  0  0  0
  8  9  1  0  0  0  0
  8 11  1  0  0  0  0
  8 13  1  0  0  0  0
  9 10  2  0  0  0  0
  9 17  1  0  0  0  0
 11 14  1  0  0  0  0
 11 15  1  0  0  0  0
 11 16  1  0  0  0  0
 17 18  1  0  0  0  0
 17 25  1  0  0  0  0
 18 19  1  0  0  0  0
 18 21  1  0  0  0  0
 18 26  1  0  0  0  0
 19 20  2  0  0  0  0
 19 29  1  0  0  0  0
 21 22  1  0  0  0  0
 21 27  1  0  0  0  0
 21 28  1  0  0  0  0
 22 23  1  0  0  0  0
 22 24  2  0  0  0  0
 29 30  1  0  0  0  0
 29 34  1  0  0  0  0
 30 31  1  0  0  0  0
 30 33  1  0  0  0  0
 30 35  1  0  0  0  0
 31 32  2  0  0  0  0
 31 39  1  0  0  0  0
 33 36  1  0  0  0  0
 33 37  1  0  0  0  0
 33 38  1  0  0  0  0
 39 40  1  0  0  0  0
 39 41  1  0  0  0  0
 40 42  1  0  0  0  0
 40 43  1  0  0  0  0
 40 44  1  0  0  0  0
M  CHG  1  23  -1
M  END
$$$$

  -OEChem-05262215553D

 44 43  0     1  0  0  0  0  0999 V2000
   -4.5990   -0.1546   -3.9300 C   0  0  0  0  0  0  0  0  0  0  0  0
   -4.5395   -1.3125   -4.3132 O   0  0  0  0  0  0  0  0  0  0  0  0
   -5.8862    0.6326   -4.0955 C   0  0  0  0  0  0  0  0  0  0  0  0
   -5.6961    1.5453   -4.6657 H   0  0  0  0  0  0  0  0  0  0  0  0
   -6.6300    0.0328   -4.6271 H   0  0  0  0  0  0  0  0  0  0  0  0
   -6.2855    0.9016   -3.1143 H   0  0  0  0  0  0  0  0  0  0  0  0
   -3.5082    0.4474   -3.3424 N   0  0  0  0  0  0  0  0  0  0  0  0
   -2.2831   -0.2510   -2.9303 C   0  0  2  0  0  0  0  0  0  0  0  0
   -1.5876    0.5033   -1.7766 C   0  0  0  0  0  0  0  0  0  0  0  0
   -1.9971    1.6143   -1.4430 O   0  0  0  0  0  0  0  0  0  0  0  0
   -1.3423   -0.3669   -4.1350 C   0  0  0  0  0  0  0  0  0  0  0  0
   -3.6505    1.3697   -2.9303 H   0  0  0  0  0  0  0  0  0  0  0  0
   -2.5336   -1.2535   -2.5667 H   0  0  0  0  0  0  0  0  0  0  0  0
   -1.0641    0.6269   -4.5000 H   0  0  0  0  0  0  0  0  0  0  0  0
   -0.4297   -0.9044   -3.8595 H   0  0  0  0  0  0  0  0  0  0  0  0
   -1.8299   -0.9136   -4.9481 H   0  0  0  0  0  0  0  0  0  0  0  0
   -0.5238   -0.0682   -1.1085 N   0  0  0  0  0  0  0  0  0  0  0  0
    0.1712    0.5487    0.0268 C   0  0  2  0  0  0  0  0  0  0  0  0
    0.8036    1.9133   -0.3405 C   0  0  0  0  0  0  0  0  0  0  0  0
    1.8278    1.9884   -1.0159 O   0  0  0  0  0  0  0  0  0  0  0  0
    1.2396   -0.4577    0.4946 C   0  0  0  0  0  0  0  0  0  0  0  0
    0.6396   -1.7053    1.1355 C   0  0  0  0  0  0  0  0  0  0  0  0
   -0.4668   -1.6097    1.7209 O   0  5  0  0  0  0  0  0  0  0  0  0
    1.2541   -2.7814    0.9479 O   0  0  0  0  0  0  0  0  0  0  0  0
   -0.3157   -1.0440   -1.3037 H   0  0  0  0  0  0  0  0  0  0  0  0
   -0.5391    0.7246    0.8421 H   0  0  0  0  0  0  0  0  0  0  0  0
    1.8772    0.0215    1.2419 H   0  0  0  0  0  0  0  0  0  0  0  0
    1.8734   -0.7476   -0.3488 H   0  0  0  0  0  0  0  0  0  0  0  0
    0.2127    3.0860    0.0931 N   0  0  0  0  0  0  0  0  0  0  0  0
    0.6212    4.4229   -0.3527 C   0  0  2  0  0  0  0  0  0  0  0  0
    0.3073    5.5230    0.6820 C   0  0  0  0  0  0  0  0  0  0  0  0
   -0.7079    5.4801    1.3683 O   0  0  0  0  0  0  0  0  0  0  0  0
   -0.0906    4.7237   -1.6755 C   0  0  0  0  0  0  0  0  0  0  0  0
   -0.7273    2.9884    0.4750 H   0  0  0  0  0  0  0  0  0  0  0  0
    1.7029    4.4348   -0.5194 H   0  0  0  0  0  0  0  0  0  0  0  0
   -1.1766    4.7130   -1.5352 H   0  0  0  0  0  0  0  0  0  0  0  0
    0.2043    5.7066   -2.0539 H   0  0  0  0  0  0  0  0  0  0  0  0
    0.1685    3.9710   -2.4269 H   0  0  0  0  0  0  0  0  0  0  0  0
    1.1585    6.6068    0.8097 N   0  0  0  0  0  0  0  0  0  0  0  0
    0.9598    7.6692    1.7860 C   0  0  0  0  0  0  0  0  0  0  0  0
    2.0206    6.5846    0.2734 H   0  0  0  0  0  0  0  0  0  0  0  0
   -0.0092    8.1552    1.6317 H   0  0  0  0  0  0  0  0  0  0  0  0
    0.9950    7.2647    2.8028 H   0  0  0  0  0  0  0  0  0  0  0  0
    1.7442    8.4252    1.6855 H   0  0  0  0  0  0  0  0  0  0  0  0
  1  2  2  0  0  0  0
  1  3  1  0  0  0  0
  1  7  1  0  0  0  0
  3  4  1  0  0  0  0
  3  5  1  0  0  0  0
  3  6  1  0  0  0  0
  7  8  1  0  0  0  0
  7 12  1  0  0  0  0
  8  9  1  0  0  0  0
  8 11  1  0  0  0  0
  8 13  1  0  0  0  0
  9 10  2  0  0  0  0
  9 17  1  0  0  0  0
 11 14  1  0  0  0  0
 11 15  1  0  0  0  0
 11 16  1  0  0  0  0
 17 18  1  0  0  0  0
 17 25  1  0  0  0  0
 18 19  1  0  0  0  0
 18 21  1  0  0  0  0
 18 26  1  0  0  0  0
 19 20  2  0  0  0  0
 19 29  1  0  0  0  0
 21 22  1  0  0  0  0
 21 27  1  0  0  0  0
 21 28  1  0  0  0  0
 22 23  1  0  0  0  0
 22 24  2  0  0  0  0
 29 30  1  0  0  0  0
 29 34  1  0  0  0  0
 30 31  1  0  0  0  0
 30 33  1  0  0  0  0
 30 35  1  0  0  0  0
 31 32  2  0  0  0  0
 31 39  1  0  0  0  0
 33 36  1  0  0  0  0
 33 37  1  0  0  0  0
 33 38  1  0  0  0  0
 39 40  1  0  0  0  0
 39 41  1  0  0  0  0
 40 42  1  0  0  0  0
 40 43  1  0  0  0  0
 40 44  1  0  0  0  0
M  CHG  1  23  -1
M  END
$$$$

  -OEChem-05262215553D

 44 43  0     1  0  0  0  0  0999 V2000
   -4.5929   -0.1328   -3.9359 C   0  0  0  0  0  0  0  0  0  0  0  0
   -4.5147   -1.2811   -4.3445 O   0  0  0  0  0  0  0  0  0  0  0  0
   -5.8844    0.6455   -4.1103 C   0  0  0  0  0  0  0  0  0  0  0  0
   -5.6918    1.5695   -4.6608 H   0  0  0  0  0  0  0  0  0  0  0  0
   -6.6131    0.0486   -4.6658 H   0  0  0  0  0  0  0  0  0  0  0  0
   -6.3038    0.8934   -3.1322 H   0  0  0  0  0  0  0  0  0  0  0  0
   -3.5181    0.4672   -3.3175 N   0  0  0  0  0  0  0  0  0  0  0  0
   -2.2790   -0.2189   -2.9296 C   0  0  2  0  0  0  0  0  0  0  0  0
   -1.5921    0.5096   -1.7541 C   0  0  0  0  0  0  0  0  0  0  0  0
   -1.9951    1.6192   -1.4082 O   0  0  0  0  0  0  0  0  0  0  0  0
   -1.3398   -0.2734   -4.1396 C   0  0  0  0  0  0  0  0  0  0  0  0
   -3.6706    1.3810   -2.8912 H   0  0  0  0  0  0  0  0  0  0  0  0
   -2.5093   -1.2378   -2.5998 H   0  0  0  0  0  0  0  0  0  0  0  0
   -1.0940    0.7384   -4.4773 H   0  0  0  0  0  0  0  0  0  0  0  0
   -0.4097   -0.7889   -3.8808 H   0  0  0  0  0  0  0  0  0  0  0  0
   -1.8127   -0.8129   -4.9658 H   0  0  0  0  0  0  0  0  0  0  0  0
   -0.5386   -0.0808   -1.0859 N   0  0  0  0  0  0  0  0  0  0  0  0
    0.1669    0.5288    0.0464 C   0  0  2  0  0  0  0  0  0  0  0  0
    0.8210    1.8791   -0.3285 C   0  0  0  0  0  0  0  0  0  0  0  0
    1.6692    1.9529   -1.2155 O   0  0  0  0  0  0  0  0  0  0  0  0
    1.2350   -0.4751    0.5174 C   0  0  0  0  0  0  0  0  0  0  0  0
    0.6385   -1.7200    1.1660 C   0  0  0  0  0  0  0  0  0  0  0  0
   -0.4663   -1.6230    1.7538 O   0  5  0  0  0  0  0  0  0  0  0  0
    1.2611   -2.7940    0.9934 O   0  0  0  0  0  0  0  0  0  0  0  0
   -0.3203   -1.0487   -1.3059 H   0  0  0  0  0  0  0  0  0  0  0  0
   -0.5427    0.7136    0.8602 H   0  0  0  0  0  0  0  0  0  0  0  0
    1.8743    0.0074    1.2613 H   0  0  0  0  0  0  0  0  0  0  0  0
    1.8668   -0.7684   -0.3264 H   0  0  0  0  0  0  0  0  0  0  0  0
    0.4565    3.0374    0.3335 N   0  0  0  0  0  0  0  0  0  0  0  0
    0.8853    4.3812   -0.0691 C   0  0  2  0  0  0  0  0  0  0  0  0
    0.9204    5.3768    1.1080 C   0  0  0  0  0  0  0  0  0  0  0  0
    0.0898    5.3239    2.0084 O   0  0  0  0  0  0  0  0  0  0  0  0
   -0.0695    4.8774   -1.1594 C   0  0  0  0  0  0  0  0  0  0  0  0
   -0.3225    2.9653    0.9852 H   0  0  0  0  0  0  0  0  0  0  0  0
    1.8991    4.3304   -0.4789 H   0  0  0  0  0  0  0  0  0  0  0  0
   -1.0940    4.9251   -0.7765 H   0  0  0  0  0  0  0  0  0  0  0  0
    0.2239    5.8742   -1.5012 H   0  0  0  0  0  0  0  0  0  0  0  0
   -0.0523    4.1973   -2.0173 H   0  0  0  0  0  0  0  0  0  0  0  0
    1.8834    6.3702    1.1359 N   0  0  0  0  0  0  0  0  0  0  0  0
    2.0251    7.3187    2.2320 C   0  0  0  0  0  0  0  0  0  0  0  0
    2.5962    6.3427    0.4130 H   0  0  0  0  0  0  0  0  0  0  0  0
    1.0994    7.8870    2.3695 H   0  0  0  0  0  0  0  0  0  0  0  0
    2.2596    6.7945    3.1641 H   0  0  0  0  0  0  0  0  0  0  0  0
    2.8338    8.0233    2.0171 H   0  0  0  0  0  0  0  0  0  0  0  0
  1  2  2  0  0  0  0
  1  3  1  0  0  0  0
  1  7  1  0  0  0  0
  3  4  1  0  0  0  0
  3  5  1  0  0  0  0
  3  6  1  0  0  0  0
  7  8  1  0  0  0  0
  7 12  1  0  0  0  0
  8  9  1  0  0  0  0
  8 11  1  0  0  0  0
  8 13  1  0  0  0  0
  9 10  2  0  0  0  0
  9 17  1  0  0  0  0
 11 14  1  0  0  0  0
 11 15  1  0  0  0  0
 11 16  1  0  0  0  0
 17 18  1  0  0  0  0
 17 25  1  0  0  0  0
 18 19  1  0  0  0  0
 18 21  1  0  0  0  0
 18 26  1  0  0  0  0
 19 20  2  0  0  0  0
 19 29  1  0  0  0  0
 21 22  1  0  0  0  0
 21 27  1  0  0  0  0
 21 28  1  0  0  0  0
 22 23  1  0  0  0  0
 22 24  2  0  0  0  0
 29 30  1  0  0  0  0
 29 34  1  0  0  0  0
 30 31  1  0  0  0  0
 30 33  1  0  0  0  0
 30 35  1  0  0  0  0
 31 32  2  0  0  0  0
 31 39  1  0  0  0  0
 33 36  1  0  0  0  0
 33 37  1  0  0  0  0
 33 38  1  0  0  0  0
 39 40  1  0  0  0  0
 39 41  1  0  0  0  0
 40 42  1  0  0  0  0
 40 43  1  0  0  0  0
 40 44  1  0  0  0  0
M  CHG  1  23  -1
M  END
$$$$

  -OEChem-05262215553D

 44 43  0     1  0  0  0  0  0999 V2000
   -4.6027   -0.1303   -3.9534 C   0  0  0  0  0  0  0  0  0  0  0  0
   -4.5150   -1.2699   -4.3840 O   0  0  0  0  0  0  0  0  0  0  0  0
   -5.8946    0.6470   -4.1288 C   0  0  0  0  0  0  0  0  0  0  0  0
   -5.7013    1.5732   -4.6755 H   0  0  0  0  0  0  0  0  0  0  0  0
   -6.6203    0.0511   -4.6891 H   0  0  0  0  0  0  0  0  0  0  0  0
   -6.3179    0.8911   -3.1512 H   0  0  0  0  0  0  0  0  0  0  0  0
   -3.5388    0.4613   -3.3089 N   0  0  0  0  0  0  0  0  0  0  0  0
   -2.3006   -0.2249   -2.9190 C   0  0  2  0  0  0  0  0  0  0  0  0
   -1.6350    0.4868   -1.7212 C   0  0  0  0  0  0  0  0  0  0  0  0
   -2.0596    1.5807   -1.3515 O   0  0  0  0  0  0  0  0  0  0  0  0
   -1.3468   -0.2482   -4.1190 C   0  0  0  0  0  0  0  0  0  0  0  0
   -3.6999    1.3669   -2.8684 H   0  0  0  0  0  0  0  0  0  0  0  0
   -2.5272   -1.2518   -2.6118 H   0  0  0  0  0  0  0  0  0  0  0  0
   -1.1026    0.7723   -4.4313 H   0  0  0  0  0  0  0  0  0  0  0  0
   -0.4168   -0.7641   -3.8611 H   0  0  0  0  0  0  0  0  0  0  0  0
   -1.8073   -0.7720   -4.9623 H   0  0  0  0  0  0  0  0  0  0  0  0
   -0.5738   -0.0995   -1.0619 N   0  0  0  0  0  0  0  0  0  0  0  0
    0.1542    0.5278    0.0462 C   0  0  2  0  0  0  0  0  0  0  0  0
    0.8111    1.8673   -0.3593 C   0  0  0  0  0  0  0  0  0  0  0  0
    1.4553    1.9727   -1.4015 O   0  0  0  0  0  0  0  0  0  0  0  0
    1.2348   -0.4625    0.5167 C   0  0  0  0  0  0  0  0  0  0  0  0
    0.6596   -1.6981    1.2006 C   0  0  0  0  0  0  0  0  0  0  0  0
   -0.4339   -1.5974    1.8082 O   0  5  0  0  0  0  0  0  0  0  0  0
    1.2940   -2.7682    1.0475 O   0  0  0  0  0  0  0  0  0  0  0  0
   -0.3128   -1.0459   -1.3228 H   0  0  0  0  0  0  0  0  0  0  0  0
   -0.5429    0.7294    0.8667 H   0  0  0  0  0  0  0  0  0  0  0  0
    1.8867    0.0370    1.2379 H   0  0  0  0  0  0  0  0  0  0  0  0
    1.8511   -0.7694   -0.3335 H   0  0  0  0  0  0  0  0  0  0  0  0
    0.7109    2.9707    0.4683 N   0  0  0  0  0  0  0  0  0  0  0  0
    1.2216    4.3040    0.1333 C   0  0  2  0  0  0  0  0  0  0  0  0
    1.6065    5.1247    1.3806 C   0  0  0  0  0  0  0  0  0  0  0  0
    0.9949    4.9958    2.4355 O   0  0  0  0  0  0  0  0  0  0  0  0
    0.1480    5.0350   -0.6784 C   0  0  0  0  0  0  0  0  0  0  0  0
    0.1573    2.8704    1.3172 H   0  0  0  0  0  0  0  0  0  0  0  0
    2.1241    4.2029   -0.4779 H   0  0  0  0  0  0  0  0  0  0  0  0
   -0.7681    5.1447   -0.0894 H   0  0  0  0  0  0  0  0  0  0  0  0
    0.4987    6.0292   -0.9696 H   0  0  0  0  0  0  0  0  0  0  0  0
   -0.0900    4.4712   -1.5863 H   0  0  0  0  0  0  0  0  0  0  0  0
    2.6424    6.0392    1.3077 N   0  0  0  0  0  0  0  0  0  0  0  0
    3.1141    6.8067    2.4519 C   0  0  0  0  0  0  0  0  0  0  0  0
    3.1709    6.0720    0.4411 H   0  0  0  0  0  0  0  0  0  0  0  0
    2.3021    7.4117    2.8685 H   0  0  0  0  0  0  0  0  0  0  0  0
    3.4924    6.1369    3.2312 H   0  0  0  0  0  0  0  0  0  0  0  0
    3.9232    7.4777    2.1479 H   0  0  0  0  0  0  0  0  0  0  0  0
  1  2  2  0  0  0  0
  1  3  1  0  0  0  0
  1  7  1  0  0  0  0
  3  4  1  0  0  0  0
  3  5  1  0  0  0  0
  3  6  1  0  0  0  0
  7  8  1  0  0  0  0
  7 12  1  0  0  0  0
  8  9  1  0  0  0  0
  8 11  1  0  0  0  0
  8 13  1  0  0  0  0
  9 10  2  0  0  0  0
  9 17  1  0  0  0  0
 11 14  1  0  0  0  0
 11 15  1  0  0  0  0
 11 16  1  0  0  0  0
 17 18  1  0  0  0  0
 17 25  1  0  0  0  0
 18 19  1  0  0  0  0
 18 21  1  0  0  0  0
 18 26  1  0  0  0  0
 19 20  2  0  0  0  0
 19 29  1  0  0  0  0
 21 22  1  0  0  0  0
 21 27  1  0  0  0  0
 21 28  1  0  0  0  0
 22 23  1  0  0  0  0
 22 24  2  0  0  0  0
 29 30  1  0  0  0  0
 29 34  1  0  0  0  0
 30 31  1  0  0  0  0
 30 33  1  0  0  0  0
 30 35  1  0  0  0  0
 31 32  2  0  0  0  0
 31 39  1  0  0  0  0
 33 36  1  0  0  0  0
 33 37  1  0  0  0  0
 33 38  1  0  0  0  0
 39 40  1  0  0  0  0
 39 41  1  0  0  0  0
 40 42  1  0  0  0  0
 40 43  1  0  0  0  0
 40 44  1  0  0  0  0
M  CHG  1  23  -1
M  END
$$$$

  -OEChem-05262215553D

 44 43  0     1  0  0  0  0  0999 V2000
   -4.6009   -0.1324   -3.9820 C   0  0  0  0  0  0  0  0  0  0  0  0
   -4.4853   -1.2564   -4.4458 O   0  0  0  0  0  0  0  0  0  0  0  0
   -5.9036    0.6270   -4.1550 C   0  0  0  0  0  0  0  0  0  0  0  0
   -5.7237    1.5563   -4.7011 H   0  0  0  0  0  0  0  0  0  0  0  0
   -6.6229    0.0222   -4.7141 H   0  0  0  0  0  0  0  0  0  0  0  0
   -6.3281    0.8642   -3.1762 H   0  0  0  0  0  0  0  0  0  0  0  0
   -3.5601    0.4575   -3.2995 N   0  0  0  0  0  0  0  0  0  0  0  0
   -2.3204   -0.2212   -2.9017 C   0  0  2  0  0  0  0  0  0  0  0  0
   -1.6951    0.4589   -1.6643 C   0  0  0  0  0  0  0  0  0  0  0  0
   -2.1601    1.5215   -1.2537 O   0  0  0  0  0  0  0  0  0  0  0  0
   -1.3358   -0.1874   -4.0759 C   0  0  0  0  0  0  0  0  0  0  0  0
   -3.7473    1.3444   -2.8319 H   0  0  0  0  0  0  0  0  0  0  0  0
   -2.5370   -1.2611   -2.6351 H   0  0  0  0  0  0  0  0  0  0  0  0
   -1.0959    0.8470   -4.3420 H   0  0  0  0  0  0  0  0  0  0  0  0
   -0.4067   -0.7021   -3.8127 H   0  0  0  0  0  0  0  0  0  0  0  0
   -1.7672   -0.6825   -4.9512 H   0  0  0  0  0  0  0  0  0  0  0  0
   -0.6185   -0.1175   -1.0213 N   0  0  0  0  0  0  0  0  0  0  0  0
    0.1320    0.5283    0.0612 C   0  0  2  0  0  0  0  0  0  0  0  0
    0.7803    1.8647   -0.3707 C   0  0  0  0  0  0  0  0  0  0  0  0
    1.2093    2.0310   -1.5115 O   0  0  0  0  0  0  0  0  0  0  0  0
    1.2321   -0.4511    0.5088 C   0  0  0  0  0  0  0  0  0  0  0  0
    0.6898   -1.6869    1.2185 C   0  0  0  0  0  0  0  0  0  0  0  0
   -0.3858   -1.5942    1.8580 O   0  5  0  0  0  0  0  0  0  0  0  0
    1.3355   -2.7495    1.0583 O   0  0  0  0  0  0  0  0  0  0  0  0
   -0.2950   -1.0227   -1.3483 H   0  0  0  0  0  0  0  0  0  0  0  0
   -0.5449    0.7358    0.8971 H   0  0  0  0  0  0  0  0  0  0  0  0
    1.9006    0.0568    1.2087 H   0  0  0  0  0  0  0  0  0  0  0  0
    1.8264   -0.7591   -0.3564 H   0  0  0  0  0  0  0  0  0  0  0  0
    0.9690    2.8753    0.5548 N   0  0  0  0  0  0  0  0  0  0  0  0
    1.5781    4.1756    0.2522 C   0  0  2  0  0  0  0  0  0  0  0  0
    2.3035    4.7901    1.4659 C   0  0  0  0  0  0  0  0  0  0  0  0
    1.9087    4.5821    2.6078 O   0  0  0  0  0  0  0  0  0  0  0  0
    0.4751    5.1164   -0.2413 C   0  0  0  0  0  0  0  0  0  0  0  0
    0.6512    2.7047    1.5075 H   0  0  0  0  0  0  0  0  0  0  0  0
    2.3235    4.0515   -0.5399 H   0  0  0  0  0  0  0  0  0  0  0  0
   -0.2831    5.2564    0.5359 H   0  0  0  0  0  0  0  0  0  0  0  0
    0.8924    6.0930   -0.5030 H   0  0  0  0  0  0  0  0  0  0  0  0
   -0.0108    4.6982   -1.1289 H   0  0  0  0  0  0  0  0  0  0  0  0
    3.4005    5.6100    1.2692 N   0  0  0  0  0  0  0  0  0  0  0  0
    4.1769    6.1825    2.3609 C   0  0  0  0  0  0  0  0  0  0  0  0
    3.7409    5.7086    0.3175 H   0  0  0  0  0  0  0  0  0  0  0  0
    3.5435    6.8161    2.9903 H   0  0  0  0  0  0  0  0  0  0  0  0
    4.6095    5.3898    2.9802 H   0  0  0  0  0  0  0  0  0  0  0  0
    4.9915    6.7949    1.9632 H   0  0  0  0  0  0  0  0  0  0  0  0
  1  2  2  0  0  0  0
  1  3  1  0  0  0  0
  1  7  1  0  0  0  0
  3  4  1  0  0  0  0
  3  5  1  0  0  0  0
  3  6  1  0  0  0  0
  7  8  1  0  0  0  0
  7 12  1  0  0  0  0
  8  9  1  0  0  0  0
  8 11  1  0  0  0  0
  8 13  1  0  0  0  0
  9 10  2  0  0  0  0
  9 17  1  0  0  0  0
 11 14  1  0  0  0  0
 11 15  1  0  0  0  0
 11 16  1  0  0  0  0
 17 18  1  0  0  0  0
 17 25  1  0  0  0  0
 18 19  1  0  0  0  0
 18 21  1  0  0  0  0
 18 26  1  0  0  0  0
 19 20  2  0  0  0  0
 19 29  1  0  0  0  0
 21 22  1  0  0  0  0
 21 27  1  0  0  0  0
 21 28  1  0  0  0  0
 22 23  1  0  0  0  0
 22 24  2  0  0  0  0
 29 30  1  0  0  0  0
 29 34  1  0  0  0  0
 30 31  1  0  0  0  0
 30 33  1  0  0  0  0
 30 35  1  0  0  0  0
 31 32  2  0  0  0  0
 31 39  1  0  0  0  0
 33 36  1  0  0  0  0
 33 37  1  0  0  0  0
 33 38  1  0  0  0  0
 39 40  1  0  0  0  0
 39 41  1  0  0  0  0
 40 42  1  0  0  0  0
 40 43  1  0  0  0  0
 40 44  1  0  0  0  0
M  CHG  1  23  -1
M  END
$$$$

  -OEChem-05262215553D

 44 43  0     1  0  0  0  0  0999 V2000
   -4.6022   -0.1296   -3.9820 C   0  0  0  0  0  0  0  0  0  0  0  0
   -4.4801   -1.2483   -4.4570 O   0  0  0  0  0  0  0  0  0  0  0  0
   -5.9069    0.6269   -4.1542 C   0  0  0  0  0  0  0  0  0  0  0  0
   -5.7258    1.5662   -4.6825 H   0  0  0  0  0  0  0  0  0  0  0  0
   -6.6182    0.0288   -4.7306 H   0  0  0  0  0  0  0  0  0  0  0  0
   -6.3416    0.8456   -3.1756 H   0  0  0  0  0  0  0  0  0  0  0  0
   -3.5660    0.4576   -3.2903 N   0  0  0  0  0  0  0  0  0  0  0  0
   -2.3287   -0.2231   -2.8882 C   0  0  2  0  0  0  0  0  0  0  0  0
   -1.7232    0.4382   -1.6306 C   0  0  0  0  0  0  0  0  0  0  0  0
   -2.2253    1.4691   -1.1845 O   0  0  0  0  0  0  0  0  0  0  0  0
   -1.3313   -0.1646   -4.0505 C   0  0  0  0  0  0  0  0  0  0  0  0
   -3.7616    1.3347   -2.8075 H   0  0  0  0  0  0  0  0  0  0  0  0
   -2.5441   -1.2684   -2.6421 H   0  0  0  0  0  0  0  0  0  0  0  0
   -1.0873    0.8755   -4.2899 H   0  0  0  0  0  0  0  0  0  0  0  0
   -0.4059   -0.6867   -3.7897 H   0  0  0  0  0  0  0  0  0  0  0  0
   -1.7540   -0.6389   -4.9414 H   0  0  0  0  0  0  0  0  0  0  0  0
   -0.6321   -0.1267   -1.0010 N   0  0  0  0  0  0  0  0  0  0  0  0
    0.1260    0.5352    0.0672 C   0  0  2  0  0  0  0  0  0  0  0  0
    0.7601    1.8778   -0.3721 C   0  0  0  0  0  0  0  0  0  0  0  0
    0.9874    2.1298   -1.5545 O   0  0  0  0  0  0  0  0  0  0  0  0
    1.2416   -0.4360    0.4978 C   0  0  0  0  0  0  0  0  0  0  0  0
    0.7241   -1.6758    1.2189 C   0  0  0  0  0  0  0  0  0  0  0  0
   -0.3400   -1.5936    1.8783 O   0  5  0  0  0  0  0  0  0  0  0  0
    1.3809   -2.7303    1.0513 O   0  0  0  0  0  0  0  0  0  0  0  0
   -0.2656   -0.9966   -1.3735 H   0  0  0  0  0  0  0  0  0  0  0  0
   -0.5402    0.7396    0.9127 H   0  0  0  0  0  0  0  0  0  0  0  0
    1.9185    0.0752    1.1868 H   0  0  0  0  0  0  0  0  0  0  0  0
    1.8238   -0.7399   -0.3772 H   0  0  0  0  0  0  0  0  0  0  0  0
    1.2313    2.7624    0.5819 N   0  0  0  0  0  0  0  0  0  0  0  0
    1.9318    4.0163    0.2809 C   0  0  2  0  0  0  0  0  0  0  0  0
    2.9432    4.4093    1.3761 C   0  0  0  0  0  0  0  0  0  0  0  0
    2.7525    4.1045    2.5481 O   0  0  0  0  0  0  0  0  0  0  0  0
    0.8844    5.1191    0.1026 C   0  0  0  0  0  0  0  0  0  0  0  0
    1.1248    2.4973    1.5600 H   0  0  0  0  0  0  0  0  0  0  0  0
    2.4949    3.9034   -0.6512 H   0  0  0  0  0  0  0  0  0  0  0  0
    0.3080    5.2507    1.0239 H   0  0  0  0  0  0  0  0  0  0  0  0
    1.3656    6.0690   -0.1478 H   0  0  0  0  0  0  0  0  0  0  0  0
    0.1936    4.8575   -0.7055 H   0  0  0  0  0  0  0  0  0  0  0  0
    4.0732    5.1332    1.0398 N   0  0  0  0  0  0  0  0  0  0  0  0
    5.1166    5.4758    1.9966 C   0  0  0  0  0  0  0  0  0  0  0  0
    4.2373    5.3014    0.0518 H   0  0  0  0  0  0  0  0  0  0  0  0
    4.6982    6.0442    2.8337 H   0  0  0  0  0  0  0  0  0  0  0  0
    5.5899    4.5688    2.3864 H   0  0  0  0  0  0  0  0  0  0  0  0
    5.8840    6.0882    1.5139 H   0  0  0  0  0  0  0  0  0  0  0  0
  1  2  2  0  0  0  0
  1  3  1  0  0  0  0
  1  7  1  0  0  0  0
  3  4  1  0  0  0  0
  3  5  1  0  0  0  0
  3  6  1  0  0  0  0
  7  8  1  0  0  0  0
  7 12  1  0  0  0  0
  8  9  1  0  0  0  0
  8 11  1  0  0  0  0
  8 13  1  0  0  0  0
  9 10  2  0  0  0  0
  9 17  1  0  0  0  0
 11 14  1  0  0  0  0
 11 15  1  0  0  0  0
 11 16  1  0  0  0  0
 17 18  1  0  0  0  0
 17 25  1  0  0  0  0
 18 19  1  0  0  0  0
 18 21  1  0  0  0  0
 18 26  1  0  0  0  0
 19 20  2  0  0  0  0
 19 29  1  0  0  0  0
 21 22  1  0  0  0  0
 21 27  1  0  0  0  0
 21 28  1  0  0  0  0
 22 23  1  0  0  0  0
 22 24  2  0  0  0  0
 29 30  1  0  0  0  0
 29 34  1  0  0  0  0
 30 31  1  0  0  0  0
 30 33  1  0  0  0  0
 30 35  1  0  0  0  0
 31 32  2  0  0  0  0
 31 39  1  0  0  0  0
 33 36  1  0  0  0  0
 33 37  1  0  0  0  0
 33 38  1  0  0  0  0
 39 40  1  0  0  0  0
 39 41  1  0  0  0  0
 40 42  1  0  0  0  0
 40 43  1  0  0  0  0
 40 44  1  0  0  0  0
M  CHG  1  23  -1
M  END
$$$$

  -OEChem-05262215553D

 44 43  0     1  0  0  0  0  0999 V2000
   -4.5662   -0.1450   -4.0310 C   0  0  0  0  0  0  0  0  0  0  0  0
   -4.3793   -1.2179   -4.5844 O   0  0  0  0  0  0  0  0  0  0  0  0
   -5.8947    0.5707   -4.1955 C   0  0  0  0  0  0  0  0  0  0  0  0
   -5.7377    1.5380   -4.6787 H   0  0  0  0  0  0  0  0  0  0  0  0
   -6.5733   -0.0259   -4.8113 H   0  0  0  0  0  0  0  0  0  0  0  0
   -6.3546    0.7309   -3.2172 H   0  0  0  0  0  0  0  0  0  0  0  0
   -3.5832    0.4287   -3.2560 N   0  0  0  0  0  0  0  0  0  0  0  0
   -2.3353   -0.2315   -2.8518 C   0  0  2  0  0  0  0  0  0  0  0  0
   -1.8261    0.3401   -1.5099 C   0  0  0  0  0  0  0  0  0  0  0  0
   -2.4814    1.2054   -0.9304 O   0  0  0  0  0  0  0  0  0  0  0  0
   -1.2903   -0.0307   -3.9552 C   0  0  0  0  0  0  0  0  0  0  0  0
   -3.8431    1.2464   -2.7040 H   0  0  0  0  0  0  0  0  0  0  0  0
   -2.5114   -1.3027   -2.7074 H   0  0  0  0  0  0  0  0  0  0  0  0
   -1.0759    1.0348   -4.0880 H   0  0  0  0  0  0  0  0  0  0  0  0
   -0.3579   -0.5438   -3.7011 H   0  0  0  0  0  0  0  0  0  0  0  0
   -1.6562   -0.4352   -4.9038 H   0  0  0  0  0  0  0  0  0  0  0  0
   -0.6842   -0.1684   -0.9211 N   0  0  0  0  0  0  0  0  0  0  0  0
    0.1051    0.5358    0.1016 C   0  0  2  0  0  0  0  0  0  0  0  0
    0.3927    2.0351   -0.1887 C   0  0  0  0  0  0  0  0  0  0  0  0
    0.2393    2.5261   -1.3060 O   0  0  0  0  0  0  0  0  0  0  0  0
    1.4431   -0.2287    0.1900 C   0  0  0  0  0  0  0  0  0  0  0  0
    1.3091   -1.6232    0.7922 C   0  0  0  0  0  0  0  0  0  0  0  0
    0.3956   -1.8391    1.6240 O   0  5  0  0  0  0  0  0  0  0  0  0
    2.0926   -2.4953    0.3488 O   0  0  0  0  0  0  0  0  0  0  0  0
   -0.2215   -0.9308   -1.4062 H   0  0  0  0  0  0  0  0  0  0  0  0
   -0.4247    0.4863    1.0595 H   0  0  0  0  0  0  0  0  0  0  0  0
    2.1404    0.3206    0.8268 H   0  0  0  0  0  0  0  0  0  0  0  0
    1.8912   -0.3019   -0.8052 H   0  0  0  0  0  0  0  0  0  0  0  0
    1.1248    2.7770    0.7230 N   0  0  0  0  0  0  0  0  0  0  0  0
    1.6475    4.1270    0.4793 C   0  0  2  0  0  0  0  0  0  0  0  0
    2.9283    4.4168    1.2878 C   0  0  0  0  0  0  0  0  0  0  0  0
    3.1320    3.8610    2.3612 O   0  0  0  0  0  0  0  0  0  0  0  0
    0.5526    5.1381    0.8315 C   0  0  0  0  0  0  0  0  0  0  0  0
    1.3997    2.3114    1.5874 H   0  0  0  0  0  0  0  0  0  0  0  0
    1.9051    4.2323   -0.5795 H   0  0  0  0  0  0  0  0  0  0  0  0
    0.2767    5.0506    1.8872 H   0  0  0  0  0  0  0  0  0  0  0  0
    0.8984    6.1586    0.6431 H   0  0  0  0  0  0  0  0  0  0  0  0
   -0.3393    4.9575    0.2228 H   0  0  0  0  0  0  0  0  0  0  0  0
    3.8571    5.3232    0.8075 N   0  0  0  0  0  0  0  0  0  0  0  0
    5.1317    5.5844    1.4633 C   0  0  0  0  0  0  0  0  0  0  0  0
    3.6954    5.7020   -0.1207 H   0  0  0  0  0  0  0  0  0  0  0  0
    4.9755    5.8804    2.5059 H   0  0  0  0  0  0  0  0  0  0  0  0
    5.7631    4.6901    1.4414 H   0  0  0  0  0  0  0  0  0  0  0  0
    5.6587    6.3951    0.9516 H   0  0  0  0  0  0  0  0  0  0  0  0
  1  2  2  0  0  0  0
  1  3  1  0  0  0  0
  1  7  1  0  0  0  0
  3  4  1  0  0  0  0
  3  5  1  0  0  0  0
  3  6  1  0  0  0  0
  7  8  1  0  0  0  0
  7 12  1  0  0  0  0
  8  9  1  0  0  0  0
  8 11  1  0  0  0  0
  8 13  1  0  0  0  0
  9 10  2  0  0  0  0
  9 17  1  0  0  0  0
 11 14  1  0  0  0  0
 11 15  1  0  0  0  0
 11 16  1  0  0  0  0
 17 18  1  0  0  0  0
 17 25  1  0  0  0  0
 18 19  1  0  0  0  0
 18 21  1  0  0  0  0
 18 26  1  0  0  0  0
 19 20  2  0  0  0  0
 19 29  1  0  0  0  0
 21 22  1  0  0  0  0
 21 27  1  0  0  0  0
 21 28  1  0  0  0  0
 22 23  1  0  0  0  0
 22 24  2  0  0  0  0
 29 30  1  0  0  0  0
 29 34  1  0  0  0  0
 30 31  1  0  0  0  0
 30 33  1  0  0  0  0
 30 35  1  0  0  0  0
 31 32  2  0  0  0  0
 31 39  1  0  0  0  0
 33 36  1  0  0  0  0
 33 37  1  0  0  0  0
 33 38  1  0  0  0  0
 39 40  1  0  0  0  0
 39 41  1  0  0  0  0
 40 42  1  0  0  0  0
 40 43  1  0  0  0  0
 40 44  1  0  0  0  0
M  CHG  1  23  -1
M  END
$$$$

  -OEChem-05262215553D

 44 43  0     1  0  0  0  0  0999 V2000
   -4.5494   -0.1332   -4.0387 C   0  0  0  0  0  0  0  0  0  0  0  0
   -4.3427   -1.1877   -4.6198 O   0  0  0  0  0  0  0  0  0  0  0  0
   -5.8863    0.5685   -4.1937 C   0  0  0  0  0  0  0  0  0  0  0  0
   -5.7406    1.5491   -4.6535 H   0  0  0  0  0  0  0  0  0  0  0  0
   -6.5536   -0.0232   -4.8261 H   0  0  0  0  0  0  0  0  0  0  0  0
   -6.3530    0.7000   -3.2143 H   0  0  0  0  0  0  0  0  0  0  0  0
   -3.5802    0.4340   -3.2422 N   0  0  0  0  0  0  0  0  0  0  0  0
   -2.3240   -0.2159   -2.8490 C   0  0  2  0  0  0  0  0  0  0  0  0
   -1.8296    0.3351   -1.4926 C   0  0  0  0  0  0  0  0  0  0  0  0
   -2.5148    1.1582   -0.8876 O   0  0  0  0  0  0  0  0  0  0  0  0
   -1.2790    0.0259   -3.9439 C   0  0  0  0  0  0  0  0  0  0  0  0
   -3.8577    1.2285   -2.6652 H   0  0  0  0  0  0  0  0  0  0  0  0
   -2.4838   -1.2928   -2.7296 H   0  0  0  0  0  0  0  0  0  0  0  0
   -1.0841    1.0977   -4.0542 H   0  0  0  0  0  0  0  0  0  0  0  0
   -0.3385   -0.4752   -3.6959 H   0  0  0  0  0  0  0  0  0  0  0  0
   -1.6340   -0.3660   -4.9021 H   0  0  0  0  0  0  0  0  0  0  0  0
   -0.6846   -0.1709   -0.9072 N   0  0  0  0  0  0  0  0  0  0  0  0
    0.1175    0.5275    0.1121 C   0  0  2  0  0  0  0  0  0  0  0  0
    0.4249    2.0319   -0.1601 C   0  0  0  0  0  0  0  0  0  0  0  0
    0.0549    2.6115   -1.1787 O   0  0  0  0  0  0  0  0  0  0  0  0
    1.4354   -0.2792    0.1905 C   0  0  0  0  0  0  0  0  0  0  0  0
    1.2659   -1.6688    0.7957 C   0  0  0  0  0  0  0  0  0  0  0  0
    0.3549   -1.8596    1.6360 O   0  5  0  0  0  0  0  0  0  0  0  0
    2.0193   -2.5622    0.3429 O   0  0  0  0  0  0  0  0  0  0  0  0
   -0.2194   -0.9223   -1.4065 H   0  0  0  0  0  0  0  0  0  0  0  0
   -0.4087    0.4815    1.0719 H   0  0  0  0  0  0  0  0  0  0  0  0
    2.1565    0.2389    0.8257 H   0  0  0  0  0  0  0  0  0  0  0  0
    1.8760   -0.3642   -0.8071 H   0  0  0  0  0  0  0  0  0  0  0  0
    1.4097    2.6752    0.5725 N   0  0  0  0  0  0  0  0  0  0  0  0
    1.9659    3.9991    0.2650 C   0  0  2  0  0  0  0  0  0  0  0  0
    3.4240    4.1473    0.7450 C   0  0  0  0  0  0  0  0  0  0  0  0
    3.8437    3.4890    1.6902 O   0  0  0  0  0  0  0  0  0  0  0  0
    1.0783    5.0597    0.9223 C   0  0  0  0  0  0  0  0  0  0  0  0
    1.8587    2.1384    1.3138 H   0  0  0  0  0  0  0  0  0  0  0  0
    1.9669    4.1532   -0.8187 H   0  0  0  0  0  0  0  0  0  0  0  0
    1.0638    4.9254    2.0087 H   0  0  0  0  0  0  0  0  0  0  0  0
    1.4510    6.0635    0.6985 H   0  0  0  0  0  0  0  0  0  0  0  0
    0.0528    4.9798    0.5479 H   0  0  0  0  0  0  0  0  0  0  0  0
    4.2726    5.0388    0.1127 N   0  0  0  0  0  0  0  0  0  0  0  0
    5.6826    5.1752    0.4523 C   0  0  0  0  0  0  0  0  0  0  0  0
    3.9151    5.5176   -0.7083 H   0  0  0  0  0  0  0  0  0  0  0  0
    5.7996    5.4345    1.5098 H   0  0  0  0  0  0  0  0  0  0  0  0
    6.2148    4.2380    0.2574 H   0  0  0  0  0  0  0  0  0  0  0  0
    6.1405    5.9667   -0.1485 H   0  0  0  0  0  0  0  0  0  0  0  0
  1  2  2  0  0  0  0
  1  3  1  0  0  0  0
  1  7  1  0  0  0  0
  3  4  1  0  0  0  0
  3  5  1  0  0  0  0
  3  6  1  0  0  0  0
  7  8  1  0  0  0  0
  7 12  1  0  0  0  0
  8  9  1  0  0  0  0
  8 11  1  0  0  0  0
  8 13  1  0  0  0  0
  9 10  2  0  0  0  0
  9 17  1  0  0  0  0
 11 14  1  0  0  0  0
 11 15  1  0  0  0  0
 11 16  1  0  0  0  0
 17 18  1  0  0  0  0
 17 25  1  0  0  0  0
 18 19  1  0  0  0  0
 18 21  1  0  0  0  0
 18 26  1  0  0  0  0
 19 20  2  0  0  0  0
 19 29  1  0  0  0  0
 21 22  1  0  0  0  0
 21 27  1  0  0  0  0
 21 28  1  0  0  0  0
 22 23  1  0  0  0  0
 22 24  2  0  0  0  0
 29 30  1  0  0  0  0
 29 34  1  0  0  0  0
 30 31  1  0  0  0  0
 30 33  1  0  0  0  0
 30 35  1  0  0  0  0
 31 32  2  0  0  0  0
 31 39  1  0  0  0  0
 33 36  1  0  0  0  0
 33 37  1  0  0  0  0
 33 38  1  0  0  0  0
 39 40  1  0  0  0  0
 39 41  1  0  0  0  0
 40 42  1  0  0  0  0
 40 43  1  0  0  0  0
 40 44  1  0  0  0  0
M  CHG  1  23  -1
M  END
$$$$

  -OEChem-05262215553D

 44 43  0     1  0  0  0  0  0999 V2000
   -4.5202   -0.1144   -4.0532 C   0  0  0  0  0  0  0  0  0  0  0  0
   -4.2859   -1.1517   -4.6546 O   0  0  0  0  0  0  0  0  0  0  0  0
   -5.8753    0.5540   -4.1973 C   0  0  0  0  0  0  0  0  0  0  0  0
   -5.7529    1.5607   -4.6046 H   0  0  0  0  0  0  0  0  0  0  0  0
   -6.5124   -0.0255   -4.8711 H   0  0  0  0  0  0  0  0  0  0  0  0
   -6.3628    0.6211   -3.2215 H   0  0  0  0  0  0  0  0  0  0  0  0
   -3.5670    0.4590   -3.2419 N   0  0  0  0  0  0  0  0  0  0  0  0
   -2.3077   -0.1819   -2.8438 C   0  0  2  0  0  0  0  0  0  0  0  0
   -1.8395    0.3463   -1.4697 C   0  0  0  0  0  0  0  0  0  0  0  0
   -2.5481    1.1417   -0.8565 O   0  0  0  0  0  0  0  0  0  0  0  0
   -1.2495    0.0986   -3.9167 C   0  0  0  0  0  0  0  0  0  0  0  0
   -3.8657    1.2335   -2.6482 H   0  0  0  0  0  0  0  0  0  0  0  0
   -2.4549   -1.2632   -2.7497 H   0  0  0  0  0  0  0  0  0  0  0  0
   -1.0654    1.1749   -3.9964 H   0  0  0  0  0  0  0  0  0  0  0  0
   -0.3071   -0.3984   -3.6681 H   0  0  0  0  0  0  0  0  0  0  0  0
   -1.5861   -0.2728   -4.8895 H   0  0  0  0  0  0  0  0  0  0  0  0
   -0.7043   -0.1718   -0.8761 N   0  0  0  0  0  0  0  0  0  0  0  0
    0.1269    0.5109    0.1318 C   0  0  2  0  0  0  0  0  0  0  0  0
    0.4868    2.0073   -0.1480 C   0  0  0  0  0  0  0  0  0  0  0  0
   -0.0904    2.6941   -0.9853 O   0  0  0  0  0  0  0  0  0  0  0  0
    1.4035   -0.3629    0.2127 C   0  0  0  0  0  0  0  0  0  0  0  0
    1.1689   -1.7356    0.8362 C   0  0  0  0  0  0  0  0  0  0  0  0
    0.2565   -1.8729    1.6849 O   0  5  0  0  0  0  0  0  0  0  0  0
    1.8704   -2.6702    0.3833 O   0  0  0  0  0  0  0  0  0  0  0  0
   -0.2607   -0.9418   -1.3667 H   0  0  0  0  0  0  0  0  0  0  0  0
   -0.3961    0.4941    1.0940 H   0  0  0  0  0  0  0  0  0  0  0  0
    2.1506    0.1183    0.8463 H   0  0  0  0  0  0  0  0  0  0  0  0
    1.8384   -0.4784   -0.7847 H   0  0  0  0  0  0  0  0  0  0  0  0
    1.6735    2.5431    0.3289 N   0  0  0  0  0  0  0  0  0  0  0  0
    2.2297    3.8508   -0.0455 C   0  0  2  0  0  0  0  0  0  0  0  0
    3.7681    3.8830    0.0571 C   0  0  0  0  0  0  0  0  0  0  0  0
    4.3653    3.1047    0.7922 O   0  0  0  0  0  0  0  0  0  0  0  0
    1.6147    4.9201    0.8631 C   0  0  0  0  0  0  0  0  0  0  0  0
    2.2595    1.9324    0.8969 H   0  0  0  0  0  0  0  0  0  0  0  0
    1.9737    4.0731   -1.0864 H   0  0  0  0  0  0  0  0  0  0  0  0
    1.8600    4.7184    1.9106 H   0  0  0  0  0  0  0  0  0  0  0  0
    1.9947    5.9117    0.5995 H   0  0  0  0  0  0  0  0  0  0  0  0
    0.5252    4.9282    0.7559 H   0  0  0  0  0  0  0  0  0  0  0  0
    4.4907    4.8035   -0.6812 N   0  0  0  0  0  0  0  0  0  0  0  0
    5.9466    4.8476   -0.6968 C   0  0  0  0  0  0  0  0  0  0  0  0
    3.9724    5.3901   -1.3281 H   0  0  0  0  0  0  0  0  0  0  0  0
    6.3374    4.9709    0.3186 H   0  0  0  0  0  0  0  0  0  0  0  0
    6.3513    3.9230   -1.1214 H   0  0  0  0  0  0  0  0  0  0  0  0
    6.2923    5.6896   -1.3038 H   0  0  0  0  0  0  0  0  0  0  0  0
  1  2  2  0  0  0  0
  1  3  1  0  0  0  0
  1  7  1  0  0  0  0
  3  4  1  0  0  0  0
  3  5  1  0  0  0  0
  3  6  1  0  0  0  0
  7  8  1  0  0  0  0
  7 12  1  0  0  0  0
  8  9  1  0  0  0  0
  8 11  1  0  0  0  0
  8 13  1  0  0  0  0
  9 10  2  0  0  0  0
  9 17  1  0  0  0  0
 11 14  1  0  0  0  0
 11 15  1  0  0  0  0
 11 16  1  0  0  0  0
 17 18  1  0  0  0  0
 17 25  1  0  0  0  0
 18 19  1  0  0  0  0
 18 21  1  0  0  0  0
 18 26  1  0  0  0  0
 19 20  2  0  0  0  0
 19 29  1  0  0  0  0
 21 22  1  0  0  0  0
 21 27  1  0  0  0  0
 21 28  1  0  0  0  0
 22 23  1  0  0  0  0
 22 24  2  0  0  0  0
 29 30  1  0  0  0  0
 29 34  1  0  0  0  0
 30 31  1  0  0  0  0
 30 33  1  0  0  0  0
 30 35  1  0  0  0  0
 31 32  2  0  0  0  0
 31 39  1  0  0  0  0
 33 36  1  0  0  0  0
 33 37  1  0  0  0  0
 33 38  1  0  0  0  0
 39 40  1  0  0  0  0
 39 41  1  0  0  0  0
 40 42  1  0  0  0  0
 40 43  1  0  0  0  0
 40 44  1  0  0  0  0
M  CHG  1  23  -1
M  END
$$$$

  -OEChem-05262215553D

 44 43  0     1  0  0  0  0  0999 V2000
   -4.5416   -0.1570   -4.0606 C   0  0  0  0  0  0  0  0  0  0  0  0
   -4.3331   -1.2350   -4.5962 O   0  0  0  0  0  0  0  0  0  0  0  0
   -5.8834    0.5297   -4.2373 C   0  0  0  0  0  0  0  0  0  0  0  0
   -5.7451    1.4938   -4.7327 H   0  0  0  0  0  0  0  0  0  0  0  0
   -6.5482   -0.0896   -4.8462 H   0  0  0  0  0  0  0  0  0  0  0  0
   -6.3490    0.6932   -3.2620 H   0  0  0  0  0  0  0  0  0  0  0  0
   -3.5701    0.4484   -3.2952 N   0  0  0  0  0  0  0  0  0  0  0  0
   -2.3255   -0.1945   -2.8558 C   0  0  2  0  0  0  0  0  0  0  0  0
   -1.8277    0.4313   -1.5331 C   0  0  0  0  0  0  0  0  0  0  0  0
   -2.5082    1.2990   -0.9951 O   0  0  0  0  0  0  0  0  0  0  0  0
   -1.2715   -0.0404   -3.9583 C   0  0  0  0  0  0  0  0  0  0  0  0
   -3.8505    1.2652   -2.7505 H   0  0  0  0  0  0  0  0  0  0  0  0
   -2.5047   -1.2590   -2.6694 H   0  0  0  0  0  0  0  0  0  0  0  0
   -1.0621    1.0186   -4.1399 H   0  0  0  0  0  0  0  0  0  0  0  0
   -0.3394   -0.5369   -3.6722 H   0  0  0  0  0  0  0  0  0  0  0  0
   -1.6268   -0.4910   -4.8902 H   0  0  0  0  0  0  0  0  0  0  0  0
   -0.7218   -0.0995   -0.8965 N   0  0  0  0  0  0  0  0  0  0  0  0
    0.1385    0.5557    0.1069 C   0  0  2  0  0  0  0  0  0  0  0  0
    0.5856    2.0246   -0.1923 C   0  0  0  0  0  0  0  0  0  0  0  0
   -0.1427    2.8726   -0.6924 O   0  0  0  0  0  0  0  0  0  0  0  0
    1.3557   -0.3932    0.2384 C   0  0  0  0  0  0  0  0  0  0  0  0
    1.0247   -1.7291    0.8963 C   0  0  0  0  0  0  0  0  0  0  0  0
    0.0910   -1.7858    1.7303 O   0  5  0  0  0  0  0  0  0  0  0  0
    1.6709   -2.7181    0.4786 O   0  0  0  0  0  0  0  0  0  0  0  0
   -0.3485   -0.9514   -1.3042 H   0  0  0  0  0  0  0  0  0  0  0  0
   -0.3996    0.5944    1.0604 H   0  0  0  0  0  0  0  0  0  0  0  0
    2.1134    0.0596    0.8811 H   0  0  0  0  0  0  0  0  0  0  0  0
    1.8042   -0.5640   -0.7449 H   0  0  0  0  0  0  0  0  0  0  0  0
    1.9011    2.4189    0.0013 N   0  0  0  0  0  0  0  0  0  0  0  0
    2.4508    3.7386   -0.3371 C   0  0  2  0  0  0  0  0  0  0  0  0
    3.9471    3.6779   -0.7061 C   0  0  0  0  0  0  0  0  0  0  0  0
    4.6592    2.7675   -0.2978 O   0  0  0  0  0  0  0  0  0  0  0  0
    2.2353    4.6691    0.8598 C   0  0  0  0  0  0  0  0  0  0  0  0
    2.5581    1.7020    0.3068 H   0  0  0  0  0  0  0  0  0  0  0  0
    1.9229    4.1433   -1.2067 H   0  0  0  0  0  0  0  0  0  0  0  0
    2.7576    4.2838    1.7412 H   0  0  0  0  0  0  0  0  0  0  0  0
    2.6126    5.6718    0.6394 H   0  0  0  0  0  0  0  0  0  0  0  0
    1.1685    4.7452    1.0931 H   0  0  0  0  0  0  0  0  0  0  0  0
    4.5025    4.6651   -1.5009 N   0  0  0  0  0  0  0  0  0  0  0  0
    5.8925    4.6539   -1.9368 C   0  0  0  0  0  0  0  0  0  0  0  0
    3.8752    5.3737   -1.8695 H   0  0  0  0  0  0  0  0  0  0  0  0
    6.5649    4.6707   -1.0729 H   0  0  0  0  0  0  0  0  0  0  0  0
    6.1003    3.7570   -2.5298 H   0  0  0  0  0  0  0  0  0  0  0  0
    6.1013    5.5332   -2.5534 H   0  0  0  0  0  0  0  0  0  0  0  0
  1  2  2  0  0  0  0
  1  3  1  0  0  0  0
  1  7  1  0  0  0  0
  3  4  1  0  0  0  0
  3  5  1  0  0  0  0
  3  6  1  0  0  0  0
  7  8  1  0  0  0  0
  7 12  1  0  0  0  0
  8  9  1  0  0  0  0
  8 11  1  0  0  0  0
  8 13  1  0  0  0  0
  9 10  2  0  0  0  0
  9 17  1  0  0  0  0
 11 14  1  0  0  0  0
 11 15  1  0  0  0  0
 11 16  1  0  0  0  0
 17 18  1  0  0  0  0
 17 25  1  0  0  0  0
 18 19  1  0  0  0  0
 18 21  1  0  0  0  0
 18 26  1  0  0  0  0
 19 20  2  0  0  0  0
 19 29  1  0  0  0  0
 21 22  1  0  0  0  0
 21 27  1  0  0  0  0
 21 28  1  0  0  0  0
 22 23  1  0  0  0  0
 22 24  2  0  0  0  0
 29 30  1  0  0  0  0
 29 34  1  0  0  0  0
 30 31  1  0  0  0  0
 30 33  1  0  0  0  0
 30 35  1  0  0  0  0
 31 32  2  0  0  0  0
 31 39  1  0  0  0  0
 33 36  1  0  0  0  0
 33 37  1  0  0  0  0
 33 38  1  0  0  0  0
 39 40  1  0  0  0  0
 39 41  1  0  0  0  0
 40 42  1  0  0  0  0
 40 43  1  0  0  0  0
 40 44  1  0  0  0  0
M  CHG  1  23  -1
M  END
$$$$

  -OEChem-05262215553D

 44 43  0     1  0  0  0  0  0999 V2000
   -4.7324   -0.2505   -3.8923 C   0  0  0  0  0  0  0  0  0  0  0  0
   -4.8336   -1.4669   -3.9341 O   0  0  0  0  0  0  0  0  0  0  0  0
   -5.9077    0.6202   -4.2982 C   0  0  0  0  0  0  0  0  0  0  0  0
   -5.6337    1.2386   -5.1564 H   0  0  0  0  0  0  0  0  0  0  0  0
   -6.7642   -0.0029   -4.5706 H   0  0  0  0  0  0  0  0  0  0  0  0
   -6.1944    1.2695   -3.4672 H   0  0  0  0  0  0  0  0  0  0  0  0
   -3.5598    0.3448   -3.4824 N   0  0  0  0  0  0  0  0  0  0  0  0
   -2.4240   -0.3604   -2.8736 C   0  0  2  0  0  0  0  0  0  0  0  0
   -1.6156    0.5885   -1.9579 C   0  0  0  0  0  0  0  0  0  0  0  0
   -1.8999    1.7785   -1.9588 O   0  0  0  0  0  0  0  0  0  0  0  0
   -1.5336   -0.9236   -3.9874 C   0  0  0  0  0  0  0  0  0  0  0  0
   -3.5755    1.3546   -3.3357 H   0  0  0  0  0  0  0  0  0  0  0  0
   -2.7925   -1.1840   -2.2520 H   0  0  0  0  0  0  0  0  0  0  0  0
   -1.1446   -0.1132   -4.6120 H   0  0  0  0  0  0  0  0  0  0  0  0
   -0.6886   -1.4748   -3.5631 H   0  0  0  0  0  0  0  0  0  0  0  0
   -2.1043   -1.6092   -4.6212 H   0  0  0  0  0  0  0  0  0  0  0  0
   -0.6074    0.0634   -1.1708 N   0  0  0  0  0  0  0  0  0  0  0  0
    0.1714    0.6998   -0.0895 C   0  0  2  0  0  0  0  0  0  0  0  0
    0.7190    2.1370   -0.3430 C   0  0  0  0  0  0  0  0  0  0  0  0
   -0.0010    3.1249   -0.2597 O   0  0  0  0  0  0  0  0  0  0  0  0
    1.3171   -0.3039    0.1887 C   0  0  0  0  0  0  0  0  0  0  0  0
    0.8320   -1.6019    0.8260 C   0  0  0  0  0  0  0  0  0  0  0  0
   -0.1936   -1.5775    1.5462 O   0  5  0  0  0  0  0  0  0  0  0  0
    1.4353   -2.6437    0.4815 O   0  0  0  0  0  0  0  0  0  0  0  0
   -0.5746   -0.9542   -1.1618 H   0  0  0  0  0  0  0  0  0  0  0  0
   -0.4643    0.7852    0.7989 H   0  0  0  0  0  0  0  0  0  0  0  0
    2.0238    0.1312    0.8997 H   0  0  0  0  0  0  0  0  0  0  0  0
    1.8573   -0.5245   -0.7373 H   0  0  0  0  0  0  0  0  0  0  0  0
    2.0820    2.3899   -0.3101 N   0  0  0  0  0  0  0  0  0  0  0  0
    2.6999    3.7121   -0.4755 C   0  0  2  0  0  0  0  0  0  0  0  0
    3.9204    3.6757   -1.4173 C   0  0  0  0  0  0  0  0  0  0  0  0
    4.6006    2.6614   -1.5270 O   0  0  0  0  0  0  0  0  0  0  0  0
    3.1077    4.2188    0.9095 C   0  0  0  0  0  0  0  0  0  0  0  0
    2.6923    1.5769   -0.3769 H   0  0  0  0  0  0  0  0  0  0  0  0
    1.9781    4.4103   -0.9120 H   0  0  0  0  0  0  0  0  0  0  0  0
    3.8489    3.5498    1.3581 H   0  0  0  0  0  0  0  0  0  0  0  0
    3.5384    5.2219    0.8391 H   0  0  0  0  0  0  0  0  0  0  0  0
    2.2333    4.2620    1.5669 H   0  0  0  0  0  0  0  0  0  0  0  0
    4.2755    4.8060   -2.1318 N   0  0  0  0  0  0  0  0  0  0  0  0
    5.3901    4.8427   -3.0686 C   0  0  0  0  0  0  0  0  0  0  0  0
    3.6609    5.6115   -2.0630 H   0  0  0  0  0  0  0  0  0  0  0  0
    6.3321    4.6363   -2.5502 H   0  0  0  0  0  0  0  0  0  0  0  0
    5.2513    4.0972   -3.8585 H   0  0  0  0  0  0  0  0  0  0  0  0
    5.4603    5.8307   -3.5333 H   0  0  0  0  0  0  0  0  0  0  0  0
  1  2  2  0  0  0  0
  1  3  1  0  0  0  0
  1  7  1  0  0  0  0
  3  4  1  0  0  0  0
  3  5  1  0  0  0  0
  3  6  1  0  0  0  0
  7  8  1  0  0  0  0
  7 12  1  0  0  0  0
  8  9  1  0  0  0  0
  8 11  1  0  0  0  0
  8 13  1  0  0  0  0
  9 10  2  0  0  0  0
  9 17  1  0  0  0  0
 11 14  1  0  0  0  0
 11 15  1  0  0  0  0
 11 16  1  0  0  0  0
 17 18  1  0  0  0  0
 17 25  1  0  0  0  0
 18 19  1  0  0  0  0
 18 21  1  0  0  0  0
 18 26  1  0  0  0  0
 19 20  2  0  0  0  0
 19 29  1  0  0  0  0
 21 22  1  0  0  0  0
 21 27  1  0  0  0  0
 21 28  1  0  0  0  0
 22 23  1  0  0  0  0
 22 24  2  0  0  0  0
 29 30  1  0  0  0  0
 29 34  1  0  0  0  0
 30 31  1  0  0  0  0
 30 33  1  0  0  0  0
 30 35  1  0  0  0  0
 31 32  2  0  0  0  0
 31 39  1  0  0  0  0
 33 36  1  0  0  0  0
 33 37  1  0  0  0  0
 33 38  1  0  0  0  0
 39 40  1  0  0  0  0
 39 41  1  0  0  0  0
 40 42  1  0  0  0  0
 40 43  1  0  0  0  0
 40 44  1  0  0  0  0
M  CHG  1  23  -1
M  END
$$$$

  -OEChem-05262215553D

 44 43  0     1  0  0  0  0  0999 V2000
   -4.7215   -0.1948   -3.8665 C   0  0  0  0  0  0  0  0  0  0  0  0
   -4.9077   -1.4009   -3.8231 O   0  0  0  0  0  0  0  0  0  0  0  0
   -5.8358    0.7259   -4.3301 C   0  0  0  0  0  0  0  0  0  0  0  0
   -5.5280    1.2575   -5.2339 H   0  0  0  0  0  0  0  0  0  0  0  0
   -6.7375    0.1475   -4.5497 H   0  0  0  0  0  0  0  0  0  0  0  0
   -6.0660    1.4539   -3.5482 H   0  0  0  0  0  0  0  0  0  0  0  0
   -3.5071    0.3426   -3.5003 N   0  0  0  0  0  0  0  0  0  0  0  0
   -2.4170   -0.4011   -2.8554 C   0  0  2  0  0  0  0  0  0  0  0  0
   -1.5380    0.5418   -2.0020 C   0  0  0  0  0  0  0  0  0  0  0  0
   -1.7204    1.7498   -2.0855 O   0  0  0  0  0  0  0  0  0  0  0  0
   -1.5778   -1.0883   -3.9383 C   0  0  0  0  0  0  0  0  0  0  0  0
   -3.4476    1.3586   -3.4275 H   0  0  0  0  0  0  0  0  0  0  0  0
   -2.8351   -1.1591   -2.1840 H   0  0  0  0  0  0  0  0  0  0  0  0
   -1.1483   -0.3454   -4.6176 H   0  0  0  0  0  0  0  0  0  0  0  0
   -0.7619   -1.6612   -3.4870 H   0  0  0  0  0  0  0  0  0  0  0  0
   -2.1977   -1.7764   -4.5211 H   0  0  0  0  0  0  0  0  0  0  0  0
   -0.5586    0.0043   -1.1883 N   0  0  0  0  0  0  0  0  0  0  0  0
    0.1845    0.6660   -0.0998 C   0  0  2  0  0  0  0  0  0  0  0  0
    0.7282    2.0928   -0.3907 C   0  0  0  0  0  0  0  0  0  0  0  0
    0.0661    3.0871   -0.1121 O   0  0  0  0  0  0  0  0  0  0  0  0
    1.3356   -0.3090    0.2398 C   0  0  0  0  0  0  0  0  0  0  0  0
    0.8501   -1.5982    0.8940 C   0  0  0  0  0  0  0  0  0  0  0  0
   -0.1994   -1.5715    1.5795 O   0  5  0  0  0  0  0  0  0  0  0  0
    1.4818   -2.6389    0.6002 O   0  0  0  0  0  0  0  0  0  0  0  0
   -0.5872   -1.0110   -1.1135 H   0  0  0  0  0  0  0  0  0  0  0  0
   -0.4760    0.7722    0.7680 H   0  0  0  0  0  0  0  0  0  0  0  0
    2.0149    0.1656    0.9530 H   0  0  0  0  0  0  0  0  0  0  0  0
    1.9044   -0.5495   -0.6636 H   0  0  0  0  0  0  0  0  0  0  0  0
    2.0763    2.2976   -0.6380 N   0  0  0  0  0  0  0  0  0  0  0  0
    2.6966    3.6068   -0.8750 C   0  0  2  0  0  0  0  0  0  0  0  0
    3.6305    3.6002   -2.1017 C   0  0  0  0  0  0  0  0  0  0  0  0
    4.2622    2.5941   -2.4062 O   0  0  0  0  0  0  0  0  0  0  0  0
    3.4707    3.9945    0.3863 C   0  0  0  0  0  0  0  0  0  0  0  0
    2.6208    1.4694   -0.8728 H   0  0  0  0  0  0  0  0  0  0  0  0
    1.9246    4.3598   -1.0627 H   0  0  0  0  0  0  0  0  0  0  0  0
    4.2593    3.2632    0.5908 H   0  0  0  0  0  0  0  0  0  0  0  0
    3.9295    4.9803    0.2658 H   0  0  0  0  0  0  0  0  0  0  0  0
    2.7948    4.0285    1.2466 H   0  0  0  0  0  0  0  0  0  0  0  0
    3.7907    4.7514   -2.8522 N   0  0  0  0  0  0  0  0  0  0  0  0
    4.6144    4.8147   -4.0517 C   0  0  0  0  0  0  0  0  0  0  0  0
    3.1914    5.5392   -2.6237 H   0  0  0  0  0  0  0  0  0  0  0  0
    5.6464    4.5291   -3.8233 H   0  0  0  0  0  0  0  0  0  0  0  0
    4.2228    4.1406   -4.8204 H   0  0  0  0  0  0  0  0  0  0  0  0
    4.6194    5.8328   -4.4520 H   0  0  0  0  0  0  0  0  0  0  0  0
  1  2  2  0  0  0  0
  1  3  1  0  0  0  0
  1  7  1  0  0  0  0
  3  4  1  0  0  0  0
  3  5  1  0  0  0  0
  3  6  1  0  0  0  0
  7  8  1  0  0  0  0
  7 12  1  0  0  0  0
  8  9  1  0  0  0  0
  8 11  1  0  0  0  0
  8 13  1  0  0  0  0
  9 10  2  0  0  0  0
  9 17  1  0  0  0  0
 11 14  1  0  0  0  0
 11 15  1  0  0  0  0
 11 16  1  0  0  0  0
 17 18  1  0  0  0  0
 17 25  1  0  0  0  0
 18 19  1  0  0  0  0
 18 21  1  0  0  0  0
 18 26  1  0  0  0  0
 19 20  2  0  0  0  0
 19 29  1  0  0  0  0
 21 22  1  0  0  0  0
 21 27  1  0  0  0  0
 21 28  1  0  0  0  0
 22 23  1  0  0  0  0
 22 24  2  0  0  0  0
 29 30  1  0  0  0  0
 29 34  1  0  0  0  0
 30 31  1  0  0  0  0
 30 33  1  0  0  0  0
 30 35  1  0  0  0  0
 31 32  2  0  0  0  0
 31 39  1  0  0  0  0
 33 36  1  0  0  0  0
 33 37  1  0  0  0  0
 33 38  1  0  0  0  0
 39 40  1  0  0  0  0
 39 41  1  0  0  0  0
 40 42  1  0  0  0  0
 40 43  1  0  0  0  0
 40 44  1  0  0  0  0
M  CHG  1  23  -1
M  END
$$$$

  -OEChem-05262215553D

 44 43  0     1  0  0  0  0  0999 V2000
   -4.6918   -0.1669   -3.8762 C   0  0  0  0  0  0  0  0  0  0  0  0
   -4.9119   -1.3669   -3.8209 O   0  0  0  0  0  0  0  0  0  0  0  0
   -5.7749    0.7800   -4.3596 C   0  0  0  0  0  0  0  0  0  0  0  0
   -5.4436    1.2918   -5.2664 H   0  0  0  0  0  0  0  0  0  0  0  0
   -6.6913    0.2259   -4.5808 H   0  0  0  0  0  0  0  0  0  0  0  0
   -5.9902    1.5236   -3.5883 H   0  0  0  0  0  0  0  0  0  0  0  0
   -3.4671    0.3419   -3.5044 N   0  0  0  0  0  0  0  0  0  0  0  0
   -2.4062   -0.4217   -2.8349 C   0  0  2  0  0  0  0  0  0  0  0  0
   -1.5210    0.5101   -1.9758 C   0  0  0  0  0  0  0  0  0  0  0  0
   -1.6913    1.7217   -2.0499 O   0  0  0  0  0  0  0  0  0  0  0  0
   -1.5643   -1.1376   -3.8968 C   0  0  0  0  0  0  0  0  0  0  0  0
   -3.3844    1.3568   -3.4382 H   0  0  0  0  0  0  0  0  0  0  0  0
   -2.8524   -1.1641   -2.1640 H   0  0  0  0  0  0  0  0  0  0  0  0
   -1.1030   -0.4100   -4.5719 H   0  0  0  0  0  0  0  0  0  0  0  0
   -0.7722   -1.7281   -3.4263 H   0  0  0  0  0  0  0  0  0  0  0  0
   -2.1903   -1.8142   -4.4867 H   0  0  0  0  0  0  0  0  0  0  0  0
   -0.5441   -0.0354   -1.1649 N   0  0  0  0  0  0  0  0  0  0  0  0
    0.1904    0.6358   -0.0786 C   0  0  2  0  0  0  0  0  0  0  0  0
    0.7193    2.0598   -0.3933 C   0  0  0  0  0  0  0  0  0  0  0  0
    0.1539    3.0521    0.0557 O   0  0  0  0  0  0  0  0  0  0  0  0
    1.3608   -0.3122    0.2630 C   0  0  0  0  0  0  0  0  0  0  0  0
    0.9010   -1.6091    0.9203 C   0  0  0  0  0  0  0  0  0  0  0  0
   -0.1497   -1.6011    1.6047 O   0  5  0  0  0  0  0  0  0  0  0  0
    1.5530   -2.6384    0.6300 O   0  0  0  0  0  0  0  0  0  0  0  0
   -0.5819   -1.0499   -1.0804 H   0  0  0  0  0  0  0  0  0  0  0  0
   -0.4688    0.7406    0.7906 H   0  0  0  0  0  0  0  0  0  0  0  0
    2.0322    0.1848    0.9684 H   0  0  0  0  0  0  0  0  0  0  0  0
    1.9321   -0.5465   -0.6402 H   0  0  0  0  0  0  0  0  0  0  0  0
    1.9789    2.2360   -0.9416 N   0  0  0  0  0  0  0  0  0  0  0  0
    2.5612    3.5367   -1.2912 C   0  0  2  0  0  0  0  0  0  0  0  0
    3.1668    3.5436   -2.7093 C   0  0  0  0  0  0  0  0  0  0  0  0
    3.6937    2.5377   -3.1728 O   0  0  0  0  0  0  0  0  0  0  0  0
    3.6310    3.8676   -0.2489 C   0  0  0  0  0  0  0  0  0  0  0  0
    2.4173    1.4042   -1.3322 H   0  0  0  0  0  0  0  0  0  0  0  0
    1.7893    4.3126   -1.2667 H   0  0  0  0  0  0  0  0  0  0  0  0
    4.4193    3.1080   -0.2562 H   0  0  0  0  0  0  0  0  0  0  0  0
    4.0820    4.8420   -0.4588 H   0  0  0  0  0  0  0  0  0  0  0  0
    3.1854    3.8986    0.7505 H   0  0  0  0  0  0  0  0  0  0  0  0
    3.1559    4.7064   -3.4591 N   0  0  0  0  0  0  0  0  0  0  0  0
    3.6626    4.7819   -4.8228 C   0  0  0  0  0  0  0  0  0  0  0  0
    2.6370    5.4941   -3.0819 H   0  0  0  0  0  0  0  0  0  0  0  0
    4.7148    4.4812   -4.8579 H   0  0  0  0  0  0  0  0  0  0  0  0
    3.0855    4.1255   -5.4823 H   0  0  0  0  0  0  0  0  0  0  0  0
    3.5851    5.8068   -5.1974 H   0  0  0  0  0  0  0  0  0  0  0  0
  1  2  2  0  0  0  0
  1  3  1  0  0  0  0
  1  7  1  0  0  0  0
  3  4  1  0  0  0  0
  3  5  1  0  0  0  0
  3  6  1  0  0  0  0
  7  8  1  0  0  0  0
  7 12  1  0  0  0  0
  8  9  1  0  0  0  0
  8 11  1  0  0  0  0
  8 13  1  0  0  0  0
  9 10  2  0  0  0  0
  9 17  1  0  0  0  0
 11 14  1  0  0  0  0
 11 15  1  0  0  0  0
 11 16  1  0  0  0  0
 17 18  1  0  0  0  0
 17 25  1  0  0  0  0
 18 19  1  0  0  0  0
 18 21  1  0  0  0  0
 18 26  1  0  0  0  0
 19 20  2  0  0  0  0
 19 29  1  0  0  0  0
 21 22  1  0  0  0  0
 21 27  1  0  0  0  0
 21 28  1  0  0  0  0
 22 23  1  0  0  0  0
 22 24  2  0  0  0  0
 29 30  1  0  0  0  0
 29 34  1  0  0  0  0
 30 31  1  0  0  0  0
 30 33  1  0  0  0  0
 30 35  1  0  0  0  0
 31 32  2  0  0  0  0
 31 39  1  0  0  0  0
 33 36  1  0  0  0  0
 33 37  1  0  0  0  0
 33 38  1  0  0  0  0
 39 40  1  0  0  0  0
 39 41  1  0  0  0  0
 40 42  1  0  0  0  0
 40 43  1  0  0  0  0
 40 44  1  0  0  0  0
M  CHG  1  23  -1
M  END
$$$$

  -OEChem-05262215553D

 44 43  0     1  0  0  0  0  0999 V2000
   -4.6607   -0.1948   -3.8612 C   0  0  0  0  0  0  0  0  0  0  0  0
   -4.8345   -1.4035   -3.8443 O   0  0  0  0  0  0  0  0  0  0  0  0
   -5.7997    0.7285   -4.2526 C   0  0  0  0  0  0  0  0  0  0  0  0
   -5.5267    1.3007   -5.1424 H   0  0  0  0  0  0  0  0  0  0  0  0
   -6.7007    0.1473   -4.4678 H   0  0  0  0  0  0  0  0  0  0  0  0
   -6.0140    1.4206   -3.4344 H   0  0  0  0  0  0  0  0  0  0  0  0
   -3.4402    0.3446   -3.5193 N   0  0  0  0  0  0  0  0  0  0  0  0
   -2.3385   -0.4055   -2.9029 C   0  0  2  0  0  0  0  0  0  0  0  0
   -1.4864    0.5141   -2.0003 C   0  0  0  0  0  0  0  0  0  0  0  0
   -1.6693    1.7261   -2.0449 O   0  0  0  0  0  0  0  0  0  0  0  0
   -1.4787   -1.0209   -4.0117 C   0  0  0  0  0  0  0  0  0  0  0  0
   -3.3903    1.3587   -3.4200 H   0  0  0  0  0  0  0  0  0  0  0  0
   -2.7427   -1.2042   -2.2710 H   0  0  0  0  0  0  0  0  0  0  0  0
   -1.0553   -0.2362   -4.6463 H   0  0  0  0  0  0  0  0  0  0  0  0
   -0.6576   -1.6038   -3.5830 H   0  0  0  0  0  0  0  0  0  0  0  0
   -2.0833   -1.6866   -4.6355 H   0  0  0  0  0  0  0  0  0  0  0  0
   -0.5334   -0.0401   -1.1669 N   0  0  0  0  0  0  0  0  0  0  0  0
    0.1730    0.6324   -0.0634 C   0  0  2  0  0  0  0  0  0  0  0  0
    0.7046    2.0502   -0.3867 C   0  0  0  0  0  0  0  0  0  0  0  0
    0.2678    3.0371    0.1978 O   0  0  0  0  0  0  0  0  0  0  0  0
    1.3482   -0.2977    0.3031 C   0  0  0  0  0  0  0  0  0  0  0  0
    0.8926   -1.6022    0.9481 C   0  0  0  0  0  0  0  0  0  0  0  0
   -0.1734   -1.6112    1.6086 O   0  5  0  0  0  0  0  0  0  0  0  0
    1.5652   -2.6217    0.6691 O   0  0  0  0  0  0  0  0  0  0  0  0
   -0.5666   -1.0556   -1.0917 H   0  0  0  0  0  0  0  0  0  0  0  0
   -0.5041    0.7380    0.7921 H   0  0  0  0  0  0  0  0  0  0  0  0
    1.9968    0.2116    1.0210 H   0  0  0  0  0  0  0  0  0  0  0  0
    1.9427   -0.5234   -0.5870 H   0  0  0  0  0  0  0  0  0  0  0  0
    1.8258    2.2031   -1.1836 N   0  0  0  0  0  0  0  0  0  0  0  0
    2.3296    3.4972   -1.6552 C   0  0  2  0  0  0  0  0  0  0  0  0
    2.5883    3.4994   -3.1753 C   0  0  0  0  0  0  0  0  0  0  0  0
    2.9644    2.4829   -3.7499 O   0  0  0  0  0  0  0  0  0  0  0  0
    3.6155    3.8101   -0.8880 C   0  0  0  0  0  0  0  0  0  0  0  0
    2.1128    1.3755   -1.7026 H   0  0  0  0  0  0  0  0  0  0  0  0
    1.5949    4.2828   -1.4519 H   0  0  0  0  0  0  0  0  0  0  0  0
    4.3720    3.0424   -1.0798 H   0  0  0  0  0  0  0  0  0  0  0  0
    4.0167    4.7811   -1.1933 H   0  0  0  0  0  0  0  0  0  0  0  0
    3.4137    3.8401    0.1876 H   0  0  0  0  0  0  0  0  0  0  0  0
    2.4360    4.6679   -3.9002 N   0  0  0  0  0  0  0  0  0  0  0  0
    2.6097    4.7390   -5.3446 C   0  0  0  0  0  0  0  0  0  0  0  0
    2.0353    5.4639   -3.4128 H   0  0  0  0  0  0  0  0  0  0  0  0
    3.6240    4.4352   -5.6239 H   0  0  0  0  0  0  0  0  0  0  0  0
    1.8926    4.0827   -5.8486 H   0  0  0  0  0  0  0  0  0  0  0  0
    2.4485    5.7631   -5.6939 H   0  0  0  0  0  0  0  0  0  0  0  0
  1  2  2  0  0  0  0
  1  3  1  0  0  0  0
  1  7  1  0  0  0  0
  3  4  1  0  0  0  0
  3  5  1  0  0  0  0
  3  6  1  0  0  0  0
  7  8  1  0  0  0  0
  7 12  1  0  0  0  0
  8  9  1  0  0  0  0
  8 11  1  0  0  0  0
  8 13  1  0  0  0  0
  9 10  2  0  0  0  0
  9 17  1  0  0  0  0
 11 14  1  0  0  0  0
 11 15  1  0  0  0  0
 11 16  1  0  0  0  0
 17 18  1  0  0  0  0
 17 25  1  0  0  0  0
 18 19  1  0  0  0  0
 18 21  1  0  0  0  0
 18 26  1  0  0  0  0
 19 20  2  0  0  0  0
 19 29  1  0  0  0  0
 21 22  1  0  0  0  0
 21 27  1  0  0  0  0
 21 28  1  0  0  0  0
 22 23  1  0  0  0  0
 22 24  2  0  0  0  0
 29 30  1  0  0  0  0
 29 34  1  0  0  0  0
 30 31  1  0  0  0  0
 30 33  1  0  0  0  0
 30 35  1  0  0  0  0
 31 32  2  0  0  0  0
 31 39  1  0  0  0  0
 33 36  1  0  0  0  0
 33 37  1  0  0  0  0
 33 38  1  0  0  0  0
 39 40  1  0  0  0  0
 39 41  1  0  0  0  0
 40 42  1  0  0  0  0
 40 43  1  0  0  0  0
 40 44  1  0  0  0  0
M  CHG  1  23  -1
M  END
$$$$

  -OEChem-05262215553D

 44 43  0     1  0  0  0  0  0999 V2000
   -4.2336    0.0545   -4.3731 C   0  0  0  0  0  0  0  0  0  0  0  0
   -4.6486   -1.0702   -4.1422 O   0  0  0  0  0  0  0  0  0  0  0  0
   -5.0553    1.0067   -5.2226 C   0  0  0  0  0  0  0  0  0  0  0  0
   -4.4695    1.3374   -6.0838 H   0  0  0  0  0  0  0  0  0  0  0  0
   -5.9596    0.5078   -5.5819 H   0  0  0  0  0  0  0  0  0  0  0  0
   -5.3443    1.8790   -4.6309 H   0  0  0  0  0  0  0  0  0  0  0  0
   -3.0227    0.4732   -3.8666 N   0  0  0  0  0  0  0  0  0  0  0  0
   -2.2198   -0.2699   -2.8860 C   0  0  2  0  0  0  0  0  0  0  0  0
   -1.3251    0.6894   -2.0683 C   0  0  0  0  0  0  0  0  0  0  0  0
   -1.3400    1.8892   -2.3261 O   0  0  0  0  0  0  0  0  0  0  0  0
   -1.3687   -1.3085   -3.6266 C   0  0  0  0  0  0  0  0  0  0  0  0
   -2.7939    1.4616   -3.9694 H   0  0  0  0  0  0  0  0  0  0  0  0
   -2.8825   -0.7830   -2.1805 H   0  0  0  0  0  0  0  0  0  0  0  0
   -0.6843   -0.8152   -4.3239 H   0  0  0  0  0  0  0  0  0  0  0  0
   -0.7805   -1.9004   -2.9185 H   0  0  0  0  0  0  0  0  0  0  0  0
   -2.0092   -1.9924   -4.1920 H   0  0  0  0  0  0  0  0  0  0  0  0
   -0.4889    0.1908   -1.0874 N   0  0  0  0  0  0  0  0  0  0  0  0
    0.2027    0.9714   -0.0466 C   0  0  2  0  0  0  0  0  0  0  0  0
    0.8859    2.2668   -0.5426 C   0  0  0  0  0  0  0  0  0  0  0  0
    0.6161    3.3580   -0.0563 O   0  0  0  0  0  0  0  0  0  0  0  0
    1.2781    0.0242    0.5208 C   0  0  0  0  0  0  0  0  0  0  0  0
    0.6808   -1.1359    1.3082 C   0  0  0  0  0  0  0  0  0  0  0  0
   -0.4176   -0.9687    1.8891 O   0  5  0  0  0  0  0  0  0  0  0  0
    1.2663   -2.2373    1.1951 O   0  0  0  0  0  0  0  0  0  0  0  0
   -0.6520   -0.7853   -0.8410 H   0  0  0  0  0  0  0  0  0  0  0  0
   -0.5073    1.2601    0.7371 H   0  0  0  0  0  0  0  0  0  0  0  0
    1.9239    0.5828    1.2036 H   0  0  0  0  0  0  0  0  0  0  0  0
    1.9027   -0.3679   -0.2873 H   0  0  0  0  0  0  0  0  0  0  0  0
    1.8757    2.1966   -1.5064 N   0  0  0  0  0  0  0  0  0  0  0  0
    2.6034    3.3577   -2.0400 C   0  0  2  0  0  0  0  0  0  0  0  0
    1.8736    4.0730   -3.2054 C   0  0  0  0  0  0  0  0  0  0  0  0
    2.4979    4.7907   -3.9817 O   0  0  0  0  0  0  0  0  0  0  0  0
    3.9909    2.8541   -2.4553 C   0  0  0  0  0  0  0  0  0  0  0  0
    2.0446    1.2794   -1.9072 H   0  0  0  0  0  0  0  0  0  0  0  0
    2.7351    4.0990   -1.2447 H   0  0  0  0  0  0  0  0  0  0  0  0
    3.9090    2.1455   -3.2854 H   0  0  0  0  0  0  0  0  0  0  0  0
    4.6214    3.6904   -2.7729 H   0  0  0  0  0  0  0  0  0  0  0  0
    4.4823    2.3553   -1.6141 H   0  0  0  0  0  0  0  0  0  0  0  0
    0.5199    3.8909   -3.4209 N   0  0  0  0  0  0  0  0  0  0  0  0
   -0.2375    4.5716   -4.4587 C   0  0  0  0  0  0  0  0  0  0  0  0
    0.0103    3.3207   -2.7379 H   0  0  0  0  0  0  0  0  0  0  0  0
   -0.1950    5.6560   -4.3138 H   0  0  0  0  0  0  0  0  0  0  0  0
    0.1641    4.3285   -5.4475 H   0  0  0  0  0  0  0  0  0  0  0  0
   -1.2848    4.2569   -4.4226 H   0  0  0  0  0  0  0  0  0  0  0  0
  1  2  2  0  0  0  0
  1  3  1  0  0  0  0
  1  7  1  0  0  0  0
  3  4  1  0  0  0  0
  3  5  1  0  0  0  0
  3  6  1  0  0  0  0
  7  8  1  0  0  0  0
  7 12  1  0  0  0  0
  8  9  1  0  0  0  0
  8 11  1  0  0  0  0
  8 13  1  0  0  0  0
  9 10  2  0  0  0  0
  9 17  1  0  0  0  0
 11 14  1  0  0  0  0
 11 15  1  0  0  0  0
 11 16  1  0  0  0  0
 17 18  1  0  0  0  0
 17 25  1  0  0  0  0
 18 19  1  0  0  0  0
 18 21  1  0  0  0  0
 18 26  1  0  0  0  0
 19 20  2  0  0  0  0
 19 29  1  0  0  0  0
 21 22  1  0  0  0  0
 21 27  1  0  0  0  0
 21 28  1  0  0  0  0
 22 23  1  0  0  0  0
 22 24  2  0  0  0  0
 29 30  1  0  0  0  0
 29 34  1  0  0  0  0
 30 31  1  0  0  0  0
 30 33  1  0  0  0  0
 30 35  1  0  0  0  0
 31 32  2  0  0  0  0
 31 39  1  0  0  0  0
 33 36  1  0  0  0  0
 33 37  1  0  0  0  0
 33 38  1  0  0  0  0
 39 40  1  0  0  0  0
 39 41  1  0  0  0  0
 40 42  1  0  0  0  0
 40 43  1  0  0  0  0
 40 44  1  0  0  0  0
M  CHG  1  23  -1
M  END
$$$$

  -OEChem-05262215553D

 44 43  0     1  0  0  0  0  0999 V2000
   -4.2702   -0.1782   -4.4371 C   0  0  0  0  0  0  0  0  0  0  0  0
   -4.5647   -1.3505   -4.2660 O   0  0  0  0  0  0  0  0  0  0  0  0
   -5.1891    0.7249   -5.2397 C   0  0  0  0  0  0  0  0  0  0  0  0
   -4.6458    1.1525   -6.0858 H   0  0  0  0  0  0  0  0  0  0  0  0
   -6.0417    0.1555   -5.6203 H   0  0  0  0  0  0  0  0  0  0  0  0
   -5.5603    1.5352   -4.6075 H   0  0  0  0  0  0  0  0  0  0  0  0
   -3.1059    0.3356   -3.9084 N   0  0  0  0  0  0  0  0  0  0  0  0
   -2.2136   -0.3803   -2.9861 C   0  0  2  0  0  0  0  0  0  0  0  0
   -1.4061    0.6093   -2.1163 C   0  0  0  0  0  0  0  0  0  0  0  0
   -1.5198    1.8155   -2.3128 O   0  0  0  0  0  0  0  0  0  0  0  0
   -1.2716   -1.2733   -3.8031 C   0  0  0  0  0  0  0  0  0  0  0  0
   -2.9751    1.3451   -3.9646 H   0  0  0  0  0  0  0  0  0  0  0  0
   -2.8075   -1.0044   -2.3090 H   0  0  0  0  0  0  0  0  0  0  0  0
   -0.6565   -0.6668   -4.4754 H   0  0  0  0  0  0  0  0  0  0  0  0
   -0.6106   -1.8430   -3.1426 H   0  0  0  0  0  0  0  0  0  0  0  0
   -1.8468   -1.9849   -4.4037 H   0  0  0  0  0  0  0  0  0  0  0  0
   -0.5373    0.1352   -1.1524 N   0  0  0  0  0  0  0  0  0  0  0  0
    0.1297    0.9267   -0.1024 C   0  0  2  0  0  0  0  0  0  0  0  0
    0.7536    2.2637   -0.5671 C   0  0  0  0  0  0  0  0  0  0  0  0
    0.6600    3.2791    0.1111 O   0  0  0  0  0  0  0  0  0  0  0  0
    1.2579    0.0176    0.4199 C   0  0  0  0  0  0  0  0  0  0  0  0
    0.7290   -1.1907    1.1842 C   0  0  0  0  0  0  0  0  0  0  0  0
   -0.3658   -1.0919    1.7874 O   0  5  0  0  0  0  0  0  0  0  0  0
    1.3541   -2.2630    1.0163 O   0  0  0  0  0  0  0  0  0  0  0  0
   -0.6248   -0.8589   -0.9410 H   0  0  0  0  0  0  0  0  0  0  0  0
   -0.5808    1.1610    0.6987 H   0  0  0  0  0  0  0  0  0  0  0  0
    1.8882    0.5877    1.1079 H   0  0  0  0  0  0  0  0  0  0  0  0
    1.8873   -0.3187   -0.4093 H   0  0  0  0  0  0  0  0  0  0  0  0
    1.5002    2.3078   -1.7313 N   0  0  0  0  0  0  0  0  0  0  0  0
    2.1781    3.5078   -2.2454 C   0  0  2  0  0  0  0  0  0  0  0  0
    1.2884    4.3981   -3.1480 C   0  0  0  0  0  0  0  0  0  0  0  0
    1.7887    5.3078   -3.8029 O   0  0  0  0  0  0  0  0  0  0  0  0
    3.4273    3.0232   -2.9890 C   0  0  0  0  0  0  0  0  0  0  0  0
    1.5096    1.4579   -2.2855 H   0  0  0  0  0  0  0  0  0  0  0  0
    2.5025    4.1302   -1.4047 H   0  0  0  0  0  0  0  0  0  0  0  0
    3.1466    2.4292   -3.8643 H   0  0  0  0  0  0  0  0  0  0  0  0
    4.0255    3.8760   -3.3250 H   0  0  0  0  0  0  0  0  0  0  0  0
    4.0469    2.4071   -2.3296 H   0  0  0  0  0  0  0  0  0  0  0  0
   -0.0649    4.1510   -3.2862 N   0  0  0  0  0  0  0  0  0  0  0  0
   -0.9670    4.9816   -4.0679 C   0  0  0  0  0  0  0  0  0  0  0  0
   -0.4636    3.4104   -2.7004 H   0  0  0  0  0  0  0  0  0  0  0  0
   -0.9917    6.0004   -3.6678 H   0  0  0  0  0  0  0  0  0  0  0  0
   -0.6461    5.0176   -5.1139 H   0  0  0  0  0  0  0  0  0  0  0  0
   -1.9794    4.5689   -4.0304 H   0  0  0  0  0  0  0  0  0  0  0  0
  1  2  2  0  0  0  0
  1  3  1  0  0  0  0
  1  7  1  0  0  0  0
  3  4  1  0  0  0  0
  3  5  1  0  0  0  0
  3  6  1  0  0  0  0
  7  8  1  0  0  0  0
  7 12  1  0  0  0  0
  8  9  1  0  0  0  0
  8 11  1  0  0  0  0
  8 13  1  0  0  0  0
  9 10  2  0  0  0  0
  9 17  1  0  0  0  0
 11 14  1  0  0  0  0
 11 15  1  0  0  0  0
 11 16  1  0  0  0  0
 17 18  1  0  0  0  0
 17 25  1  0  0  0  0
 18 19  1  0  0  0  0
 18 21  1  0  0  0  0
 18 26  1  0  0  0  0
 19 20  2  0  0  0  0
 19 29  1  0  0  0  0
 21 22  1  0  0  0  0
 21 27  1  0  0  0  0
 21 28  1  0  0  0  0
 22 23  1  0  0  0  0
 22 24  2  0  0  0  0
 29 30  1  0  0  0  0
 29 34  1  0  0  0  0
 30 31  1  0  0  0  0
 30 33  1  0  0  0  0
 30 35  1  0  0  0  0
 31 32  2  0  0  0  0
 31 39  1  0  0  0  0
 33 36  1  0  0  0  0
 33 37  1  0  0  0  0
 33 38  1  0  0  0  0
 39 40  1  0  0  0  0
 39 41  1  0  0  0  0
 40 42  1  0  0  0  0
 40 43  1  0  0  0  0
 40 44  1  0  0  0  0
M  CHG  1  23  -1
M  END
$$$$

  -OEChem-05262215553D

 44 43  0     1  0  0  0  0  0999 V2000
   -3.1491    0.4873   -5.0877 C   0  0  0  0  0  0  0  0  0  0  0  0
   -3.7696   -0.5588   -5.2131 O   0  0  0  0  0  0  0  0  0  0  0  0
   -3.3195    1.5994   -6.1058 C   0  0  0  0  0  0  0  0  0  0  0  0
   -2.3617    1.8107   -6.5880 H   0  0  0  0  0  0  0  0  0  0  0  0
   -4.0460    1.3093   -6.8695 H   0  0  0  0  0  0  0  0  0  0  0  0
   -3.6706    2.5068   -5.6077 H   0  0  0  0  0  0  0  0  0  0  0  0
   -2.2937    0.6729   -4.0248 N   0  0  0  0  0  0  0  0  0  0  0  0
   -2.2122   -0.2221   -2.8572 C   0  0  2  0  0  0  0  0  0  0  0  0
   -1.7208    0.5663   -1.6228 C   0  0  0  0  0  0  0  0  0  0  0  0
   -2.0914    1.7237   -1.4847 O   0  0  0  0  0  0  0  0  0  0  0  0
   -1.2969   -1.4061   -3.2036 C   0  0  0  0  0  0  0  0  0  0  0  0
   -1.9555    1.6341   -3.9043 H   0  0  0  0  0  0  0  0  0  0  0  0
   -3.2092   -0.6055   -2.6150 H   0  0  0  0  0  0  0  0  0  0  0  0
   -0.2845   -1.0580   -3.4308 H   0  0  0  0  0  0  0  0  0  0  0  0
   -1.2491   -2.1128   -2.3693 H   0  0  0  0  0  0  0  0  0  0  0  0
   -1.6823   -1.9411   -4.0769 H   0  0  0  0  0  0  0  0  0  0  0  0
   -0.7124    0.0952   -0.7994 N   0  0  0  0  0  0  0  0  0  0  0  0
    0.1878    0.9461    0.0044 C   0  0  2  0  0  0  0  0  0  0  0  0
    0.7450    2.1588   -0.7857 C   0  0  0  0  0  0  0  0  0  0  0  0
    0.9017    3.2628   -0.2729 O   0  0  0  0  0  0  0  0  0  0  0  0
    1.3738    0.0446    0.3891 C   0  0  0  0  0  0  0  0  0  0  0  0
    0.9990   -1.0552    1.3755 C   0  0  0  0  0  0  0  0  0  0  0  0
    0.0601   -0.8585    2.1822 O   0  5  0  0  0  0  0  0  0  0  0  0
    1.5739   -2.1559    1.2049 O   0  0  0  0  0  0  0  0  0  0  0  0
   -0.5259   -0.9053   -0.8037 H   0  0  0  0  0  0  0  0  0  0  0  0
   -0.3293    1.3184    0.8965 H   0  0  0  0  0  0  0  0  0  0  0  0
    2.1440    0.6567    0.8663 H   0  0  0  0  0  0  0  0  0  0  0  0
    1.8119   -0.4028   -0.5082 H   0  0  0  0  0  0  0  0  0  0  0  0
    0.9271    2.0358   -2.1540 N   0  0  0  0  0  0  0  0  0  0  0  0
    0.9953    3.1761   -3.0700 C   0  0  2  0  0  0  0  0  0  0  0  0
   -0.4125    3.7593   -3.3275 C   0  0  0  0  0  0  0  0  0  0  0  0
   -1.0594    3.4481   -4.3270 O   0  0  0  0  0  0  0  0  0  0  0  0
    1.6813    2.6962   -4.3534 C   0  0  0  0  0  0  0  0  0  0  0  0
    0.6230    1.1467   -2.5364 H   0  0  0  0  0  0  0  0  0  0  0  0
    1.6125    3.9689   -2.6344 H   0  0  0  0  0  0  0  0  0  0  0  0
    1.1111    1.8842   -4.8163 H   0  0  0  0  0  0  0  0  0  0  0  0
    1.7595    3.5190   -5.0707 H   0  0  0  0  0  0  0  0  0  0  0  0
    2.6889    2.3321   -4.1308 H   0  0  0  0  0  0  0  0  0  0  0  0
   -0.9664    4.5893   -2.3741 N   0  0  0  0  0  0  0  0  0  0  0  0
   -2.3666    4.9865   -2.4041 C   0  0  0  0  0  0  0  0  0  0  0  0
   -0.5112    4.5311   -1.4596 H   0  0  0  0  0  0  0  0  0  0  0  0
   -2.5861    5.5478   -3.3177 H   0  0  0  0  0  0  0  0  0  0  0  0
   -3.0176    4.1075   -2.3638 H   0  0  0  0  0  0  0  0  0  0  0  0
   -2.5927    5.6242   -1.5446 H   0  0  0  0  0  0  0  0  0  0  0  0
  1  2  2  0  0  0  0
  1  3  1  0  0  0  0
  1  7  1  0  0  0  0
  3  4  1  0  0  0  0
  3  5  1  0  0  0  0
  3  6  1  0  0  0  0
  7  8  1  0  0  0  0
  7 12  1  0  0  0  0
  8  9  1  0  0  0  0
  8 11  1  0  0  0  0
  8 13  1  0  0  0  0
  9 10  2  0  0  0  0
  9 17  1  0  0  0  0
 11 14  1  0  0  0  0
 11 15  1  0  0  0  0
 11 16  1  0  0  0  0
 17 18  1  0  0  0  0
 17 25  1  0  0  0  0
 18 19  1  0  0  0  0
 18 21  1  0  0  0  0
 18 26  1  0  0  0  0
 19 20  2  0  0  0  0
 19 29  1  0  0  0  0
 21 22  1  0  0  0  0
 21 27  1  0  0  0  0
 21 28  1  0  0  0  0
 22 23  1  0  0  0  0
 22 24  2  0  0  0  0
 29 30  1  0  0  0  0
 29 34  1  0  0  0  0
 30 31  1  0  0  0  0
 30 33  1  0  0  0  0
 30 35  1  0  0  0  0
 31 32  2  0  0  0  0
 31 39  1  0  0  0  0
 33 36  1  0  0  0  0
 33 37  1  0  0  0  0
 33 38  1  0  0  0  0
 39 40  1  0  0  0  0
 39 41  1  0  0  0  0
 40 42  1  0  0  0  0
 40 43  1  0  0  0  0
 40 44  1  0  0  0  0
M  CHG  1  23  -1
M  END
$$$$

  -OEChem-05262215553D

 44 43  0     1  0  0  0  0  0999 V2000
   -4.7806   -0.4566   -3.8487 C   0  0  0  0  0  0  0  0  0  0  0  0
   -4.9766   -1.6581   -3.7493 O   0  0  0  0  0  0  0  0  0  0  0  0
   -5.8742    0.4478   -4.3869 C   0  0  0  0  0  0  0  0  0  0  0  0
   -5.5241    0.9616   -5.2855 H   0  0  0  0  0  0  0  0  0  0  0  0
   -6.7614   -0.1396   -4.6382 H   0  0  0  0  0  0  0  0  0  0  0  0
   -6.1451    1.1918   -3.6336 H   0  0  0  0  0  0  0  0  0  0  0  0
   -3.5763    0.0929   -3.4687 N   0  0  0  0  0  0  0  0  0  0  0  0
   -2.5186   -0.6243   -2.7443 C   0  0  2  0  0  0  0  0  0  0  0  0
   -1.7298    0.3400   -1.8296 C   0  0  0  0  0  0  0  0  0  0  0  0
   -2.0641    1.5185   -1.7670 O   0  0  0  0  0  0  0  0  0  0  0  0
   -1.5931   -1.2890   -3.7701 C   0  0  0  0  0  0  0  0  0  0  0  0
   -3.5204    1.1112   -3.4408 H   0  0  0  0  0  0  0  0  0  0  0  0
   -2.9613   -1.3951   -2.1038 H   0  0  0  0  0  0  0  0  0  0  0  0
   -1.1148   -0.5329   -4.4008 H   0  0  0  0  0  0  0  0  0  0  0  0
   -0.8134   -1.8695   -3.2675 H   0  0  0  0  0  0  0  0  0  0  0  0
   -2.1635   -1.9678   -4.4117 H   0  0  0  0  0  0  0  0  0  0  0  0
   -0.6478   -0.1133   -1.1001 N   0  0  0  0  0  0  0  0  0  0  0  0
    0.1876    0.6478   -0.1490 C   0  0  2  0  0  0  0  0  0  0  0  0
    0.6564    2.0657   -0.5784 C   0  0  0  0  0  0  0  0  0  0  0  0
    1.1694    2.8244    0.2394 O   0  0  0  0  0  0  0  0  0  0  0  0
    1.4304   -0.2401    0.0607 C   0  0  0  0  0  0  0  0  0  0  0  0
    1.1197   -1.5242    0.8230 C   0  0  0  0  0  0  0  0  0  0  0  0
    0.1737   -1.5269    1.6472 O   0  5  0  0  0  0  0  0  0  0  0  0
    1.7435   -2.5472    0.4553 O   0  0  0  0  0  0  0  0  0  0  0  0
   -0.5328   -1.1252   -1.0626 H   0  0  0  0  0  0  0  0  0  0  0  0
   -0.3573    0.7726    0.7933 H   0  0  0  0  0  0  0  0  0  0  0  0
    2.1705    0.3095    0.6482 H   0  0  0  0  0  0  0  0  0  0  0  0
    1.8853   -0.4824   -0.9046 H   0  0  0  0  0  0  0  0  0  0  0  0
    0.5812    2.4881   -1.8937 N   0  0  0  0  0  0  0  0  0  0  0  0
    0.8402    3.8622   -2.3320 C   0  0  2  0  0  0  0  0  0  0  0  0
   -0.0779    4.2742   -3.5024 C   0  0  0  0  0  0  0  0  0  0  0  0
   -0.4523    3.4544   -4.3355 O   0  0  0  0  0  0  0  0  0  0  0  0
    2.3112    3.9719   -2.7407 C   0  0  0  0  0  0  0  0  0  0  0  0
   -0.0776    1.9544   -2.4609 H   0  0  0  0  0  0  0  0  0  0  0  0
    0.6442    4.5530   -1.5057 H   0  0  0  0  0  0  0  0  0  0  0  0
    2.5303    3.2862   -3.5653 H   0  0  0  0  0  0  0  0  0  0  0  0
    2.5440    4.9916   -3.0610 H   0  0  0  0  0  0  0  0  0  0  0  0
    2.9585    3.7177   -1.8951 H   0  0  0  0  0  0  0  0  0  0  0  0
   -0.4628    5.5962   -3.6405 N   0  0  0  0  0  0  0  0  0  0  0  0
   -1.3794    6.0581   -4.6741 C   0  0  0  0  0  0  0  0  0  0  0  0
   -0.2036    6.2325   -2.8926 H   0  0  0  0  0  0  0  0  0  0  0  0
   -0.9762    5.8414   -5.6688 H   0  0  0  0  0  0  0  0  0  0  0  0
   -2.3516    5.5648   -4.5712 H   0  0  0  0  0  0  0  0  0  0  0  0
   -1.5281    7.1388   -4.5902 H   0  0  0  0  0  0  0  0  0  0  0  0
  1  2  2  0  0  0  0
  1  3  1  0  0  0  0
  1  7  1  0  0  0  0
  3  4  1  0  0  0  0
  3  5  1  0  0  0  0
  3  6  1  0  0  0  0
  7  8  1  0  0  0  0
  7 12  1  0  0  0  0
  8  9  1  0  0  0  0
  8 11  1  0  0  0  0
  8 13  1  0  0  0  0
  9 10  2  0  0  0  0
  9 17  1  0  0  0  0
 11 14  1  0  0  0  0
 11 15  1  0  0  0  0
 11 16  1  0  0  0  0
 17 18  1  0  0  0  0
 17 25  1  0  0  0  0
 18 19  1  0  0  0  0
 18 21  1  0  0  0  0
 18 26  1  0  0  0  0
 19 20  2  0  0  0  0
 19 29  1  0  0  0  0
 21 22  1  0  0  0  0
 21 27  1  0  0  0  0
 21 28  1  0  0  0  0
 22 23  1  0  0  0  0
 22 24  2  0  0  0  0
 29 30  1  0  0  0  0
 29 34  1  0  0  0  0
 30 31  1  0  0  0  0
 30 33  1  0  0  0  0
 30 35  1  0  0  0  0
 31 32  2  0  0  0  0
 31 39  1  0  0  0  0
 33 36  1  0  0  0  0
 33 37  1  0  0  0  0
 33 38  1  0  0  0  0
 39 40  1  0  0  0  0
 39 41  1  0  0  0  0
 40 42  1  0  0  0  0
 40 43  1  0  0  0  0
 40 44  1  0  0  0  0
M  CHG  1  23  -1
M  END
$$$$

  -OEChem-05262215553D

 44 43  0     1  0  0  0  0  0999 V2000
   -4.7285   -0.5092   -3.9361 C   0  0  0  0  0  0  0  0  0  0  0  0
   -4.9071   -1.7176   -3.9230 O   0  0  0  0  0  0  0  0  0  0  0  0
   -5.7889    0.4079   -4.5174 C   0  0  0  0  0  0  0  0  0  0  0  0
   -5.3614    1.0047   -5.3267 H   0  0  0  0  0  0  0  0  0  0  0  0
   -6.6216   -0.1796   -4.9136 H   0  0  0  0  0  0  0  0  0  0  0  0
   -6.1664    1.0787   -3.7415 H   0  0  0  0  0  0  0  0  0  0  0  0
   -3.5743    0.0370   -3.4204 N   0  0  0  0  0  0  0  0  0  0  0  0
   -2.5632   -0.7048   -2.6545 C   0  0  2  0  0  0  0  0  0  0  0  0
   -1.8491    0.2307   -1.6522 C   0  0  0  0  0  0  0  0  0  0  0  0
   -2.3107    1.3474   -1.4424 O   0  0  0  0  0  0  0  0  0  0  0  0
   -1.5698   -1.3286   -3.6434 C   0  0  0  0  0  0  0  0  0  0  0  0
   -3.5474    1.0532   -3.3267 H   0  0  0  0  0  0  0  0  0  0  0  0
   -3.0427   -1.5006   -2.0744 H   0  0  0  0  0  0  0  0  0  0  0  0
   -1.0505   -0.5470   -4.2070 H   0  0  0  0  0  0  0  0  0  0  0  0
   -0.8257   -1.9337   -3.1165 H   0  0  0  0  0  0  0  0  0  0  0  0
   -2.0956   -1.9771   -4.3511 H   0  0  0  0  0  0  0  0  0  0  0  0
   -0.6823   -0.1582   -1.0239 N   0  0  0  0  0  0  0  0  0  0  0  0
    0.1983    0.6353   -0.1401 C   0  0  2  0  0  0  0  0  0  0  0  0
    0.5639    2.0856   -0.5790 C   0  0  0  0  0  0  0  0  0  0  0  0
    1.3288    2.7660    0.0988 O   0  0  0  0  0  0  0  0  0  0  0  0
    1.4866   -0.2116   -0.0589 C   0  0  0  0  0  0  0  0  0  0  0  0
    1.2961   -1.5155    0.7095 C   0  0  0  0  0  0  0  0  0  0  0  0
    0.4336   -1.5656    1.6193 O   0  5  0  0  0  0  0  0  0  0  0  0
    1.9115   -2.5106    0.2595 O   0  0  0  0  0  0  0  0  0  0  0  0
   -0.4418   -1.1445   -1.1061 H   0  0  0  0  0  0  0  0  0  0  0  0
   -0.2649    0.7204    0.8488 H   0  0  0  0  0  0  0  0  0  0  0  0
    2.2608    0.3533    0.4668 H   0  0  0  0  0  0  0  0  0  0  0  0
    1.8588   -0.4241   -1.0655 H   0  0  0  0  0  0  0  0  0  0  0  0
    0.0988    2.6472   -1.7546 N   0  0  0  0  0  0  0  0  0  0  0  0
    0.3393    4.0305   -2.1756 C   0  0  2  0  0  0  0  0  0  0  0  0
   -0.7893    4.5702   -3.0809 C   0  0  0  0  0  0  0  0  0  0  0  0
   -1.4559    3.8200   -3.7878 O   0  0  0  0  0  0  0  0  0  0  0  0
    1.6795    4.0883   -2.9159 C   0  0  0  0  0  0  0  0  0  0  0  0
   -0.7424    2.1995   -2.1257 H   0  0  0  0  0  0  0  0  0  0  0  0
    0.3860    4.6741   -1.2912 H   0  0  0  0  0  0  0  0  0  0  0  0
    1.6535    3.4446   -3.8009 H   0  0  0  0  0  0  0  0  0  0  0  0
    1.8986    5.1120   -3.2327 H   0  0  0  0  0  0  0  0  0  0  0  0
    2.4893    3.7488   -2.2625 H   0  0  0  0  0  0  0  0  0  0  0  0
   -1.0349    5.9312   -3.1317 N   0  0  0  0  0  0  0  0  0  0  0  0
   -2.0910    6.5252   -3.9402 C   0  0  0  0  0  0  0  0  0  0  0  0
   -0.4975    6.5245   -2.5064 H   0  0  0  0  0  0  0  0  0  0  0  0
   -1.9238    6.3150   -5.0016 H   0  0  0  0  0  0  0  0  0  0  0  0
   -3.0674    6.1238   -3.6493 H   0  0  0  0  0  0  0  0  0  0  0  0
   -2.1073    7.6103   -3.8015 H   0  0  0  0  0  0  0  0  0  0  0  0
  1  2  2  0  0  0  0
  1  3  1  0  0  0  0
  1  7  1  0  0  0  0
  3  4  1  0  0  0  0
  3  5  1  0  0  0  0
  3  6  1  0  0  0  0
  7  8  1  0  0  0  0
  7 12  1  0  0  0  0
  8  9  1  0  0  0  0
  8 11  1  0  0  0  0
  8 13  1  0  0  0  0
  9 10  2  0  0  0  0
  9 17  1  0  0  0  0
 11 14  1  0  0  0  0
 11 15  1  0  0  0  0
 11 16  1  0  0  0  0
 17 18  1  0  0  0  0
 17 25  1  0  0  0  0
 18 19  1  0  0  0  0
 18 21  1  0  0  0  0
 18 26  1  0  0  0  0
 19 20  2  0  0  0  0
 19 29  1  0  0  0  0
 21 22  1  0  0  0  0
 21 27  1  0  0  0  0
 21 28  1  0  0  0  0
 22 23  1  0  0  0  0
 22 24  2  0  0  0  0
 29 30  1  0  0  0  0
 29 34  1  0  0  0  0
 30 31  1  0  0  0  0
 30 33  1  0  0  0  0
 30 35  1  0  0  0  0
 31 32  2  0  0  0  0
 31 39  1  0  0  0  0
 33 36  1  0  0  0  0
 33 37  1  0  0  0  0
 33 38  1  0  0  0  0
 39 40  1  0  0  0  0
 39 41  1  0  0  0  0
 40 42  1  0  0  0  0
 40 43  1  0  0  0  0
 40 44  1  0  0  0  0
M  CHG  1  23  -1
M  END
$$$$

  -OEChem-05262215553D

 44 43  0     1  0  0  0  0  0999 V2000
   -4.6528   -0.3867   -4.0092 C   0  0  0  0  0  0  0  0  0  0  0  0
   -4.7913   -1.5920   -4.1536 O   0  0  0  0  0  0  0  0  0  0  0  0
   -5.7195    0.5654   -4.5183 C   0  0  0  0  0  0  0  0  0  0  0  0
   -5.2781    1.2782   -5.2192 H   0  0  0  0  0  0  0  0  0  0  0  0
   -6.5105    0.0099   -5.0297 H   0  0  0  0  0  0  0  0  0  0  0  0
   -6.1579    1.1145   -3.6812 H   0  0  0  0  0  0  0  0  0  0  0  0
   -3.5388    0.1228   -3.3802 N   0  0  0  0  0  0  0  0  0  0  0  0
   -2.5448   -0.6816   -2.6546 C   0  0  2  0  0  0  0  0  0  0  0  0
   -1.8968    0.1589   -1.5305 C   0  0  0  0  0  0  0  0  0  0  0  0
   -2.4598    1.1814   -1.1537 O   0  0  0  0  0  0  0  0  0  0  0  0
   -1.4996   -1.1870   -3.6585 C   0  0  0  0  0  0  0  0  0  0  0  0
   -3.5577    1.1192   -3.1556 H   0  0  0  0  0  0  0  0  0  0  0  0
   -3.0325   -1.5401   -2.1803 H   0  0  0  0  0  0  0  0  0  0  0  0
   -0.9598   -0.3457   -4.1048 H   0  0  0  0  0  0  0  0  0  0  0  0
   -0.7774   -1.8459   -3.1667 H   0  0  0  0  0  0  0  0  0  0  0  0
   -1.9842   -1.7542   -4.4595 H   0  0  0  0  0  0  0  0  0  0  0  0
   -0.6871   -0.1992   -0.9679 N   0  0  0  0  0  0  0  0  0  0  0  0
    0.2081    0.6064   -0.1085 C   0  0  2  0  0  0  0  0  0  0  0  0
    0.5008    2.0818   -0.5342 C   0  0  0  0  0  0  0  0  0  0  0  0
    1.4315    2.7079   -0.0353 O   0  0  0  0  0  0  0  0  0  0  0  0
    1.5180   -0.2139   -0.1004 C   0  0  0  0  0  0  0  0  0  0  0  0
    1.3949   -1.5356    0.6516 C   0  0  0  0  0  0  0  0  0  0  0  0
    0.5783   -1.6245    1.5998 O   0  5  0  0  0  0  0  0  0  0  0  0
    2.0137   -2.5059    0.1538 O   0  0  0  0  0  0  0  0  0  0  0  0
   -0.3529   -1.1348   -1.1904 H   0  0  0  0  0  0  0  0  0  0  0  0
   -0.2133    0.6565    0.9014 H   0  0  0  0  0  0  0  0  0  0  0  0
    2.3031    0.3552    0.4041 H   0  0  0  0  0  0  0  0  0  0  0  0
    1.8507   -0.3982   -1.1263 H   0  0  0  0  0  0  0  0  0  0  0  0
   -0.2499    2.7552   -1.4806 N   0  0  0  0  0  0  0  0  0  0  0  0
   -0.0574    4.1445   -1.9067 C   0  0  2  0  0  0  0  0  0  0  0  0
   -1.3294    4.7302   -2.5581 C   0  0  0  0  0  0  0  0  0  0  0  0
   -2.1233    4.0156   -3.1634 O   0  0  0  0  0  0  0  0  0  0  0  0
    1.1034    4.2029   -2.9060 C   0  0  0  0  0  0  0  0  0  0  0  0
   -1.1527    2.3255   -1.6994 H   0  0  0  0  0  0  0  0  0  0  0  0
    0.1841    4.7566   -1.0318 H   0  0  0  0  0  0  0  0  0  0  0  0
    0.8833    3.5821   -3.7801 H   0  0  0  0  0  0  0  0  0  0  0  0
    1.2702    5.2311   -3.2398 H   0  0  0  0  0  0  0  0  0  0  0  0
    2.0255    3.8377   -2.4438 H   0  0  0  0  0  0  0  0  0  0  0  0
   -1.5604    6.0937   -2.5080 N   0  0  0  0  0  0  0  0  0  0  0  0
   -2.7335    6.7304   -3.0914 C   0  0  0  0  0  0  0  0  0  0  0  0
   -0.9066    6.6572   -1.9728 H   0  0  0  0  0  0  0  0  0  0  0  0
   -2.7857    6.5258   -4.1659 H   0  0  0  0  0  0  0  0  0  0  0  0
   -3.6469    6.3584   -2.6158 H   0  0  0  0  0  0  0  0  0  0  0  0
   -2.6846    7.8140   -2.9489 H   0  0  0  0  0  0  0  0  0  0  0  0
  1  2  2  0  0  0  0
  1  3  1  0  0  0  0
  1  7  1  0  0  0  0
  3  4  1  0  0  0  0
  3  5  1  0  0  0  0
  3  6  1  0  0  0  0
  7  8  1  0  0  0  0
  7 12  1  0  0  0  0
  8  9  1  0  0  0  0
  8 11  1  0  0  0  0
  8 13  1  0  0  0  0
  9 10  2  0  0  0  0
  9 17  1  0  0  0  0
 11 14  1  0  0  0  0
 11 15  1  0  0  0  0
 11 16  1  0  0  0  0
 17 18  1  0  0  0  0
 17 25  1  0  0  0  0
 18 19  1  0  0  0  0
 18 21  1  0  0  0  0
 18 26  1  0  0  0  0
 19 20  2  0  0  0  0
 19 29  1  0  0  0  0
 21 22  1  0  0  0  0
 21 27  1  0  0  0  0
 21 28  1  0  0  0  0
 22 23  1  0  0  0  0
 22 24  2  0  0  0  0
 29 30  1  0  0  0  0
 29 34  1  0  0  0  0
 30 31  1  0  0  0  0
 30 33  1  0  0  0  0
 30 35  1  0  0  0  0
 31 32  2  0  0  0  0
 31 39  1  0  0  0  0
 33 36  1  0  0  0  0
 33 37  1  0  0  0  0
 33 38  1  0  0  0  0
 39 40  1  0  0  0  0
 39 41  1  0  0  0  0
 40 42  1  0  0  0  0
 40 43  1  0  0  0  0
 40 44  1  0  0  0  0
M  CHG  1  23  -1
M  END
$$$$

  -OEChem-05262215553D

 44 43  0     1  0  0  0  0  0999 V2000
   -4.4424   -1.4755   -4.4162 C   0  0  0  0  0  0  0  0  0  0  0  0
   -4.2794   -2.6665   -4.2034 O   0  0  0  0  0  0  0  0  0  0  0  0
   -5.6499   -1.0055   -5.2062 C   0  0  0  0  0  0  0  0  0  0  0  0
   -5.3249   -0.4681   -6.1004 H   0  0  0  0  0  0  0  0  0  0  0  0
   -6.2587   -1.8614   -5.5103 H   0  0  0  0  0  0  0  0  0  0  0  0
   -6.2604   -0.3395   -4.5914 H   0  0  0  0  0  0  0  0  0  0  0  0
   -3.5403   -0.5483   -3.9416 N   0  0  0  0  0  0  0  0  0  0  0  0
   -2.4428   -0.8462   -3.0110 C   0  0  2  0  0  0  0  0  0  0  0  0
   -2.0405    0.4098   -2.2062 C   0  0  0  0  0  0  0  0  0  0  0  0
   -2.5504    1.4892   -2.4924 O   0  0  0  0  0  0  0  0  0  0  0  0
   -1.2448   -1.3773   -3.8067 C   0  0  0  0  0  0  0  0  0  0  0  0
   -3.7931    0.4352   -4.0333 H   0  0  0  0  0  0  0  0  0  0  0  0
   -2.7669   -1.6084   -2.2933 H   0  0  0  0  0  0  0  0  0  0  0  0
   -0.8966   -0.6256   -4.5220 H   0  0  0  0  0  0  0  0  0  0  0  0
   -0.4184   -1.6295   -3.1349 H   0  0  0  0  0  0  0  0  0  0  0  0
   -1.5241   -2.2804   -4.3581 H   0  0  0  0  0  0  0  0  0  0  0  0
   -1.1696    0.2860   -1.1413 N   0  0  0  0  0  0  0  0  0  0  0  0
   -0.6138    1.3042   -0.2222 C   0  0  2  0  0  0  0  0  0  0  0  0
   -0.0629    2.6472   -0.8012 C   0  0  0  0  0  0  0  0  0  0  0  0
    0.8161    3.2739   -0.2155 O   0  0  0  0  0  0  0  0  0  0  0  0
    0.4914    0.5191    0.5231 C   0  0  0  0  0  0  0  0  0  0  0  0
   -0.0695   -0.5506    1.4554 C   0  0  0  0  0  0  0  0  0  0  0  0
   -1.2007   -0.3739    1.9684 O   0  5  0  0  0  0  0  0  0  0  0  0
    0.5684   -1.6279    1.4985 O   0  0  0  0  0  0  0  0  0  0  0  0
   -0.9577   -0.6752   -0.8755 H   0  0  0  0  0  0  0  0  0  0  0  0
   -1.3979    1.5993    0.4834 H   0  0  0  0  0  0  0  0  0  0  0  0
    1.0698    1.1986    1.1538 H   0  0  0  0  0  0  0  0  0  0  0  0
    1.1819    0.0671   -0.1954 H   0  0  0  0  0  0  0  0  0  0  0  0
   -0.5437    3.2419   -1.9520 N   0  0  0  0  0  0  0  0  0  0  0  0
   -0.0565    4.4987   -2.5424 C   0  0  2  0  0  0  0  0  0  0  0  0
   -0.5912    5.7608   -1.8186 C   0  0  0  0  0  0  0  0  0  0  0  0
   -1.1033    6.6937   -2.4306 O   0  0  0  0  0  0  0  0  0  0  0  0
   -0.4279    4.4623   -4.0298 C   0  0  0  0  0  0  0  0  0  0  0  0
   -1.3746    2.8044   -2.3562 H   0  0  0  0  0  0  0  0  0  0  0  0
    1.0356    4.5285   -2.4708 H   0  0  0  0  0  0  0  0  0  0  0  0
   -1.5156    4.4461   -4.1527 H   0  0  0  0  0  0  0  0  0  0  0  0
   -0.0323    5.3445   -4.5424 H   0  0  0  0  0  0  0  0  0  0  0  0
   -0.0087    3.5703   -4.5047 H   0  0  0  0  0  0  0  0  0  0  0  0
   -0.4474    5.8617   -0.4490 N   0  0  0  0  0  0  0  0  0  0  0  0
   -0.9049    6.9875    0.3504 C   0  0  0  0  0  0  0  0  0  0  0  0
    0.0155    5.0708    0.0090 H   0  0  0  0  0  0  0  0  0  0  0  0
   -0.4005    7.9078    0.0393 H   0  0  0  0  0  0  0  0  0  0  0  0
   -1.9861    7.1199    0.2405 H   0  0  0  0  0  0  0  0  0  0  0  0
   -0.6834    6.8102    1.4072 H   0  0  0  0  0  0  0  0  0  0  0  0
  1  2  2  0  0  0  0
  1  3  1  0  0  0  0
  1  7  1  0  0  0  0
  3  4  1  0  0  0  0
  3  5  1  0  0  0  0
  3  6  1  0  0  0  0
  7  8  1  0  0  0  0
  7 12  1  0  0  0  0
  8  9  1  0  0  0  0
  8 11  1  0  0  0  0
  8 13  1  0  0  0  0
  9 10  2  0  0  0  0
  9 17  1  0  0  0  0
 11 14  1  0  0  0  0
 11 15  1  0  0  0  0
 11 16  1  0  0  0  0
 17 18  1  0  0  0  0
 17 25  1  0  0  0  0
 18 19  1  0  0  0  0
 18 21  1  0  0  0  0
 18 26  1  0  0  0  0
 19 20  2  0  0  0  0
 19 29  1  0  0  0  0
 21 22  1  0  0  0  0
 21 27  1  0  0  0  0
 21 28  1  0  0  0  0
 22 23  1  0  0  0  0
 22 24  2  0  0  0  0
 29 30  1  0  0  0  0
 29 34  1  0  0  0  0
 30 31  1  0  0  0  0
 30 33  1  0  0  0  0
 30 35  1  0  0  0  0
 31 32  2  0  0  0  0
 31 39  1  0  0  0  0
 33 36  1  0  0  0  0
 33 37  1  0  0  0  0
 33 38  1  0  0  0  0
 39 40  1  0  0  0  0
 39 41  1  0  0  0  0
 40 42  1  0  0  0  0
 40 43  1  0  0  0  0
 40 44  1  0  0  0  0
M  CHG  1  23  -1
M  END
$$$$

  -OEChem-05262215553D

 44 43  0     1  0  0  0  0  0999 V2000
   -4.2868   -1.2846   -4.7127 C   0  0  0  0  0  0  0  0  0  0  0  0
   -3.9960   -2.4702   -4.6962 O   0  0  0  0  0  0  0  0  0  0  0  0
   -5.5305   -0.8193   -5.4482 C   0  0  0  0  0  0  0  0  0  0  0  0
   -5.2544   -0.1242   -6.2449 H   0  0  0  0  0  0  0  0  0  0  0  0
   -6.0508   -1.6739   -5.8896 H   0  0  0  0  0  0  0  0  0  0  0  0
   -6.2074   -0.3159   -4.7535 H   0  0  0  0  0  0  0  0  0  0  0  0
   -3.4961   -0.3595   -4.0662 N   0  0  0  0  0  0  0  0  0  0  0  0
   -2.3781   -0.6889   -3.1709 C   0  0  2  0  0  0  0  0  0  0  0  0
   -2.1181    0.4539   -2.1642 C   0  0  0  0  0  0  0  0  0  0  0  0
   -2.7285    1.5113   -2.2938 O   0  0  0  0  0  0  0  0  0  0  0  0
   -1.1236   -0.9488   -4.0133 C   0  0  0  0  0  0  0  0  0  0  0  0
   -3.8521    0.5939   -4.0032 H   0  0  0  0  0  0  0  0  0  0  0  0
   -2.6212   -1.5892   -2.5953 H   0  0  0  0  0  0  0  0  0  0  0  0
   -0.8607   -0.0584   -4.5930 H   0  0  0  0  0  0  0  0  0  0  0  0
   -0.2767   -1.2104   -3.3714 H   0  0  0  0  0  0  0  0  0  0  0  0
   -1.2948   -1.7781   -4.7066 H   0  0  0  0  0  0  0  0  0  0  0  0
   -1.2551    0.2466   -1.1052 N   0  0  0  0  0  0  0  0  0  0  0  0
   -0.7691    1.1735   -0.0594 C   0  0  2  0  0  0  0  0  0  0  0  0
   -0.2927    2.5986   -0.4882 C   0  0  0  0  0  0  0  0  0  0  0  0
    0.7360    3.0985   -0.0401 O   0  0  0  0  0  0  0  0  0  0  0  0
    0.3577    0.3686    0.6294 C   0  0  0  0  0  0  0  0  0  0  0  0
   -0.1666   -0.8252    1.4219 C   0  0  0  0  0  0  0  0  0  0  0  0
   -1.3182   -0.7645    1.9163 O   0  5  0  0  0  0  0  0  0  0  0  0
    0.5310   -1.8646    1.3733 O   0  0  0  0  0  0  0  0  0  0  0  0
   -0.9526   -0.7190   -0.9826 H   0  0  0  0  0  0  0  0  0  0  0  0
   -1.5811    1.3479    0.6550 H   0  0  0  0  0  0  0  0  0  0  0  0
    0.8794    1.0059    1.3475 H   0  0  0  0  0  0  0  0  0  0  0  0
    1.0903    0.0361   -0.1119 H   0  0  0  0  0  0  0  0  0  0  0  0
   -0.9991    3.3884   -1.3736 N   0  0  0  0  0  0  0  0  0  0  0  0
   -0.5256    4.6468   -1.9696 C   0  0  2  0  0  0  0  0  0  0  0  0
   -0.7031    5.8730   -1.0386 C   0  0  0  0  0  0  0  0  0  0  0  0
   -1.1960    6.9247   -1.4371 O   0  0  0  0  0  0  0  0  0  0  0  0
   -1.2637    4.8003   -3.3052 C   0  0  0  0  0  0  0  0  0  0  0  0
   -1.8431    2.9586   -1.7599 H   0  0  0  0  0  0  0  0  0  0  0  0
    0.5443    4.5614   -2.1850 H   0  0  0  0  0  0  0  0  0  0  0  0
   -2.3397    4.9132   -3.1368 H   0  0  0  0  0  0  0  0  0  0  0  0
   -0.9003    5.6816   -3.8430 H   0  0  0  0  0  0  0  0  0  0  0  0
   -1.0997    3.9200   -3.9345 H   0  0  0  0  0  0  0  0  0  0  0  0
   -0.2476    5.8017    0.2629 N   0  0  0  0  0  0  0  0  0  0  0  0
   -0.3218    6.8889    1.2262 C   0  0  0  0  0  0  0  0  0  0  0  0
    0.1995    4.9192    0.5288 H   0  0  0  0  0  0  0  0  0  0  0  0
    0.2541    7.7510    0.8749 H   0  0  0  0  0  0  0  0  0  0  0  0
   -1.3620    7.1945    1.3788 H   0  0  0  0  0  0  0  0  0  0  0  0
    0.0883    6.5655    2.1877 H   0  0  0  0  0  0  0  0  0  0  0  0
  1  2  2  0  0  0  0
  1  3  1  0  0  0  0
  1  7  1  0  0  0  0
  3  4  1  0  0  0  0
  3  5  1  0  0  0  0
  3  6  1  0  0  0  0
  7  8  1  0  0  0  0
  7 12  1  0  0  0  0
  8  9  1  0  0  0  0
  8 11  1  0  0  0  0
  8 13  1  0  0  0  0
  9 10  2  0  0  0  0
  9 17  1  0  0  0  0
 11 14  1  0  0  0  0
 11 15  1  0  0  0  0
 11 16  1  0  0  0  0
 17 18  1  0  0  0  0
 17 25  1  0  0  0  0
 18 19  1  0  0  0  0
 18 21  1  0  0  0  0
 18 26  1  0  0  0  0
 19 20  2  0  0  0  0
 19 29  1  0  0  0  0
 21 22  1  0  0  0  0
 21 27  1  0  0  0  0
 21 28  1  0  0  0  0
 22 23  1  0  0  0  0
 22 24  2  0  0  0  0
 29 30  1  0  0  0  0
 29 34  1  0  0  0  0
 30 31  1  0  0  0  0
 30 33  1  0  0  0  0
 30 35  1  0  0  0  0
 31 32  2  0  0  0  0
 31 39  1  0  0  0  0
 33 36  1  0  0  0  0
 33 37  1  0  0  0  0
 33 38  1  0  0  0  0
 39 40  1  0  0  0  0
 39 41  1  0  0  0  0
 40 42  1  0  0  0  0
 40 43  1  0  0  0  0
 40 44  1  0  0  0  0
M  CHG  1  23  -1
M  END
$$$$

  -OEChem-05262215553D

 44 43  0     1  0  0  0  0  0999 V2000
   -4.1608   -1.3127   -4.5579 C   0  0  0  0  0  0  0  0  0  0  0  0
   -3.8105   -2.4817   -4.5881 O   0  0  0  0  0  0  0  0  0  0  0  0
   -5.4349   -0.8844   -5.2627 C   0  0  0  0  0  0  0  0  0  0  0  0
   -5.2135   -0.0957   -5.9858 H   0  0  0  0  0  0  0  0  0  0  0  0
   -5.8783   -1.7328   -5.7911 H   0  0  0  0  0  0  0  0  0  0  0  0
   -6.1552   -0.5079   -4.5323 H   0  0  0  0  0  0  0  0  0  0  0  0
   -3.4109   -0.3723   -3.8859 N   0  0  0  0  0  0  0  0  0  0  0  0
   -2.2637   -0.6740   -3.0186 C   0  0  2  0  0  0  0  0  0  0  0  0
   -2.0463    0.4466   -1.9771 C   0  0  0  0  0  0  0  0  0  0  0  0
   -2.7527    1.4504   -2.0216 O   0  0  0  0  0  0  0  0  0  0  0  0
   -1.0116   -0.8418   -3.8881 C   0  0  0  0  0  0  0  0  0  0  0  0
   -3.8164    0.5573   -3.7817 H   0  0  0  0  0  0  0  0  0  0  0  0
   -2.4521   -1.6038   -2.4698 H   0  0  0  0  0  0  0  0  0  0  0  0
   -0.7960    0.0842   -4.4304 H   0  0  0  0  0  0  0  0  0  0  0  0
   -0.1444   -1.0941   -3.2698 H   0  0  0  0  0  0  0  0  0  0  0  0
   -1.1568   -1.6461   -4.6158 H   0  0  0  0  0  0  0  0  0  0  0  0
   -1.1051    0.2809   -0.9798 N   0  0  0  0  0  0  0  0  0  0  0  0
   -0.6542    1.2247    0.0637 C   0  0  2  0  0  0  0  0  0  0  0  0
   -0.3532    2.6909   -0.3759 C   0  0  0  0  0  0  0  0  0  0  0  0
    0.7500    3.2059   -0.2112 O   0  0  0  0  0  0  0  0  0  0  0  0
    0.5846    0.5349    0.6778 C   0  0  0  0  0  0  0  0  0  0  0  0
    0.2328   -0.7209    1.4695 C   0  0  0  0  0  0  0  0  0  0  0  0
   -0.8920   -0.7916    2.0215 O   0  5  0  0  0  0  0  0  0  0  0  0
    1.0396   -1.6749    1.3766 O   0  0  0  0  0  0  0  0  0  0  0  0
   -0.6956   -0.6500   -0.9182 H   0  0  0  0  0  0  0  0  0  0  0  0
   -1.4370    1.3061    0.8255 H   0  0  0  0  0  0  0  0  0  0  0  0
    1.0704    1.2180    1.3792 H   0  0  0  0  0  0  0  0  0  0  0  0
    1.3083    0.2933   -0.1064 H   0  0  0  0  0  0  0  0  0  0  0  0
   -1.3228    3.4937   -0.9452 N   0  0  0  0  0  0  0  0  0  0  0  0
   -1.0679    4.7951   -1.5834 C   0  0  2  0  0  0  0  0  0  0  0  0
   -0.9746    5.9673   -0.5737 C   0  0  0  0  0  0  0  0  0  0  0  0
   -1.6003    7.0121   -0.7310 O   0  0  0  0  0  0  0  0  0  0  0  0
   -2.1705    4.9968   -2.6299 C   0  0  0  0  0  0  0  0  0  0  0  0
   -2.1706    2.9901   -1.2205 H   0  0  0  0  0  0  0  0  0  0  0  0
   -0.1104    4.7544   -2.1125 H   0  0  0  0  0  0  0  0  0  0  0  0
   -3.1504    5.0598   -2.1463 H   0  0  0  0  0  0  0  0  0  0  0  0
   -1.9988    5.9205   -3.1912 H   0  0  0  0  0  0  0  0  0  0  0  0
   -2.1818    4.1611   -3.3362 H   0  0  0  0  0  0  0  0  0  0  0  0
   -0.1167    5.8604    0.5027 N   0  0  0  0  0  0  0  0  0  0  0  0
    0.0910    6.8970    1.5015 C   0  0  0  0  0  0  0  0  0  0  0  0
    0.4044    4.9807    0.5692 H   0  0  0  0  0  0  0  0  0  0  0  0
    0.4324    7.8227    1.0271 H   0  0  0  0  0  0  0  0  0  0  0  0
   -0.8386    7.0974    2.0436 H   0  0  0  0  0  0  0  0  0  0  0  0
    0.8504    6.5763    2.2210 H   0  0  0  0  0  0  0  0  0  0  0  0
  1  2  2  0  0  0  0
  1  3  1  0  0  0  0
  1  7  1  0  0  0  0
  3  4  1  0  0  0  0
  3  5  1  0  0  0  0
  3  6  1  0  0  0  0
  7  8  1  0  0  0  0
  7 12  1  0  0  0  0
  8  9  1  0  0  0  0
  8 11  1  0  0  0  0
  8 13  1  0  0  0  0
  9 10  2  0  0  0  0
  9 17  1  0  0  0  0
 11 14  1  0  0  0  0
 11 15  1  0  0  0  0
 11 16  1  0  0  0  0
 17 18  1  0  0  0  0
 17 25  1  0  0  0  0
 18 19  1  0  0  0  0
 18 21  1  0  0  0  0
 18 26  1  0  0  0  0
 19 20  2  0  0  0  0
 19 29  1  0  0  0  0
 21 22  1  0  0  0  0
 21 27  1  0  0  0  0
 21 28  1  0  0  0  0
 22 23  1  0  0  0  0
 22 24  2  0  0  0  0
 29 30  1  0  0  0  0
 29 34  1  0  0  0  0
 30 31  1  0  0  0  0
 30 33  1  0  0  0  0
 30 35  1  0  0  0  0
 31 32  2  0  0  0  0
 31 39  1  0  0  0  0
 33 36  1  0  0  0  0
 33 37  1  0  0  0  0
 33 38  1  0  0  0  0
 39 40  1  0  0  0  0
 39 41  1  0  0  0  0
 40 42  1  0  0  0  0
 40 43  1  0  0  0  0
 40 44  1  0  0  0  0
M  CHG  1  23  -1
M  END
$$$$

  -OEChem-05262215553D

 44 43  0     1  0  0  0  0  0999 V2000
   -4.1503   -1.0681   -4.5560 C   0  0  0  0  0  0  0  0  0  0  0  0
   -3.8459   -2.2488   -4.6179 O   0  0  0  0  0  0  0  0  0  0  0  0
   -5.3947   -0.5692   -5.2676 C   0  0  0  0  0  0  0  0  0  0  0  0
   -5.1210    0.1791   -6.0155 H   0  0  0  0  0  0  0  0  0  0  0  0
   -5.9024   -1.3988   -5.7676 H   0  0  0  0  0  0  0  0  0  0  0  0
   -6.0814   -0.1192   -4.5463 H   0  0  0  0  0  0  0  0  0  0  0  0
   -3.3728   -0.1796   -3.8450 N   0  0  0  0  0  0  0  0  0  0  0  0
   -2.2431   -0.5537   -2.9829 C   0  0  2  0  0  0  0  0  0  0  0  0
   -1.9933    0.5146   -1.8949 C   0  0  0  0  0  0  0  0  0  0  0  0
   -2.6715    1.5396   -1.8864 O   0  0  0  0  0  0  0  0  0  0  0  0
   -0.9928   -0.7321   -3.8525 C   0  0  0  0  0  0  0  0  0  0  0  0
   -3.7383    0.7636   -3.7194 H   0  0  0  0  0  0  0  0  0  0  0  0
   -2.4670   -1.4973   -2.4727 H   0  0  0  0  0  0  0  0  0  0  0  0
   -0.7453    0.2039   -4.3628 H   0  0  0  0  0  0  0  0  0  0  0  0
   -0.1369   -1.0323   -3.2401 H   0  0  0  0  0  0  0  0  0  0  0  0
   -1.1602   -1.5072   -4.6067 H   0  0  0  0  0  0  0  0  0  0  0  0
   -1.0549    0.2832   -0.9084 N   0  0  0  0  0  0  0  0  0  0  0  0
   -0.6203    1.1847    0.1741 C   0  0  2  0  0  0  0  0  0  0  0  0
   -0.3332    2.6580   -0.2360 C   0  0  0  0  0  0  0  0  0  0  0  0
    0.8059    3.1174   -0.2720 O   0  0  0  0  0  0  0  0  0  0  0  0
    0.6245    0.5005    0.7789 C   0  0  0  0  0  0  0  0  0  0  0  0
    0.2876   -0.7877    1.5233 C   0  0  0  0  0  0  0  0  0  0  0  0
   -0.8429   -0.8961    2.0575 O   0  5  0  0  0  0  0  0  0  0  0  0
    1.1178   -1.7204    1.4218 O   0  0  0  0  0  0  0  0  0  0  0  0
   -0.6527   -0.6524   -0.8856 H   0  0  0  0  0  0  0  0  0  0  0  0
   -1.4085    1.2344    0.9332 H   0  0  0  0  0  0  0  0  0  0  0  0
    1.0904    1.1747    1.5026 H   0  0  0  0  0  0  0  0  0  0  0  0
    1.3589    0.2951   -0.0058 H   0  0  0  0  0  0  0  0  0  0  0  0
   -1.3737    3.5287   -0.4995 N   0  0  0  0  0  0  0  0  0  0  0  0
   -1.1965    4.8781   -1.0600 C   0  0  2  0  0  0  0  0  0  0  0  0
   -0.8254    5.9439    0.0031 C   0  0  0  0  0  0  0  0  0  0  0  0
   -1.4132    7.0194    0.0776 O   0  0  0  0  0  0  0  0  0  0  0  0
   -2.4906    5.2145   -1.8109 C   0  0  0  0  0  0  0  0  0  0  0  0
   -2.2473    3.0450   -0.7232 H   0  0  0  0  0  0  0  0  0  0  0  0
   -0.3813    4.8591   -1.7904 H   0  0  0  0  0  0  0  0  0  0  0  0
   -3.3346    5.2650   -1.1156 H   0  0  0  0  0  0  0  0  0  0  0  0
   -2.3978    6.1802   -2.3170 H   0  0  0  0  0  0  0  0  0  0  0  0
   -2.7032    4.4498   -2.5644 H   0  0  0  0  0  0  0  0  0  0  0  0
    0.2322    5.7035    0.8574 N   0  0  0  0  0  0  0  0  0  0  0  0
    0.6894    6.6227    1.8873 C   0  0  0  0  0  0  0  0  0  0  0  0
    0.7065    4.8036    0.7349 H   0  0  0  0  0  0  0  0  0  0  0  0
    0.9929    7.5759    1.4429 H   0  0  0  0  0  0  0  0  0  0  0  0
   -0.1074    6.8070    2.6148 H   0  0  0  0  0  0  0  0  0  0  0  0
    1.5486    6.1969    2.4142 H   0  0  0  0  0  0  0  0  0  0  0  0
  1  2  2  0  0  0  0
  1  3  1  0  0  0  0
  1  7  1  0  0  0  0
  3  4  1  0  0  0  0
  3  5  1  0  0  0  0
  3  6  1  0  0  0  0
  7  8  1  0  0  0  0
  7 12  1  0  0  0  0
  8  9  1  0  0  0  0
  8 11  1  0  0  0  0
  8 13  1  0  0  0  0
  9 10  2  0  0  0  0
  9 17  1  0  0  0  0
 11 14  1  0  0  0  0
 11 15  1  0  0  0  0
 11 16  1  0  0  0  0
 17 18  1  0  0  0  0
 17 25  1  0  0  0  0
 18 19  1  0  0  0  0
 18 21  1  0  0  0  0
 18 26  1  0  0  0  0
 19 20  2  0  0  0  0
 19 29  1  0  0  0  0
 21 22  1  0  0  0  0
 21 27  1  0  0  0  0
 21 28  1  0  0  0  0
 22 23  1  0  0  0  0
 22 24  2  0  0  0  0
 29 30  1  0  0  0  0
 29 34  1  0  0  0  0
 30 31  1  0  0  0  0
 30 33  1  0  0  0  0
 30 35  1  0  0  0  0
 31 32  2  0  0  0  0
 31 39  1  0  0  0  0
 33 36  1  0  0  0  0
 33 37  1  0  0  0  0
 33 38  1  0  0  0  0
 39 40  1  0  0  0  0
 39 41  1  0  0  0  0
 40 42  1  0  0  0  0
 40 43  1  0  0  0  0
 40 44  1  0  0  0  0
M  CHG  1  23  -1
M  END
$$$$

  -OEChem-05262215553D

 44 43  0     1  0  0  0  0  0999 V2000
   -4.5946   -0.3137   -4.0417 C   0  0  0  0  0  0  0  0  0  0  0  0
   -4.4402   -1.4472   -4.4689 O   0  0  0  0  0  0  0  0  0  0  0  0
   -5.9210    0.3969   -4.2406 C   0  0  0  0  0  0  0  0  0  0  0  0
   -5.7641    1.3371   -4.7744 H   0  0  0  0  0  0  0  0  0  0  0  0
   -6.6024   -0.2299   -4.8220 H   0  0  0  0  0  0  0  0  0  0  0  0
   -6.3779    0.6095   -3.2711 H   0  0  0  0  0  0  0  0  0  0  0  0
   -3.5764    0.3300   -3.3733 N   0  0  0  0  0  0  0  0  0  0  0  0
   -2.3226   -0.3017   -2.9402 C   0  0  2  0  0  0  0  0  0  0  0  0
   -1.7239    0.4444   -1.7273 C   0  0  0  0  0  0  0  0  0  0  0  0
   -2.2695    1.4674   -1.3201 O   0  0  0  0  0  0  0  0  0  0  0  0
   -1.3311   -0.3003   -4.1093 C   0  0  0  0  0  0  0  0  0  0  0  0
   -3.8048    1.2145   -2.9194 H   0  0  0  0  0  0  0  0  0  0  0  0
   -2.5178   -1.3343   -2.6305 H   0  0  0  0  0  0  0  0  0  0  0  0
   -1.1027    0.7257   -4.4149 H   0  0  0  0  0  0  0  0  0  0  0  0
   -0.3978   -0.7945   -3.8217 H   0  0  0  0  0  0  0  0  0  0  0  0
   -1.7512   -0.8353   -4.9666 H   0  0  0  0  0  0  0  0  0  0  0  0
   -0.6173   -0.0622   -1.0753 N   0  0  0  0  0  0  0  0  0  0  0  0
    0.1322    0.5766    0.0181 C   0  0  2  0  0  0  0  0  0  0  0  0
    0.4415    2.0819   -0.2056 C   0  0  0  0  0  0  0  0  0  0  0  0
    1.4822    2.4570   -0.7412 O   0  0  0  0  0  0  0  0  0  0  0  0
    1.4253   -0.2501    0.1754 C   0  0  0  0  0  0  0  0  0  0  0  0
    1.1739   -1.6501    0.7267 C   0  0  0  0  0  0  0  0  0  0  0  0
    0.1898   -1.8328    1.4838 O   0  5  0  0  0  0  0  0  0  0  0  0
    1.9069   -2.5643    0.2821 O   0  0  0  0  0  0  0  0  0  0  0  0
   -0.2903   -0.9804   -1.3676 H   0  0  0  0  0  0  0  0  0  0  0  0
   -0.4517    0.5120    0.9428 H   0  0  0  0  0  0  0  0  0  0  0  0
    2.0913    0.2596    0.8764 H   0  0  0  0  0  0  0  0  0  0  0  0
    1.9437   -0.3204   -0.7857 H   0  0  0  0  0  0  0  0  0  0  0  0
   -0.4495    3.0460    0.2293 N   0  0  0  0  0  0  0  0  0  0  0  0
   -0.3211    4.4756   -0.0791 C   0  0  2  0  0  0  0  0  0  0  0  0
   -1.0444    5.3838    0.9373 C   0  0  0  0  0  0  0  0  0  0  0  0
   -2.0865    5.0340    1.4803 O   0  0  0  0  0  0  0  0  0  0  0  0
   -0.8809    4.7169   -1.4851 C   0  0  0  0  0  0  0  0  0  0  0  0
   -1.3911    2.6972    0.4152 H   0  0  0  0  0  0  0  0  0  0  0  0
    0.7376    4.7533   -0.0629 H   0  0  0  0  0  0  0  0  0  0  0  0
   -1.9406    4.4442   -1.5252 H   0  0  0  0  0  0  0  0  0  0  0  0
   -0.7796    5.7703   -1.7618 H   0  0  0  0  0  0  0  0  0  0  0  0
   -0.3398    4.1124   -2.2199 H   0  0  0  0  0  0  0  0  0  0  0  0
   -0.5406    6.6447    1.2061 N   0  0  0  0  0  0  0  0  0  0  0  0
   -1.1445    7.5619    2.1631 C   0  0  0  0  0  0  0  0  0  0  0  0
    0.3474    6.8902    0.7791 H   0  0  0  0  0  0  0  0  0  0  0  0
   -2.1806    7.7799    1.8838 H   0  0  0  0  0  0  0  0  0  0  0  0
   -1.1330    7.1272    3.1679 H   0  0  0  0  0  0  0  0  0  0  0  0
   -0.5883    8.5036    2.1855 H   0  0  0  0  0  0  0  0  0  0  0  0
  1  2  2  0  0  0  0
  1  3  1  0  0  0  0
  1  7  1  0  0  0  0
  3  4  1  0  0  0  0
  3  5  1  0  0  0  0
  3  6  1  0  0  0  0
  7  8  1  0  0  0  0
  7 12  1  0  0  0  0
  8  9  1  0  0  0  0
  8 11  1  0  0  0  0
  8 13  1  0  0  0  0
  9 10  2  0  0  0  0
  9 17  1  0  0  0  0
 11 14  1  0  0  0  0
 11 15  1  0  0  0  0
 11 16  1  0  0  0  0
 17 18  1  0  0  0  0
 17 25  1  0  0  0  0
 18 19  1  0  0  0  0
 18 21  1  0  0  0  0
 18 26  1  0  0  0  0
 19 20  2  0  0  0  0
 19 29  1  0  0  0  0
 21 22  1  0  0  0  0
 21 27  1  0  0  0  0
 21 28  1  0  0  0  0
 22 23  1  0  0  0  0
 22 24  2  0  0  0  0
 29 30  1  0  0  0  0
 29 34  1  0  0  0  0
 30 31  1  0  0  0  0
 30 33  1  0  0  0  0
 30 35  1  0  0  0  0
 31 32  2  0  0  0  0
 31 39  1  0  0  0  0
 33 36  1  0  0  0  0
 33 37  1  0  0  0  0
 33 38  1  0  0  0  0
 39 40  1  0  0  0  0
 39 41  1  0  0  0  0
 40 42  1  0  0  0  0
 40 43  1  0  0  0  0
 40 44  1  0  0  0  0
M  CHG  1  23  -1
M  END
$$$$

  -OEChem-05262215553D

 44 43  0     1  0  0  0  0  0999 V2000
   -4.5819   -0.2011   -4.0132 C   0  0  0  0  0  0  0  0  0  0  0  0
   -4.4484   -1.3298   -4.4601 O   0  0  0  0  0  0  0  0  0  0  0  0
   -5.8954    0.5371   -4.1970 C   0  0  0  0  0  0  0  0  0  0  0  0
   -5.7268    1.4655   -4.7479 H   0  0  0  0  0  0  0  0  0  0  0  0
   -6.6029   -0.0816   -4.7557 H   0  0  0  0  0  0  0  0  0  0  0  0
   -6.3277    0.7739   -3.2216 H   0  0  0  0  0  0  0  0  0  0  0  0
   -3.5507    0.4142   -3.3385 N   0  0  0  0  0  0  0  0  0  0  0  0
   -2.3032   -0.2428   -2.9267 C   0  0  2  0  0  0  0  0  0  0  0  0
   -1.6968    0.4593   -1.6919 C   0  0  0  0  0  0  0  0  0  0  0  0
   -2.2195    1.4865   -1.2641 O   0  0  0  0  0  0  0  0  0  0  0  0
   -1.3150   -0.2095   -4.0978 C   0  0  0  0  0  0  0  0  0  0  0  0
   -3.7584    1.2980   -2.8736 H   0  0  0  0  0  0  0  0  0  0  0  0
   -2.5056   -1.2834   -2.6504 H   0  0  0  0  0  0  0  0  0  0  0  0
   -1.0882    0.8246   -4.3765 H   0  0  0  0  0  0  0  0  0  0  0  0
   -0.3804   -0.7104   -3.8267 H   0  0  0  0  0  0  0  0  0  0  0  0
   -1.7376   -0.7211   -4.9679 H   0  0  0  0  0  0  0  0  0  0  0  0
   -0.6024   -0.0848   -1.0495 N   0  0  0  0  0  0  0  0  0  0  0  0
    0.1515    0.5370    0.0484 C   0  0  2  0  0  0  0  0  0  0  0  0
    0.4740    2.0344   -0.1867 C   0  0  0  0  0  0  0  0  0  0  0  0
    1.3532    2.3849   -0.9711 O   0  0  0  0  0  0  0  0  0  0  0  0
    1.4476   -0.2817    0.2100 C   0  0  0  0  0  0  0  0  0  0  0  0
    1.2021   -1.6858    0.7530 C   0  0  0  0  0  0  0  0  0  0  0  0
    0.2141   -1.8777    1.5030 O   0  5  0  0  0  0  0  0  0  0  0  0
    1.9565   -2.5908    0.3257 O   0  0  0  0  0  0  0  0  0  0  0  0
   -0.2752   -0.9923   -1.3712 H   0  0  0  0  0  0  0  0  0  0  0  0
   -0.4352    0.4728    0.9710 H   0  0  0  0  0  0  0  0  0  0  0  0
    2.1076    0.2309    0.9147 H   0  0  0  0  0  0  0  0  0  0  0  0
    1.9697   -0.3466   -0.7494 H   0  0  0  0  0  0  0  0  0  0  0  0
   -0.2271    3.0130    0.4945 N   0  0  0  0  0  0  0  0  0  0  0  0
   -0.1189    4.4465    0.2028 C   0  0  2  0  0  0  0  0  0  0  0  0
   -0.5003    5.3333    1.4052 C   0  0  0  0  0  0  0  0  0  0  0  0
   -1.3783    4.9966    2.1922 O   0  0  0  0  0  0  0  0  0  0  0  0
   -1.0225    4.7639   -0.9933 C   0  0  0  0  0  0  0  0  0  0  0  0
   -1.0599    2.6993    0.9900 H   0  0  0  0  0  0  0  0  0  0  0  0
    0.9173    4.6837   -0.0585 H   0  0  0  0  0  0  0  0  0  0  0  0
   -2.0637    4.5184   -0.7597 H   0  0  0  0  0  0  0  0  0  0  0  0
   -0.9613    5.8255   -1.2496 H   0  0  0  0  0  0  0  0  0  0  0  0
   -0.7173    4.1786   -1.8666 H   0  0  0  0  0  0  0  0  0  0  0  0
    0.1278    6.5539    1.5796 N   0  0  0  0  0  0  0  0  0  0  0  0
   -0.1511    7.4474    2.6952 C   0  0  0  0  0  0  0  0  0  0  0  0
    0.8829    6.7825    0.9401 H   0  0  0  0  0  0  0  0  0  0  0  0
   -1.2005    7.7595    2.6826 H   0  0  0  0  0  0  0  0  0  0  0  0
    0.0589    6.9488    3.6471 H   0  0  0  0  0  0  0  0  0  0  0  0
    0.4760    8.3413    2.6266 H   0  0  0  0  0  0  0  0  0  0  0  0
  1  2  2  0  0  0  0
  1  3  1  0  0  0  0
  1  7  1  0  0  0  0
  3  4  1  0  0  0  0
  3  5  1  0  0  0  0
  3  6  1  0  0  0  0
  7  8  1  0  0  0  0
  7 12  1  0  0  0  0
  8  9  1  0  0  0  0
  8 11  1  0  0  0  0
  8 13  1  0  0  0  0
  9 10  2  0  0  0  0
  9 17  1  0  0  0  0
 11 14  1  0  0  0  0
 11 15  1  0  0  0  0
 11 16  1  0  0  0  0
 17 18  1  0  0  0  0
 17 25  1  0  0  0  0
 18 19  1  0  0  0  0
 18 21  1  0  0  0  0
 18 26  1  0  0  0  0
 19 20  2  0  0  0  0
 19 29  1  0  0  0  0
 21 22  1  0  0  0  0
 21 27  1  0  0  0  0
 21 28  1  0  0  0  0
 22 23  1  0  0  0  0
 22 24  2  0  0  0  0
 29 30  1  0  0  0  0
 29 34  1  0  0  0  0
 30 31  1  0  0  0  0
 30 33  1  0  0  0  0
 30 35  1  0  0  0  0
 31 32  2  0  0  0  0
 31 39  1  0  0  0  0
 33 36  1  0  0  0  0
 33 37  1  0  0  0  0
 33 38  1  0  0  0  0
 39 40  1  0  0  0  0
 39 41  1  0  0  0  0
 40 42  1  0  0  0  0
 40 43  1  0  0  0  0
 40 44  1  0  0  0  0
M  CHG  1  23  -1
M  END
$$$$

  -OEChem-05262215553D

 44 43  0     1  0  0  0  0  0999 V2000
   -4.5825   -0.1630   -4.0074 C   0  0  0  0  0  0  0  0  0  0  0  0
   -4.4541   -1.2901   -4.4597 O   0  0  0  0  0  0  0  0  0  0  0  0
   -5.8952    0.5783   -4.1850 C   0  0  0  0  0  0  0  0  0  0  0  0
   -5.7270    1.5083   -4.7334 H   0  0  0  0  0  0  0  0  0  0  0  0
   -6.6048   -0.0376   -4.7445 H   0  0  0  0  0  0  0  0  0  0  0  0
   -6.3251    0.8123   -3.2078 H   0  0  0  0  0  0  0  0  0  0  0  0
   -3.5478    0.4443   -3.3303 N   0  0  0  0  0  0  0  0  0  0  0  0
   -2.3034   -0.2209   -2.9221 C   0  0  2  0  0  0  0  0  0  0  0  0
   -1.6966    0.4646   -1.6779 C   0  0  0  0  0  0  0  0  0  0  0  0
   -2.2132    1.4915   -1.2406 O   0  0  0  0  0  0  0  0  0  0  0  0
   -1.3119   -0.1789   -4.0899 C   0  0  0  0  0  0  0  0  0  0  0  0
   -3.7500    1.3271   -2.8612 H   0  0  0  0  0  0  0  0  0  0  0  0
   -2.5103   -1.2635   -2.6575 H   0  0  0  0  0  0  0  0  0  0  0  0
   -1.0818    0.8573   -4.3575 H   0  0  0  0  0  0  0  0  0  0  0  0
   -0.3792   -0.6838   -3.8205 H   0  0  0  0  0  0  0  0  0  0  0  0
   -1.7332   -0.6813   -4.9660 H   0  0  0  0  0  0  0  0  0  0  0  0
   -0.6113   -0.0974   -1.0349 N   0  0  0  0  0  0  0  0  0  0  0  0
    0.1502    0.5244    0.0570 C   0  0  2  0  0  0  0  0  0  0  0  0
    0.4923    2.0130   -0.1962 C   0  0  0  0  0  0  0  0  0  0  0  0
    1.1826    2.3532   -1.1551 O   0  0  0  0  0  0  0  0  0  0  0  0
    1.4443   -0.2938    0.2279 C   0  0  0  0  0  0  0  0  0  0  0  0
    1.1977   -1.6927    0.7830 C   0  0  0  0  0  0  0  0  0  0  0  0
    0.2087   -1.8775    1.5333 O   0  5  0  0  0  0  0  0  0  0  0  0
    1.9614   -2.5992    0.3758 O   0  0  0  0  0  0  0  0  0  0  0  0
   -0.2752   -0.9935   -1.3776 H   0  0  0  0  0  0  0  0  0  0  0  0
   -0.4393    0.4738    0.9787 H   0  0  0  0  0  0  0  0  0  0  0  0
    2.1042    0.2238    0.9290 H   0  0  0  0  0  0  0  0  0  0  0  0
    1.9673   -0.3673   -0.7304 H   0  0  0  0  0  0  0  0  0  0  0  0
    0.0430    2.9912    0.6726 N   0  0  0  0  0  0  0  0  0  0  0  0
    0.1829    4.4315    0.4321 C   0  0  2  0  0  0  0  0  0  0  0  0
    0.1716    5.2569    1.7346 C   0  0  0  0  0  0  0  0  0  0  0  0
   -0.5026    4.9098    2.6983 O   0  0  0  0  0  0  0  0  0  0  0  0
   -0.9597    4.8756   -0.4864 C   0  0  0  0  0  0  0  0  0  0  0  0
   -0.5999    2.6952    1.4044 H   0  0  0  0  0  0  0  0  0  0  0  0
    1.1382    4.6234   -0.0667 H   0  0  0  0  0  0  0  0  0  0  0  0
   -1.9274    4.6793   -0.0134 H   0  0  0  0  0  0  0  0  0  0  0  0
   -0.8855    5.9452   -0.7024 H   0  0  0  0  0  0  0  0  0  0  0  0
   -0.9206    4.3274   -1.4331 H   0  0  0  0  0  0  0  0  0  0  0  0
    0.9064    6.4268    1.8135 N   0  0  0  0  0  0  0  0  0  0  0  0
    0.9888    7.2409    3.0187 C   0  0  0  0  0  0  0  0  0  0  0  0
    1.5001    6.6557    1.0220 H   0  0  0  0  0  0  0  0  0  0  0  0
   -0.0060    7.5908    3.3135 H   0  0  0  0  0  0  0  0  0  0  0  0
    1.4190    6.6618    3.8426 H   0  0  0  0  0  0  0  0  0  0  0  0
    1.6230    8.1145    2.8409 H   0  0  0  0  0  0  0  0  0  0  0  0
  1  2  2  0  0  0  0
  1  3  1  0  0  0  0
  1  7  1  0  0  0  0
  3  4  1  0  0  0  0
  3  5  1  0  0  0  0
  3  6  1  0  0  0  0
  7  8  1  0  0  0  0
  7 12  1  0  0  0  0
  8  9  1  0  0  0  0
  8 11  1  0  0  0  0
  8 13  1  0  0  0  0
  9 10  2  0  0  0  0
  9 17  1  0  0  0  0
 11 14  1  0  0  0  0
 11 15  1  0  0  0  0
 11 16  1  0  0  0  0
 17 18  1  0  0  0  0
 17 25  1  0  0  0  0
 18 19  1  0  0  0  0
 18 21  1  0  0  0  0
 18 26  1  0  0  0  0
 19 20  2  0  0  0  0
 19 29  1  0  0  0  0
 21 22  1  0  0  0  0
 21 27  1  0  0  0  0
 21 28  1  0  0  0  0
 22 23  1  0  0  0  0
 22 24  2  0  0  0  0
 29 30  1  0  0  0  0
 29 34  1  0  0  0  0
 30 31  1  0  0  0  0
 30 33  1  0  0  0  0
 30 35  1  0  0  0  0
 31 32  2  0  0  0  0
 31 39  1  0  0  0  0
 33 36  1  0  0  0  0
 33 37  1  0  0  0  0
 33 38  1  0  0  0  0
 39 40  1  0  0  0  0
 39 41  1  0  0  0  0
 40 42  1  0  0  0  0
 40 43  1  0  0  0  0
 40 44  1  0  0  0  0
M  CHG  1  23  -1
M  END
$$$$

  -OEChem-05262215553D

 44 43  0     1  0  0  0  0  0999 V2000
   -4.5835   -0.1517   -4.0150 C   0  0  0  0  0  0  0  0  0  0  0  0
   -4.4446   -1.2695   -4.4872 O   0  0  0  0  0  0  0  0  0  0  0  0
   -5.8984    0.5856   -4.1914 C   0  0  0  0  0  0  0  0  0  0  0  0
   -5.7316    1.5194   -4.7338 H   0  0  0  0  0  0  0  0  0  0  0  0
   -6.6046   -0.0300   -4.7556 H   0  0  0  0  0  0  0  0  0  0  0  0
   -6.3318    0.8128   -3.2142 H   0  0  0  0  0  0  0  0  0  0  0  0
   -3.5591    0.4492   -3.3173 N   0  0  0  0  0  0  0  0  0  0  0  0
   -2.3170   -0.2184   -2.9070 C   0  0  2  0  0  0  0  0  0  0  0  0
   -1.7332    0.4384   -1.6369 C   0  0  0  0  0  0  0  0  0  0  0  0
   -2.2738    1.4391   -1.1682 O   0  0  0  0  0  0  0  0  0  0  0  0
   -1.3084   -0.1427   -4.0584 C   0  0  0  0  0  0  0  0  0  0  0  0
   -3.7715    1.3207   -2.8319 H   0  0  0  0  0  0  0  0  0  0  0  0
   -2.5218   -1.2683   -2.6713 H   0  0  0  0  0  0  0  0  0  0  0  0
   -1.0748    0.9009   -4.2924 H   0  0  0  0  0  0  0  0  0  0  0  0
   -0.3796   -0.6547   -3.7894 H   0  0  0  0  0  0  0  0  0  0  0  0
   -1.7157   -0.6203   -4.9549 H   0  0  0  0  0  0  0  0  0  0  0  0
   -0.6409   -0.1226   -1.0047 N   0  0  0  0  0  0  0  0  0  0  0  0
    0.1340    0.5185    0.0659 C   0  0  2  0  0  0  0  0  0  0  0  0
    0.4745    2.0016   -0.2153 C   0  0  0  0  0  0  0  0  0  0  0  0
    0.9559    2.3503   -1.2920 O   0  0  0  0  0  0  0  0  0  0  0  0
    1.4370   -0.2858    0.2304 C   0  0  0  0  0  0  0  0  0  0  0  0
    1.2141   -1.6786    0.8099 C   0  0  0  0  0  0  0  0  0  0  0  0
    0.2393   -1.8642    1.5783 O   0  5  0  0  0  0  0  0  0  0  0  0
    1.9866   -2.5801    0.4082 O   0  0  0  0  0  0  0  0  0  0  0  0
   -0.2647   -0.9821   -1.3944 H   0  0  0  0  0  0  0  0  0  0  0  0
   -0.4445    0.4809    0.9949 H   0  0  0  0  0  0  0  0  0  0  0  0
    2.1027    0.2487    0.9133 H   0  0  0  0  0  0  0  0  0  0  0  0
    1.9461   -0.3677   -0.7347 H   0  0  0  0  0  0  0  0  0  0  0  0
    0.3155    2.9542    0.7748 N   0  0  0  0  0  0  0  0  0  0  0  0
    0.5401    4.3908    0.5825 C   0  0  2  0  0  0  0  0  0  0  0  0
    0.9046    5.1156    1.8938 C   0  0  0  0  0  0  0  0  0  0  0  0
    0.4513    4.7400    2.9695 O   0  0  0  0  0  0  0  0  0  0  0  0
   -0.7284    4.9981   -0.0243 C   0  0  0  0  0  0  0  0  0  0  0  0
   -0.0940    2.6500    1.6561 H   0  0  0  0  0  0  0  0  0  0  0  0
    1.3739    4.5360   -0.1118 H   0  0  0  0  0  0  0  0  0  0  0  0
   -1.5783    4.8611    0.6521 H   0  0  0  0  0  0  0  0  0  0  0  0
   -0.5926    6.0685   -0.2041 H   0  0  0  0  0  0  0  0  0  0  0  0
   -0.9631    4.5136   -0.9778 H   0  0  0  0  0  0  0  0  0  0  0  0
    1.7337    6.2230    1.8600 N   0  0  0  0  0  0  0  0  0  0  0  0
    2.1729    6.9295    3.0557 C   0  0  0  0  0  0  0  0  0  0  0  0
    2.1420    6.4697    0.9634 H   0  0  0  0  0  0  0  0  0  0  0  0
    1.3114    7.3117    3.6131 H   0  0  0  0  0  0  0  0  0  0  0  0
    2.7460    6.2599    3.7054 H   0  0  0  0  0  0  0  0  0  0  0  0
    2.8092    7.7762    2.7812 H   0  0  0  0  0  0  0  0  0  0  0  0
  1  2  2  0  0  0  0
  1  3  1  0  0  0  0
  1  7  1  0  0  0  0
  3  4  1  0  0  0  0
  3  5  1  0  0  0  0
  3  6  1  0  0  0  0
  7  8  1  0  0  0  0
  7 12  1  0  0  0  0
  8  9  1  0  0  0  0
  8 11  1  0  0  0  0
  8 13  1  0  0  0  0
  9 10  2  0  0  0  0
  9 17  1  0  0  0  0
 11 14  1  0  0  0  0
 11 15  1  0  0  0  0
 11 16  1  0  0  0  0
 17 18  1  0  0  0  0
 17 25  1  0  0  0  0
 18 19  1  0  0  0  0
 18 21  1  0  0  0  0
 18 26  1  0  0  0  0
 19 20  2  0  0  0  0
 19 29  1  0  0  0  0
 21 22  1  0  0  0  0
 21 27  1  0  0  0  0
 21 28  1  0  0  0  0
 22 23  1  0  0  0  0
 22 24  2  0  0  0  0
 29 30  1  0  0  0  0
 29 34  1  0  0  0  0
 30 31  1  0  0  0  0
 30 33  1  0  0  0  0
 30 35  1  0  0  0  0
 31 32  2  0  0  0  0
 31 39  1  0  0  0  0
 33 36  1  0  0  0  0
 33 37  1  0  0  0  0
 33 38  1  0  0  0  0
 39 40  1  0  0  0  0
 39 41  1  0  0  0  0
 40 42  1  0  0  0  0
 40 43  1  0  0  0  0
 40 44  1  0  0  0  0
M  CHG  1  23  -1
M  END
$$$$

  -OEChem-05262215553D

 44 43  0     1  0  0  0  0  0999 V2000
   -4.5810   -0.1484   -4.0285 C   0  0  0  0  0  0  0  0  0  0  0  0
   -4.4270   -1.2498   -4.5337 O   0  0  0  0  0  0  0  0  0  0  0  0
   -5.8993    0.5848   -4.1982 C   0  0  0  0  0  0  0  0  0  0  0  0
   -5.7372    1.5227   -4.7349 H   0  0  0  0  0  0  0  0  0  0  0  0
   -6.6043   -0.0301   -4.7642 H   0  0  0  0  0  0  0  0  0  0  0  0
   -6.3316    0.8046   -3.2190 H   0  0  0  0  0  0  0  0  0  0  0  0
   -3.5710    0.4394   -3.3000 N   0  0  0  0  0  0  0  0  0  0  0  0
   -2.3297   -0.2288   -2.8893 C   0  0  2  0  0  0  0  0  0  0  0  0
   -1.7742    0.3995   -1.5923 C   0  0  0  0  0  0  0  0  0  0  0  0
   -2.3512    1.3622   -1.0881 O   0  0  0  0  0  0  0  0  0  0  0  0
   -1.3040   -0.1116   -4.0220 C   0  0  0  0  0  0  0  0  0  0  0  0
   -3.7982    1.2934   -2.7902 H   0  0  0  0  0  0  0  0  0  0  0  0
   -2.5281   -1.2865   -2.6859 H   0  0  0  0  0  0  0  0  0  0  0  0
   -1.0778    0.9403   -4.2238 H   0  0  0  0  0  0  0  0  0  0  0  0
   -0.3737   -0.6210   -3.7530 H   0  0  0  0  0  0  0  0  0  0  0  0
   -1.6929   -0.5686   -4.9370 H   0  0  0  0  0  0  0  0  0  0  0  0
   -0.6671   -0.1470   -0.9733 N   0  0  0  0  0  0  0  0  0  0  0  0
    0.1160    0.5206    0.0754 C   0  0  2  0  0  0  0  0  0  0  0  0
    0.4411    2.0047   -0.2251 C   0  0  0  0  0  0  0  0  0  0  0  0
    0.7064    2.3835   -1.3652 O   0  0  0  0  0  0  0  0  0  0  0  0
    1.4328   -0.2641    0.2232 C   0  0  0  0  0  0  0  0  0  0  0  0
    1.2433   -1.6533    0.8226 C   0  0  0  0  0  0  0  0  0  0  0  0
    0.2876   -1.8450    1.6128 O   0  5  0  0  0  0  0  0  0  0  0  0
    2.0250   -2.5458    0.4184 O   0  0  0  0  0  0  0  0  0  0  0  0
   -0.2552   -0.9711   -1.4003 H   0  0  0  0  0  0  0  0  0  0  0  0
   -0.4474    0.4881    1.0139 H   0  0  0  0  0  0  0  0  0  0  0  0
    2.1041    0.2855    0.8877 H   0  0  0  0  0  0  0  0  0  0  0  0
    1.9242   -0.3485   -0.7507 H   0  0  0  0  0  0  0  0  0  0  0  0
    0.5871    2.9066    0.8138 N   0  0  0  0  0  0  0  0  0  0  0  0
    0.9213    4.3247    0.6415 C   0  0  2  0  0  0  0  0  0  0  0  0
    1.6446    4.9166    1.8677 C   0  0  0  0  0  0  0  0  0  0  0  0
    1.4224    4.4917    2.9962 O   0  0  0  0  0  0  0  0  0  0  0  0
   -0.3740    5.0947    0.3682 C   0  0  0  0  0  0  0  0  0  0  0  0
    0.4270    2.5646    1.7600 H   0  0  0  0  0  0  0  0  0  0  0  0
    1.5924    4.4365   -0.2161 H   0  0  0  0  0  0  0  0  0  0  0  0
   -1.0619    4.9972    1.2141 H   0  0  0  0  0  0  0  0  0  0  0  0
   -0.1625    6.1562    0.2098 H   0  0  0  0  0  0  0  0  0  0  0  0
   -0.8669    4.7025   -0.5272 H   0  0  0  0  0  0  0  0  0  0  0  0
    2.5409    5.9576    1.7019 N   0  0  0  0  0  0  0  0  0  0  0  0
    3.3104    6.5306    2.7976 C   0  0  0  0  0  0  0  0  0  0  0  0
    2.7501    6.2431    0.7499 H   0  0  0  0  0  0  0  0  0  0  0  0
    2.6419    6.9332    3.5654 H   0  0  0  0  0  0  0  0  0  0  0  0
    3.9528    5.7692    3.2519 H   0  0  0  0  0  0  0  0  0  0  0  0
    3.9426    7.3440    2.4296 H   0  0  0  0  0  0  0  0  0  0  0  0
  1  2  2  0  0  0  0
  1  3  1  0  0  0  0
  1  7  1  0  0  0  0
  3  4  1  0  0  0  0
  3  5  1  0  0  0  0
  3  6  1  0  0  0  0
  7  8  1  0  0  0  0
  7 12  1  0  0  0  0
  8  9  1  0  0  0  0
  8 11  1  0  0  0  0
  8 13  1  0  0  0  0
  9 10  2  0  0  0  0
  9 17  1  0  0  0  0
 11 14  1  0  0  0  0
 11 15  1  0  0  0  0
 11 16  1  0  0  0  0
 17 18  1  0  0  0  0
 17 25  1  0  0  0  0
 18 19  1  0  0  0  0
 18 21  1  0  0  0  0
 18 26  1  0  0  0  0
 19 20  2  0  0  0  0
 19 29  1  0  0  0  0
 21 22  1  0  0  0  0
 21 27  1  0  0  0  0
 21 28  1  0  0  0  0
 22 23  1  0  0  0  0
 22 24  2  0  0  0  0
 29 30  1  0  0  0  0
 29 34  1  0  0  0  0
 30 31  1  0  0  0  0
 30 33  1  0  0  0  0
 30 35  1  0  0  0  0
 31 32  2  0  0  0  0
 31 39  1  0  0  0  0
 33 36  1  0  0  0  0
 33 37  1  0  0  0  0
 33 38  1  0  0  0  0
 39 40  1  0  0  0  0
 39 41  1  0  0  0  0
 40 42  1  0  0  0  0
 40 43  1  0  0  0  0
 40 44  1  0  0  0  0
M  CHG  1  23  -1
M  END
$$$$

  -OEChem-05262215553D

 44 43  0     1  0  0  0  0  0999 V2000
   -4.5792   -0.1486   -4.0304 C   0  0  0  0  0  0  0  0  0  0  0  0
   -4.4115   -1.2393   -4.5540 O   0  0  0  0  0  0  0  0  0  0  0  0
   -5.9013    0.5774   -4.2024 C   0  0  0  0  0  0  0  0  0  0  0  0
   -5.7403    1.5253   -4.7219 H   0  0  0  0  0  0  0  0  0  0  0  0
   -6.5946   -0.0331   -4.7877 H   0  0  0  0  0  0  0  0  0  0  0  0
   -6.3467    0.7769   -3.2245 H   0  0  0  0  0  0  0  0  0  0  0  0
   -3.5805    0.4329   -3.2814 N   0  0  0  0  0  0  0  0  0  0  0  0
   -2.3385   -0.2344   -2.8712 C   0  0  2  0  0  0  0  0  0  0  0  0
   -1.8061    0.3665   -1.5515 C   0  0  0  0  0  0  0  0  0  0  0  0
   -2.4200    1.2863   -1.0118 O   0  0  0  0  0  0  0  0  0  0  0  0
   -1.3007   -0.0783   -3.9881 C   0  0  0  0  0  0  0  0  0  0  0  0
   -3.8201    1.2736   -2.7555 H   0  0  0  0  0  0  0  0  0  0  0  0
   -2.5289   -1.2986   -2.6965 H   0  0  0  0  0  0  0  0  0  0  0  0
   -1.0753    0.9804   -4.1530 H   0  0  0  0  0  0  0  0  0  0  0  0
   -0.3721   -0.5944   -3.7258 H   0  0  0  0  0  0  0  0  0  0  0  0
   -1.6783   -0.5052   -4.9221 H   0  0  0  0  0  0  0  0  0  0  0  0
   -0.6819   -0.1623   -0.9468 N   0  0  0  0  0  0  0  0  0  0  0  0
    0.1047    0.5284    0.0858 C   0  0  2  0  0  0  0  0  0  0  0  0
    0.4110    2.0179   -0.2180 C   0  0  0  0  0  0  0  0  0  0  0  0
    0.4681    2.4448   -1.3705 O   0  0  0  0  0  0  0  0  0  0  0  0
    1.4362   -0.2381    0.2100 C   0  0  0  0  0  0  0  0  0  0  0  0
    1.2820   -1.6277    0.8177 C   0  0  0  0  0  0  0  0  0  0  0  0
    0.3471   -1.8329    1.6287 O   0  5  0  0  0  0  0  0  0  0  0  0
    2.0735   -2.5067    0.4026 O   0  0  0  0  0  0  0  0  0  0  0  0
   -0.2432   -0.9571   -1.4018 H   0  0  0  0  0  0  0  0  0  0  0  0
   -0.4423    0.4922    1.0342 H   0  0  0  0  0  0  0  0  0  0  0  0
    2.1158    0.3197    0.8591 H   0  0  0  0  0  0  0  0  0  0  0  0
    1.9083   -0.3197   -0.7735 H   0  0  0  0  0  0  0  0  0  0  0  0
    0.8591    2.8464    0.7959 N   0  0  0  0  0  0  0  0  0  0  0  0
    1.2993    4.2338    0.6067 C   0  0  2  0  0  0  0  0  0  0  0  0
    2.3350    4.6749    1.6602 C   0  0  0  0  0  0  0  0  0  0  0  0
    2.3349    4.1879    2.7853 O   0  0  0  0  0  0  0  0  0  0  0  0
    0.0672    5.1417    0.6622 C   0  0  0  0  0  0  0  0  0  0  0  0
    0.9297    2.4470    1.7309 H   0  0  0  0  0  0  0  0  0  0  0  0
    1.7747    4.3340   -0.3745 H   0  0  0  0  0  0  0  0  0  0  0  0
   -0.4246    5.0575    1.6366 H   0  0  0  0  0  0  0  0  0  0  0  0
    0.3527    6.1857    0.5029 H   0  0  0  0  0  0  0  0  0  0  0  0
   -0.6493    4.8566   -0.1151 H   0  0  0  0  0  0  0  0  0  0  0  0
    3.2656    5.6490    1.3452 N   0  0  0  0  0  0  0  0  0  0  0  0
    4.3198    6.0716    2.2573 C   0  0  0  0  0  0  0  0  0  0  0  0
    3.2827    5.9802    0.3853 H   0  0  0  0  0  0  0  0  0  0  0  0
    3.8903    6.4485    3.1915 H   0  0  0  0  0  0  0  0  0  0  0  0
    4.9853    5.2330    2.4877 H   0  0  0  0  0  0  0  0  0  0  0  0
    4.9128    6.8710    1.8027 H   0  0  0  0  0  0  0  0  0  0  0  0
  1  2  2  0  0  0  0
  1  3  1  0  0  0  0
  1  7  1  0  0  0  0
  3  4  1  0  0  0  0
  3  5  1  0  0  0  0
  3  6  1  0  0  0  0
  7  8  1  0  0  0  0
  7 12  1  0  0  0  0
  8  9  1  0  0  0  0
  8 11  1  0  0  0  0
  8 13  1  0  0  0  0
  9 10  2  0  0  0  0
  9 17  1  0  0  0  0
 11 14  1  0  0  0  0
 11 15  1  0  0  0  0
 11 16  1  0  0  0  0
 17 18  1  0  0  0  0
 17 25  1  0  0  0  0
 18 19  1  0  0  0  0
 18 21  1  0  0  0  0
 18 26  1  0  0  0  0
 19 20  2  0  0  0  0
 19 29  1  0  0  0  0
 21 22  1  0  0  0  0
 21 27  1  0  0  0  0
 21 28  1  0  0  0  0
 22 23  1  0  0  0  0
 22 24  2  0  0  0  0
 29 30  1  0  0  0  0
 29 34  1  0  0  0  0
 30 31  1  0  0  0  0
 30 33  1  0  0  0  0
 30 35  1  0  0  0  0
 31 32  2  0  0  0  0
 31 39  1  0  0  0  0
 33 36  1  0  0  0  0
 33 37  1  0  0  0  0
 33 38  1  0  0  0  0
 39 40  1  0  0  0  0
 39 41  1  0  0  0  0
 40 42  1  0  0  0  0
 40 43  1  0  0  0  0
 40 44  1  0  0  0  0
M  CHG  1  23  -1
M  END
$$$$

  -OEChem-05262215553D

 44 43  0     1  0  0  0  0  0999 V2000
   -4.5301   -0.2076   -4.0914 C   0  0  0  0  0  0  0  0  0  0  0  0
   -4.2653   -1.2284   -4.7080 O   0  0  0  0  0  0  0  0  0  0  0  0
   -5.8906    0.4446   -4.2569 C   0  0  0  0  0  0  0  0  0  0  0  0
   -5.7716    1.4559   -4.6533 H   0  0  0  0  0  0  0  0  0  0  0  0
   -6.5074   -0.1361   -4.9482 H   0  0  0  0  0  0  0  0  0  0  0  0
   -6.3980    0.4973   -3.2905 H   0  0  0  0  0  0  0  0  0  0  0  0
   -3.6071    0.3630   -3.2437 N   0  0  0  0  0  0  0  0  0  0  0  0
   -2.3399   -0.2585   -2.8387 C   0  0  2  0  0  0  0  0  0  0  0  0
   -1.9164    0.2355   -1.4375 C   0  0  0  0  0  0  0  0  0  0  0  0
   -2.6873    0.9355   -0.7828 O   0  0  0  0  0  0  0  0  0  0  0  0
   -1.2671    0.0825   -3.8795 C   0  0  0  0  0  0  0  0  0  0  0  0
   -3.9333    1.1198   -2.6420 H   0  0  0  0  0  0  0  0  0  0  0  0
   -2.4592   -1.3457   -2.7827 H   0  0  0  0  0  0  0  0  0  0  0  0
   -1.1047    1.1645   -3.9181 H   0  0  0  0  0  0  0  0  0  0  0  0
   -0.3187   -0.4027   -3.6293 H   0  0  0  0  0  0  0  0  0  0  0  0
   -1.5761   -0.2612   -4.8715 H   0  0  0  0  0  0  0  0  0  0  0  0
   -0.7363   -0.2022   -0.8677 N   0  0  0  0  0  0  0  0  0  0  0  0
    0.0598    0.5478    0.1210 C   0  0  2  0  0  0  0  0  0  0  0  0
    0.0164    2.1020    0.0479 C   0  0  0  0  0  0  0  0  0  0  0  0
   -0.3356    2.7017   -0.9662 O   0  0  0  0  0  0  0  0  0  0  0  0
    1.5142    0.0810   -0.1109 C   0  0  0  0  0  0  0  0  0  0  0  0
    1.7608   -1.3677    0.2951 C   0  0  0  0  0  0  0  0  0  0  0  0
    1.0708   -1.8632    1.2175 O   0  5  0  0  0  0  0  0  0  0  0  0
    2.5872   -2.0039   -0.3996 O   0  0  0  0  0  0  0  0  0  0  0  0
   -0.2170   -0.8868   -1.4098 H   0  0  0  0  0  0  0  0  0  0  0  0
   -0.2754    0.2690    1.1256 H   0  0  0  0  0  0  0  0  0  0  0  0
    2.1979    0.6897    0.4854 H   0  0  0  0  0  0  0  0  0  0  0  0
    1.7820    0.2186   -1.1629 H   0  0  0  0  0  0  0  0  0  0  0  0
    0.7472    2.8396    0.9654 N   0  0  0  0  0  0  0  0  0  0  0  0
    1.0430    4.2736    0.8484 C   0  0  2  0  0  0  0  0  0  0  0  0
    2.3385    4.6694    1.5852 C   0  0  0  0  0  0  0  0  0  0  0  0
    2.7603    3.9985    2.5206 O   0  0  0  0  0  0  0  0  0  0  0  0
   -0.1459    5.0626    1.4049 C   0  0  0  0  0  0  0  0  0  0  0  0
    1.2154    2.3220    1.7088 H   0  0  0  0  0  0  0  0  0  0  0  0
    1.1821    4.5312   -0.2064 H   0  0  0  0  0  0  0  0  0  0  0  0
   -0.3046    4.8191    2.4604 H   0  0  0  0  0  0  0  0  0  0  0  0
    0.0328    6.1382    1.3163 H   0  0  0  0  0  0  0  0  0  0  0  0
   -1.0571    4.8170    0.8497 H   0  0  0  0  0  0  0  0  0  0  0  0
    3.0329    5.8017    1.1975 N   0  0  0  0  0  0  0  0  0  0  0  0
    4.3002    6.2044    1.7918 C   0  0  0  0  0  0  0  0  0  0  0  0
    2.6933    6.2968    0.3784 H   0  0  0  0  0  0  0  0  0  0  0  0
    4.1902    6.3442    2.8721 H   0  0  0  0  0  0  0  0  0  0  0  0
    5.0661    5.4435    1.6098 H   0  0  0  0  0  0  0  0  0  0  0  0
    4.6374    7.1489    1.3549 H   0  0  0  0  0  0  0  0  0  0  0  0
  1  2  2  0  0  0  0
  1  3  1  0  0  0  0
  1  7  1  0  0  0  0
  3  4  1  0  0  0  0
  3  5  1  0  0  0  0
  3  6  1  0  0  0  0
  7  8  1  0  0  0  0
  7 12  1  0  0  0  0
  8  9  1  0  0  0  0
  8 11  1  0  0  0  0
  8 13  1  0  0  0  0
  9 10  2  0  0  0  0
  9 17  1  0  0  0  0
 11 14  1  0  0  0  0
 11 15  1  0  0  0  0
 11 16  1  0  0  0  0
 17 18  1  0  0  0  0
 17 25  1  0  0  0  0
 18 19  1  0  0  0  0
 18 21  1  0  0  0  0
 18 26  1  0  0  0  0
 19 20  2  0  0  0  0
 19 29  1  0  0  0  0
 21 22  1  0  0  0  0
 21 27  1  0  0  0  0
 21 28  1  0  0  0  0
 22 23  1  0  0  0  0
 22 24  2  0  0  0  0
 29 30  1  0  0  0  0
 29 34  1  0  0  0  0
 30 31  1  0  0  0  0
 30 33  1  0  0  0  0
 30 35  1  0  0  0  0
 31 32  2  0  0  0  0
 31 39  1  0  0  0  0
 33 36  1  0  0  0  0
 33 37  1  0  0  0  0
 33 38  1  0  0  0  0
 39 40  1  0  0  0  0
 39 41  1  0  0  0  0
 40 42  1  0  0  0  0
 40 43  1  0  0  0  0
 40 44  1  0  0  0  0
M  CHG  1  23  -1
M  END
$$$$

  -OEChem-05262215553D

 44 43  0     1  0  0  0  0  0999 V2000
   -4.5018   -0.1914   -4.1007 C   0  0  0  0  0  0  0  0  0  0  0  0
   -4.1923   -1.1704   -4.7628 O   0  0  0  0  0  0  0  0  0  0  0  0
   -5.8924    0.4032   -4.2327 C   0  0  0  0  0  0  0  0  0  0  0  0
   -5.8223    1.4471   -4.5478 H   0  0  0  0  0  0  0  0  0  0  0  0
   -6.4731   -0.1516   -4.9748 H   0  0  0  0  0  0  0  0  0  0  0  0
   -6.4098    0.3549   -3.2713 H   0  0  0  0  0  0  0  0  0  0  0  0
   -3.6036    0.3827   -3.2292 N   0  0  0  0  0  0  0  0  0  0  0  0
   -2.3148   -0.2044   -2.8431 C   0  0  2  0  0  0  0  0  0  0  0  0
   -1.9194    0.2466   -1.4196 C   0  0  0  0  0  0  0  0  0  0  0  0
   -2.7178    0.8946   -0.7458 O   0  0  0  0  0  0  0  0  0  0  0  0
   -1.2508    0.2236   -3.8602 C   0  0  0  0  0  0  0  0  0  0  0  0
   -3.9637    1.0955   -2.5938 H   0  0  0  0  0  0  0  0  0  0  0  0
   -2.3903   -1.2970   -2.8348 H   0  0  0  0  0  0  0  0  0  0  0  0
   -1.1315    1.3120   -3.8517 H   0  0  0  0  0  0  0  0  0  0  0  0
   -0.2857   -0.2341   -3.6229 H   0  0  0  0  0  0  0  0  0  0  0  0
   -1.5397   -0.0897   -4.8681 H   0  0  0  0  0  0  0  0  0  0  0  0
   -0.7451   -0.2002   -0.8464 N   0  0  0  0  0  0  0  0  0  0  0  0
    0.0728    0.5390    0.1349 C   0  0  2  0  0  0  0  0  0  0  0  0
    0.0790    2.1000    0.0720 C   0  0  0  0  0  0  0  0  0  0  0  0
   -0.4998    2.7389   -0.8027 O   0  0  0  0  0  0  0  0  0  0  0  0
    1.5034    0.0003   -0.1113 C   0  0  0  0  0  0  0  0  0  0  0  0
    1.6869   -1.4542    0.3084 C   0  0  0  0  0  0  0  0  0  0  0  0
    0.9881   -1.9077    1.2453 O   0  5  0  0  0  0  0  0  0  0  0  0
    2.4657   -2.1367   -0.3971 O   0  0  0  0  0  0  0  0  0  0  0  0
   -0.2336   -0.8855   -1.3948 H   0  0  0  0  0  0  0  0  0  0  0  0
   -0.2641    0.2733    1.1425 H   0  0  0  0  0  0  0  0  0  0  0  0
    2.2294    0.5722    0.4700 H   0  0  0  0  0  0  0  0  0  0  0  0
    1.7639    0.1154   -1.1679 H   0  0  0  0  0  0  0  0  0  0  0  0
    1.0531    2.8052    0.7620 N   0  0  0  0  0  0  0  0  0  0  0  0
    1.3582    4.2309    0.5798 C   0  0  2  0  0  0  0  0  0  0  0  0
    2.8143    4.5740    0.9542 C   0  0  0  0  0  0  0  0  0  0  0  0
    3.4400    3.8802    1.7479 O   0  0  0  0  0  0  0  0  0  0  0  0
    0.3872    5.0511    1.4347 C   0  0  0  0  0  0  0  0  0  0  0  0
    1.6776    2.2650    1.3602 H   0  0  0  0  0  0  0  0  0  0  0  0
    1.2257    4.4997   -0.4734 H   0  0  0  0  0  0  0  0  0  0  0  0
    0.5066    4.8011    2.4938 H   0  0  0  0  0  0  0  0  0  0  0  0
    0.5725    6.1214    1.3047 H   0  0  0  0  0  0  0  0  0  0  0  0
   -0.6465    4.8418    1.1418 H   0  0  0  0  0  0  0  0  0  0  0  0
    3.4223    5.6895    0.4060 N   0  0  0  0  0  0  0  0  0  0  0  0
    4.8060    6.0584    0.6724 C   0  0  0  0  0  0  0  0  0  0  0  0
    2.8959    6.2137   -0.2864 H   0  0  0  0  0  0  0  0  0  0  0  0
    4.9568    6.2314    1.7429 H   0  0  0  0  0  0  0  0  0  0  0  0
    5.4835    5.2637    0.3437 H   0  0  0  0  0  0  0  0  0  0  0  0
    5.0612    6.9762    0.1347 H   0  0  0  0  0  0  0  0  0  0  0  0
  1  2  2  0  0  0  0
  1  3  1  0  0  0  0
  1  7  1  0  0  0  0
  3  4  1  0  0  0  0
  3  5  1  0  0  0  0
  3  6  1  0  0  0  0
  7  8  1  0  0  0  0
  7 12  1  0  0  0  0
  8  9  1  0  0  0  0
  8 11  1  0  0  0  0
  8 13  1  0  0  0  0
  9 10  2  0  0  0  0
  9 17  1  0  0  0  0
 11 14  1  0  0  0  0
 11 15  1  0  0  0  0
 11 16  1  0  0  0  0
 17 18  1  0  0  0  0
 17 25  1  0  0  0  0
 18 19  1  0  0  0  0
 18 21  1  0  0  0  0
 18 26  1  0  0  0  0
 19 20  2  0  0  0  0
 19 29  1  0  0  0  0
 21 22  1  0  0  0  0
 21 27  1  0  0  0  0
 21 28  1  0  0  0  0
 22 23  1  0  0  0  0
 22 24  2  0  0  0  0
 29 30  1  0  0  0  0
 29 34  1  0  0  0  0
 30 31  1  0  0  0  0
 30 33  1  0  0  0  0
 30 35  1  0  0  0  0
 31 32  2  0  0  0  0
 31 39  1  0  0  0  0
 33 36  1  0  0  0  0
 33 37  1  0  0  0  0
 33 38  1  0  0  0  0
 39 40  1  0  0  0  0
 39 41  1  0  0  0  0
 40 42  1  0  0  0  0
 40 43  1  0  0  0  0
 40 44  1  0  0  0  0
M  CHG  1  23  -1
M  END
$$$$

  -OEChem-05262215553D

 44 43  0     1  0  0  0  0  0999 V2000
   -4.4748   -0.1832   -4.1287 C   0  0  0  0  0  0  0  0  0  0  0  0
   -4.1348   -1.1486   -4.7959 O   0  0  0  0  0  0  0  0  0  0  0  0
   -5.8779    0.3780   -4.2695 C   0  0  0  0  0  0  0  0  0  0  0  0
   -5.8299    1.4270   -4.5716 H   0  0  0  0  0  0  0  0  0  0  0  0
   -6.4364   -0.1823   -5.0243 H   0  0  0  0  0  0  0  0  0  0  0  0
   -6.4046    0.3057   -3.3147 H   0  0  0  0  0  0  0  0  0  0  0  0
   -3.5987    0.4047   -3.2439 N   0  0  0  0  0  0  0  0  0  0  0  0
   -2.3079   -0.1663   -2.8403 C   0  0  2  0  0  0  0  0  0  0  0  0
   -1.9335    0.2918   -1.4132 C   0  0  0  0  0  0  0  0  0  0  0  0
   -2.7503    0.9305   -0.7548 O   0  0  0  0  0  0  0  0  0  0  0  0
   -1.2352    0.2684   -3.8453 C   0  0  0  0  0  0  0  0  0  0  0  0
   -3.9829    1.1005   -2.6034 H   0  0  0  0  0  0  0  0  0  0  0  0
   -2.3730   -1.2594   -2.8290 H   0  0  0  0  0  0  0  0  0  0  0  0
   -1.1277    1.3581   -3.8414 H   0  0  0  0  0  0  0  0  0  0  0  0
   -0.2684   -0.1780   -3.5932 H   0  0  0  0  0  0  0  0  0  0  0  0
   -1.5072   -0.0534   -4.8552 H   0  0  0  0  0  0  0  0  0  0  0  0
   -0.7759   -0.1732   -0.8201 N   0  0  0  0  0  0  0  0  0  0  0  0
    0.0827    0.5434    0.1456 C   0  0  2  0  0  0  0  0  0  0  0  0
    0.1724    2.1051    0.0640 C   0  0  0  0  0  0  0  0  0  0  0  0
   -0.6323    2.8093   -0.5345 O   0  0  0  0  0  0  0  0  0  0  0  0
    1.4750   -0.1008   -0.0813 C   0  0  0  0  0  0  0  0  0  0  0  0
    1.5592   -1.5524    0.3802 C   0  0  0  0  0  0  0  0  0  0  0  0
    0.8326   -1.9339    1.3276 O   0  5  0  0  0  0  0  0  0  0  0  0
    2.2895   -2.3030   -0.3074 O   0  0  0  0  0  0  0  0  0  0  0  0
   -0.2971   -0.8987   -1.3459 H   0  0  0  0  0  0  0  0  0  0  0  0
   -0.2705    0.3192    1.1580 H   0  0  0  0  0  0  0  0  0  0  0  0
    2.2374    0.4254    0.4950 H   0  0  0  0  0  0  0  0  0  0  0  0
    1.7505   -0.0292   -1.1378 H   0  0  0  0  0  0  0  0  0  0  0  0
    1.3291    2.7601    0.4593 N   0  0  0  0  0  0  0  0  0  0  0  0
    1.6144    4.1868    0.2520 C   0  0  2  0  0  0  0  0  0  0  0  0
    3.1270    4.4770    0.1644 C   0  0  0  0  0  0  0  0  0  0  0  0
    3.9460    3.6902    0.6259 O   0  0  0  0  0  0  0  0  0  0  0  0
    0.9895    4.9798    1.4043 C   0  0  0  0  0  0  0  0  0  0  0  0
    2.0866    2.1814    0.8201 H   0  0  0  0  0  0  0  0  0  0  0  0
    1.1696    4.5144   -0.6933 H   0  0  0  0  0  0  0  0  0  0  0  0
    1.4248    4.6708    2.3599 H   0  0  0  0  0  0  0  0  0  0  0  0
    1.1627    6.0516    1.2708 H   0  0  0  0  0  0  0  0  0  0  0  0
   -0.0908    4.8072    1.4418 H   0  0  0  0  0  0  0  0  0  0  0  0
    3.5735    5.6449   -0.4283 N   0  0  0  0  0  0  0  0  0  0  0  0
    4.9837    5.9782   -0.5795 C   0  0  0  0  0  0  0  0  0  0  0  0
    2.8740    6.2571   -0.8370 H   0  0  0  0  0  0  0  0  0  0  0  0
    5.4769    6.0102    0.3976 H   0  0  0  0  0  0  0  0  0  0  0  0
    5.4878    5.2347   -1.2056 H   0  0  0  0  0  0  0  0  0  0  0  0
    5.0905    6.9590   -1.0522 H   0  0  0  0  0  0  0  0  0  0  0  0
  1  2  2  0  0  0  0
  1  3  1  0  0  0  0
  1  7  1  0  0  0  0
  3  4  1  0  0  0  0
  3  5  1  0  0  0  0
  3  6  1  0  0  0  0
  7  8  1  0  0  0  0
  7 12  1  0  0  0  0
  8  9  1  0  0  0  0
  8 11  1  0  0  0  0
  8 13  1  0  0  0  0
  9 10  2  0  0  0  0
  9 17  1  0  0  0  0
 11 14  1  0  0  0  0
 11 15  1  0  0  0  0
 11 16  1  0  0  0  0
 17 18  1  0  0  0  0
 17 25  1  0  0  0  0
 18 19  1  0  0  0  0
 18 21  1  0  0  0  0
 18 26  1  0  0  0  0
 19 20  2  0  0  0  0
 19 29  1  0  0  0  0
 21 22  1  0  0  0  0
 21 27  1  0  0  0  0
 21 28  1  0  0  0  0
 22 23  1  0  0  0  0
 22 24  2  0  0  0  0
 29 30  1  0  0  0  0
 29 34  1  0  0  0  0
 30 31  1  0  0  0  0
 30 33  1  0  0  0  0
 30 35  1  0  0  0  0
 31 32  2  0  0  0  0
 31 39  1  0  0  0  0
 33 36  1  0  0  0  0
 33 37  1  0  0  0  0
 33 38  1  0  0  0  0
 39 40  1  0  0  0  0
 39 41  1  0  0  0  0
 40 42  1  0  0  0  0
 40 43  1  0  0  0  0
 40 44  1  0  0  0  0
M  CHG  1  23  -1
M  END
$$$$

  -OEChem-05262215553D

 44 43  0     1  0  0  0  0  0999 V2000
   -4.7312   -0.1085   -3.8271 C   0  0  0  0  0  0  0  0  0  0  0  0
   -5.0333   -1.2649   -3.5753 O   0  0  0  0  0  0  0  0  0  0  0  0
   -5.7830    0.8487   -4.3576 C   0  0  0  0  0  0  0  0  0  0  0  0
   -5.5231    1.1629   -5.3711 H   0  0  0  0  0  0  0  0  0  0  0  0
   -6.7619    0.3616   -4.3775 H   0  0  0  0  0  0  0  0  0  0  0  0
   -5.8411    1.7306   -3.7148 H   0  0  0  0  0  0  0  0  0  0  0  0
   -3.4449    0.3421   -3.6281 N   0  0  0  0  0  0  0  0  0  0  0  0
   -2.4004   -0.3975   -2.9076 C   0  0  2  0  0  0  0  0  0  0  0  0
   -1.4237    0.5763   -2.2086 C   0  0  0  0  0  0  0  0  0  0  0  0
   -1.4759    1.7644   -2.5028 O   0  0  0  0  0  0  0  0  0  0  0  0
   -1.6585   -1.2971   -3.9016 C   0  0  0  0  0  0  0  0  0  0  0  0
   -3.2841    1.3457   -3.7187 H   0  0  0  0  0  0  0  0  0  0  0  0
   -2.8572   -1.0186   -2.1292 H   0  0  0  0  0  0  0  0  0  0  0  0
   -1.1832   -0.6947   -4.6821 H   0  0  0  0  0  0  0  0  0  0  0  0
   -0.8849   -1.8789   -3.3909 H   0  0  0  0  0  0  0  0  0  0  0  0
   -2.3562   -1.9953   -4.3742 H   0  0  0  0  0  0  0  0  0  0  0  0
   -0.4516    0.0664   -1.3679 N   0  0  0  0  0  0  0  0  0  0  0  0
    0.2282    0.7020   -0.2198 C   0  0  2  0  0  0  0  0  0  0  0  0
    0.4290    2.2468   -0.2207 C   0  0  0  0  0  0  0  0  0  0  0  0
   -0.5385    2.9923   -0.1052 O   0  0  0  0  0  0  0  0  0  0  0  0
    1.5731   -0.0625   -0.1292 C   0  0  0  0  0  0  0  0  0  0  0  0
    1.3902   -1.5112    0.3136 C   0  0  0  0  0  0  0  0  0  0  0  0
    0.4165   -1.7956    1.0520 O   0  5  0  0  0  0  0  0  0  0  0  0
    2.1858   -2.3494   -0.1676 O   0  0  0  0  0  0  0  0  0  0  0  0
   -0.4973   -0.9474   -1.2745 H   0  0  0  0  0  0  0  0  0  0  0  0
   -0.3619    0.5085    0.6827 H   0  0  0  0  0  0  0  0  0  0  0  0
    2.2192    0.3955    0.6225 H   0  0  0  0  0  0  0  0  0  0  0  0
    2.0914   -0.0280   -1.0923 H   0  0  0  0  0  0  0  0  0  0  0  0
    1.6462    2.8079    0.1348 N   0  0  0  0  0  0  0  0  0  0  0  0
    1.8962    4.2471    0.2922 C   0  0  2  0  0  0  0  0  0  0  0  0
    3.1815    4.7005   -0.4283 C   0  0  0  0  0  0  0  0  0  0  0  0
    4.1622    3.9665   -0.4836 O   0  0  0  0  0  0  0  0  0  0  0  0
    1.9855    4.5486    1.7894 C   0  0  0  0  0  0  0  0  0  0  0  0
    2.4592    2.1985    0.0601 H   0  0  0  0  0  0  0  0  0  0  0  0
    1.0692    4.8225   -0.1356 H   0  0  0  0  0  0  0  0  0  0  0  0
    2.8111    3.9913    2.2433 H   0  0  0  0  0  0  0  0  0  0  0  0
    2.1517    5.6169    1.9558 H   0  0  0  0  0  0  0  0  0  0  0  0
    1.0541    4.2606    2.2872 H   0  0  0  0  0  0  0  0  0  0  0  0
    3.2475    5.9613   -0.9947 N   0  0  0  0  0  0  0  0  0  0  0  0
    4.3967    6.4338   -1.7551 C   0  0  0  0  0  0  0  0  0  0  0  0
    2.3897    6.5051   -1.0107 H   0  0  0  0  0  0  0  0  0  0  0  0
    5.3013    6.4080   -1.1384 H   0  0  0  0  0  0  0  0  0  0  0  0
    4.5537    5.8078   -2.6396 H   0  0  0  0  0  0  0  0  0  0  0  0
    4.2331    7.4641   -2.0842 H   0  0  0  0  0  0  0  0  0  0  0  0
  1  2  2  0  0  0  0
  1  3  1  0  0  0  0
  1  7  1  0  0  0  0
  3  4  1  0  0  0  0
  3  5  1  0  0  0  0
  3  6  1  0  0  0  0
  7  8  1  0  0  0  0
  7 12  1  0  0  0  0
  8  9  1  0  0  0  0
  8 11  1  0  0  0  0
  8 13  1  0  0  0  0
  9 10  2  0  0  0  0
  9 17  1  0  0  0  0
 11 14  1  0  0  0  0
 11 15  1  0  0  0  0
 11 16  1  0  0  0  0
 17 18  1  0  0  0  0
 17 25  1  0  0  0  0
 18 19  1  0  0  0  0
 18 21  1  0  0  0  0
 18 26  1  0  0  0  0
 19 20  2  0  0  0  0
 19 29  1  0  0  0  0
 21 22  1  0  0  0  0
 21 27  1  0  0  0  0
 21 28  1  0  0  0  0
 22 23  1  0  0  0  0
 22 24  2  0  0  0  0
 29 30  1  0  0  0  0
 29 34  1  0  0  0  0
 30 31  1  0  0  0  0
 30 33  1  0  0  0  0
 30 35  1  0  0  0  0
 31 32  2  0  0  0  0
 31 39  1  0  0  0  0
 33 36  1  0  0  0  0
 33 37  1  0  0  0  0
 33 38  1  0  0  0  0
 39 40  1  0  0  0  0
 39 41  1  0  0  0  0
 40 42  1  0  0  0  0
 40 43  1  0  0  0  0
 40 44  1  0  0  0  0
M  CHG  1  23  -1
M  END
$$$$

  -OEChem-05262215553D

 44 43  0     1  0  0  0  0  0999 V2000
   -4.6996   -0.1503   -3.8862 C   0  0  0  0  0  0  0  0  0  0  0  0
   -4.9488   -1.3356   -3.7305 O   0  0  0  0  0  0  0  0  0  0  0  0
   -5.7756    0.7870   -4.4029 C   0  0  0  0  0  0  0  0  0  0  0  0
   -5.4790    1.1954   -5.3720 H   0  0  0  0  0  0  0  0  0  0  0  0
   -6.7212    0.2502   -4.5192 H   0  0  0  0  0  0  0  0  0  0  0  0
   -5.9221    1.6097   -3.6985 H   0  0  0  0  0  0  0  0  0  0  0  0
   -3.4496    0.3494   -3.5952 N   0  0  0  0  0  0  0  0  0  0  0  0
   -2.3922   -0.3907   -2.8944 C   0  0  2  0  0  0  0  0  0  0  0  0
   -1.4789    0.5735   -2.1031 C   0  0  0  0  0  0  0  0  0  0  0  0
   -1.5947    1.7780   -2.2948 O   0  0  0  0  0  0  0  0  0  0  0  0
   -1.5804   -1.1855   -3.9231 C   0  0  0  0  0  0  0  0  0  0  0  0
   -3.3379    1.3635   -3.6088 H   0  0  0  0  0  0  0  0  0  0  0  0
   -2.8413   -1.0836   -2.1743 H   0  0  0  0  0  0  0  0  0  0  0  0
   -1.1023   -0.5089   -4.6383 H   0  0  0  0  0  0  0  0  0  0  0  0
   -0.8029   -1.7752   -3.4275 H   0  0  0  0  0  0  0  0  0  0  0  0
   -2.2319   -1.8720   -4.4723 H   0  0  0  0  0  0  0  0  0  0  0  0
   -0.5071    0.0480   -1.2717 N   0  0  0  0  0  0  0  0  0  0  0  0
    0.1991    0.6798   -0.1393 C   0  0  2  0  0  0  0  0  0  0  0  0
    0.4188    2.2191   -0.1821 C   0  0  0  0  0  0  0  0  0  0  0  0
   -0.4943    2.9773    0.1309 O   0  0  0  0  0  0  0  0  0  0  0  0
    1.5405   -0.0886   -0.0579 C   0  0  0  0  0  0  0  0  0  0  0  0
    1.3608   -1.5334    0.3983 C   0  0  0  0  0  0  0  0  0  0  0  0
    0.3960   -1.8114    1.1505 O   0  5  0  0  0  0  0  0  0  0  0  0
    2.1460   -2.3765   -0.0922 O   0  0  0  0  0  0  0  0  0  0  0  0
   -0.5308   -0.9688   -1.2065 H   0  0  0  0  0  0  0  0  0  0  0  0
   -0.3785    0.5053    0.7751 H   0  0  0  0  0  0  0  0  0  0  0  0
    2.1932    0.3829    0.6810 H   0  0  0  0  0  0  0  0  0  0  0  0
    2.0485   -0.0654   -1.0269 H   0  0  0  0  0  0  0  0  0  0  0  0
    1.6938    2.7627   -0.1641 N   0  0  0  0  0  0  0  0  0  0  0  0
    1.9891    4.2008   -0.1466 C   0  0  2  0  0  0  0  0  0  0  0  0
    3.0468    4.5922   -1.1978 C   0  0  0  0  0  0  0  0  0  0  0  0
    3.9741    3.8366   -1.4674 O   0  0  0  0  0  0  0  0  0  0  0  0
    2.4688    4.5667    1.2594 C   0  0  0  0  0  0  0  0  0  0  0  0
    2.4514    2.1330   -0.4241 H   0  0  0  0  0  0  0  0  0  0  0  0
    1.0839    4.7735   -0.3722 H   0  0  0  0  0  0  0  0  0  0  0  0
    3.3743    4.0059    1.5128 H   0  0  0  0  0  0  0  0  0  0  0  0
    2.6908    5.6361    1.3222 H   0  0  0  0  0  0  0  0  0  0  0  0
    1.6938    4.3288    1.9950 H   0  0  0  0  0  0  0  0  0  0  0  0
    2.9770    5.8257   -1.8207 N   0  0  0  0  0  0  0  0  0  0  0  0
    3.9045    6.2491   -2.8611 C   0  0  0  0  0  0  0  0  0  0  0  0
    2.1489    6.3861   -1.6417 H   0  0  0  0  0  0  0  0  0  0  0  0
    4.9335    6.2320   -2.4873 H   0  0  0  0  0  0  0  0  0  0  0  0
    3.8330    5.5871   -3.7303 H   0  0  0  0  0  0  0  0  0  0  0  0
    3.6712    7.2691   -3.1808 H   0  0  0  0  0  0  0  0  0  0  0  0
  1  2  2  0  0  0  0
  1  3  1  0  0  0  0
  1  7  1  0  0  0  0
  3  4  1  0  0  0  0
  3  5  1  0  0  0  0
  3  6  1  0  0  0  0
  7  8  1  0  0  0  0
  7 12  1  0  0  0  0
  8  9  1  0  0  0  0
  8 11  1  0  0  0  0
  8 13  1  0  0  0  0
  9 10  2  0  0  0  0
  9 17  1  0  0  0  0
 11 14  1  0  0  0  0
 11 15  1  0  0  0  0
 11 16  1  0  0  0  0
 17 18  1  0  0  0  0
 17 25  1  0  0  0  0
 18 19  1  0  0  0  0
 18 21  1  0  0  0  0
 18 26  1  0  0  0  0
 19 20  2  0  0  0  0
 19 29  1  0  0  0  0
 21 22  1  0  0  0  0
 21 27  1  0  0  0  0
 21 28  1  0  0  0  0
 22 23  1  0  0  0  0
 22 24  2  0  0  0  0
 29 30  1  0  0  0  0
 29 34  1  0  0  0  0
 30 31  1  0  0  0  0
 30 33  1  0  0  0  0
 30 35  1  0  0  0  0
 31 32  2  0  0  0  0
 31 39  1  0  0  0  0
 33 36  1  0  0  0  0
 33 37  1  0  0  0  0
 33 38  1  0  0  0  0
 39 40  1  0  0  0  0
 39 41  1  0  0  0  0
 40 42  1  0  0  0  0
 40 43  1  0  0  0  0
 40 44  1  0  0  0  0
M  CHG  1  23  -1
M  END
$$$$

  -OEChem-05262215553D

 44 43  0     1  0  0  0  0  0999 V2000
   -4.6819   -0.1711   -3.8938 C   0  0  0  0  0  0  0  0  0  0  0  0
   -4.9020   -1.3675   -3.7853 O   0  0  0  0  0  0  0  0  0  0  0  0
   -5.7745    0.7562   -4.3944 C   0  0  0  0  0  0  0  0  0  0  0  0
   -5.4760    1.2040   -5.3454 H   0  0  0  0  0  0  0  0  0  0  0  0
   -6.7043    0.1995   -4.5416 H   0  0  0  0  0  0  0  0  0  0  0  0
   -5.9517    1.5510   -3.6655 H   0  0  0  0  0  0  0  0  0  0  0  0
   -3.4485    0.3482   -3.5673 N   0  0  0  0  0  0  0  0  0  0  0  0
   -2.3774   -0.3939   -2.8894 C   0  0  2  0  0  0  0  0  0  0  0  0
   -1.4993    0.5572   -2.0451 C   0  0  0  0  0  0  0  0  0  0  0  0
   -1.6533    1.7665   -2.1729 O   0  0  0  0  0  0  0  0  0  0  0  0
   -1.5326   -1.1150   -3.9455 C   0  0  0  0  0  0  0  0  0  0  0  0
   -3.3607    1.3644   -3.5436 H   0  0  0  0  0  0  0  0  0  0  0  0
   -2.8131   -1.1322   -2.2073 H   0  0  0  0  0  0  0  0  0  0  0  0
   -1.0726   -0.3914   -4.6258 H   0  0  0  0  0  0  0  0  0  0  0  0
   -0.7390   -1.7000   -3.4704 H   0  0  0  0  0  0  0  0  0  0  0  0
   -2.1571   -1.7971   -4.5307 H   0  0  0  0  0  0  0  0  0  0  0  0
   -0.5279    0.0227   -1.2189 N   0  0  0  0  0  0  0  0  0  0  0  0
    0.1916    0.6625   -0.1013 C   0  0  2  0  0  0  0  0  0  0  0  0
    0.4183    2.1963   -0.1841 C   0  0  0  0  0  0  0  0  0  0  0  0
   -0.4083    2.9666    0.2962 O   0  0  0  0  0  0  0  0  0  0  0  0
    1.5362   -0.0965   -0.0172 C   0  0  0  0  0  0  0  0  0  0  0  0
    1.3695   -1.5359    0.4586 C   0  0  0  0  0  0  0  0  0  0  0  0
    0.4114   -1.8113    1.2202 O   0  5  0  0  0  0  0  0  0  0  0  0
    2.1566   -2.3798   -0.0277 O   0  0  0  0  0  0  0  0  0  0  0  0
   -0.5337   -0.9951   -1.1691 H   0  0  0  0  0  0  0  0  0  0  0  0
   -0.3784    0.5047    0.8211 H   0  0  0  0  0  0  0  0  0  0  0  0
    2.1896    0.3991    0.7058 H   0  0  0  0  0  0  0  0  0  0  0  0
    2.0362   -0.0878   -0.9907 H   0  0  0  0  0  0  0  0  0  0  0  0
    1.6621    2.7204   -0.4965 N   0  0  0  0  0  0  0  0  0  0  0  0
    1.9559    4.1543   -0.6011 C   0  0  2  0  0  0  0  0  0  0  0  0
    2.7370    4.4994   -1.8849 C   0  0  0  0  0  0  0  0  0  0  0  0
    3.5968    3.7409   -2.3202 O   0  0  0  0  0  0  0  0  0  0  0  0
    2.7523    4.5646    0.6389 C   0  0  0  0  0  0  0  0  0  0  0  0
    2.3311    2.0717   -0.9079 H   0  0  0  0  0  0  0  0  0  0  0  0
    1.0231    4.7266   -0.6274 H   0  0  0  0  0  0  0  0  0  0  0  0
    3.6939    4.0083    0.6902 H   0  0  0  0  0  0  0  0  0  0  0  0
    2.9787    5.6346    0.6111 H   0  0  0  0  0  0  0  0  0  0  0  0
    2.1728    4.3550    1.5438 H   0  0  0  0  0  0  0  0  0  0  0  0
    2.5031    5.6991   -2.5333 N   0  0  0  0  0  0  0  0  0  0  0  0
    3.1669    6.0797   -3.7728 C   0  0  0  0  0  0  0  0  0  0  0  0
    1.7223    6.2574   -2.2009 H   0  0  0  0  0  0  0  0  0  0  0  0
    4.2531    6.0975   -3.6353 H   0  0  0  0  0  0  0  0  0  0  0  0
    2.9230    5.3711   -4.5710 H   0  0  0  0  0  0  0  0  0  0  0  0
    2.8427    7.0776   -4.0825 H   0  0  0  0  0  0  0  0  0  0  0  0
  1  2  2  0  0  0  0
  1  3  1  0  0  0  0
  1  7  1  0  0  0  0
  3  4  1  0  0  0  0
  3  5  1  0  0  0  0
  3  6  1  0  0  0  0
  7  8  1  0  0  0  0
  7 12  1  0  0  0  0
  8  9  1  0  0  0  0
  8 11  1  0  0  0  0
  8 13  1  0  0  0  0
  9 10  2  0  0  0  0
  9 17  1  0  0  0  0
 11 14  1  0  0  0  0
 11 15  1  0  0  0  0
 11 16  1  0  0  0  0
 17 18  1  0  0  0  0
 17 25  1  0  0  0  0
 18 19  1  0  0  0  0
 18 21  1  0  0  0  0
 18 26  1  0  0  0  0
 19 20  2  0  0  0  0
 19 29  1  0  0  0  0
 21 22  1  0  0  0  0
 21 27  1  0  0  0  0
 21 28  1  0  0  0  0
 22 23  1  0  0  0  0
 22 24  2  0  0  0  0
 29 30  1  0  0  0  0
 29 34  1  0  0  0  0
 30 31  1  0  0  0  0
 30 33  1  0  0  0  0
 30 35  1  0  0  0  0
 31 32  2  0  0  0  0
 31 39  1  0  0  0  0
 33 36  1  0  0  0  0
 33 37  1  0  0  0  0
 33 38  1  0  0  0  0
 39 40  1  0  0  0  0
 39 41  1  0  0  0  0
 40 42  1  0  0  0  0
 40 43  1  0  0  0  0
 40 44  1  0  0  0  0
M  CHG  1  23  -1
M  END
$$$$

  -OEChem-05262215553D

 44 43  0     1  0  0  0  0  0999 V2000
   -4.6521   -0.1851   -3.9079 C   0  0  0  0  0  0  0  0  0  0  0  0
   -4.8456   -1.3889   -3.8367 O   0  0  0  0  0  0  0  0  0  0  0  0
   -5.7656    0.7334   -4.3766 C   0  0  0  0  0  0  0  0  0  0  0  0
   -5.4674    1.2386   -5.2983 H   0  0  0  0  0  0  0  0  0  0  0  0
   -6.6758    0.1578   -4.5669 H   0  0  0  0  0  0  0  0  0  0  0  0
   -5.9764    1.4835   -3.6103 H   0  0  0  0  0  0  0  0  0  0  0  0
   -3.4309    0.3521   -3.5651 N   0  0  0  0  0  0  0  0  0  0  0  0
   -2.3463   -0.3868   -2.9058 C   0  0  2  0  0  0  0  0  0  0  0  0
   -1.4931    0.5552   -2.0262 C   0  0  0  0  0  0  0  0  0  0  0  0
   -1.6760    1.7652   -2.1074 O   0  0  0  0  0  0  0  0  0  0  0  0
   -1.4824   -1.0575   -3.9791 C   0  0  0  0  0  0  0  0  0  0  0  0
   -3.3688    1.3687   -3.5070 H   0  0  0  0  0  0  0  0  0  0  0  0
   -2.7689   -1.1555   -2.2492 H   0  0  0  0  0  0  0  0  0  0  0  0
   -1.0383   -0.3045   -4.6376 H   0  0  0  0  0  0  0  0  0  0  0  0
   -0.6763   -1.6368   -3.5181 H   0  0  0  0  0  0  0  0  0  0  0  0
   -2.0894   -1.7376   -4.5846 H   0  0  0  0  0  0  0  0  0  0  0  0
   -0.5309    0.0150   -1.1926 N   0  0  0  0  0  0  0  0  0  0  0  0
    0.1853    0.6604   -0.0769 C   0  0  2  0  0  0  0  0  0  0  0  0
    0.4181    2.1895   -0.1825 C   0  0  0  0  0  0  0  0  0  0  0  0
   -0.2958    2.9697    0.4411 O   0  0  0  0  0  0  0  0  0  0  0  0
    1.5349   -0.0857    0.0138 C   0  0  0  0  0  0  0  0  0  0  0  0
    1.3808   -1.5246    0.4948 C   0  0  0  0  0  0  0  0  0  0  0  0
    0.4239   -1.8070    1.2552 O   0  5  0  0  0  0  0  0  0  0  0  0
    2.1716   -2.3635    0.0053 O   0  0  0  0  0  0  0  0  0  0  0  0
   -0.5212   -1.0034   -1.1557 H   0  0  0  0  0  0  0  0  0  0  0  0
   -0.3857    0.5098    0.8463 H   0  0  0  0  0  0  0  0  0  0  0  0
    2.1834    0.4260    0.7299 H   0  0  0  0  0  0  0  0  0  0  0  0
    2.0349   -0.0808   -0.9593 H   0  0  0  0  0  0  0  0  0  0  0  0
    1.5585    2.6921   -0.7859 N   0  0  0  0  0  0  0  0  0  0  0  0
    1.8172    4.1195   -1.0029 C   0  0  2  0  0  0  0  0  0  0  0  0
    2.2634    4.4136   -2.4490 C   0  0  0  0  0  0  0  0  0  0  0  0
    3.0172    3.6480   -3.0406 O   0  0  0  0  0  0  0  0  0  0  0  0
    2.8905    4.5620   -0.0067 C   0  0  0  0  0  0  0  0  0  0  0  0
    2.1009    2.0281   -1.3355 H   0  0  0  0  0  0  0  0  0  0  0  0
    0.9058    4.6982   -0.8218 H   0  0  0  0  0  0  0  0  0  0  0  0
    3.8142    3.9953   -0.1625 H   0  0  0  0  0  0  0  0  0  0  0  0
    3.1086    5.6273   -0.1272 H   0  0  0  0  0  0  0  0  0  0  0  0
    2.5453    4.3915    1.0180 H   0  0  0  0  0  0  0  0  0  0  0  0
    1.8493    5.5748   -3.0770 N   0  0  0  0  0  0  0  0  0  0  0  0
    2.1724    5.8899   -4.4619 C   0  0  0  0  0  0  0  0  0  0  0  0
    1.1405    6.1250   -2.6008 H   0  0  0  0  0  0  0  0  0  0  0  0
    3.2570    5.8900   -4.6126 H   0  0  0  0  0  0  0  0  0  0  0  0
    1.7221    5.1543   -5.1364 H   0  0  0  0  0  0  0  0  0  0  0  0
    1.7895    6.8813   -4.7217 H   0  0  0  0  0  0  0  0  0  0  0  0
  1  2  2  0  0  0  0
  1  3  1  0  0  0  0
  1  7  1  0  0  0  0
  3  4  1  0  0  0  0
  3  5  1  0  0  0  0
  3  6  1  0  0  0  0
  7  8  1  0  0  0  0
  7 12  1  0  0  0  0
  8  9  1  0  0  0  0
  8 11  1  0  0  0  0
  8 13  1  0  0  0  0
  9 10  2  0  0  0  0
  9 17  1  0  0  0  0
 11 14  1  0  0  0  0
 11 15  1  0  0  0  0
 11 16  1  0  0  0  0
 17 18  1  0  0  0  0
 17 25  1  0  0  0  0
 18 19  1  0  0  0  0
 18 21  1  0  0  0  0
 18 26  1  0  0  0  0
 19 20  2  0  0  0  0
 19 29  1  0  0  0  0
 21 22  1  0  0  0  0
 21 27  1  0  0  0  0
 21 28  1  0  0  0  0
 22 23  1  0  0  0  0
 22 24  2  0  0  0  0
 29 30  1  0  0  0  0
 29 34  1  0  0  0  0
 30 31  1  0  0  0  0
 30 33  1  0  0  0  0
 30 35  1  0  0  0  0
 31 32  2  0  0  0  0
 31 39  1  0  0  0  0
 33 36  1  0  0  0  0
 33 37  1  0  0  0  0
 33 38  1  0  0  0  0
 39 40  1  0  0  0  0
 39 41  1  0  0  0  0
 40 42  1  0  0  0  0
 40 43  1  0  0  0  0
 40 44  1  0  0  0  0
M  CHG  1  23  -1
M  END
$$$$

  -OEChem-05262215553D

 44 43  0     1  0  0  0  0  0999 V2000
   -4.2734    0.1741   -4.3669 C   0  0  0  0  0  0  0  0  0  0  0  0
   -4.6529   -0.9708   -4.1769 O   0  0  0  0  0  0  0  0  0  0  0  0
   -5.1410    1.1407   -5.1521 C   0  0  0  0  0  0  0  0  0  0  0  0
   -4.6018    1.4917   -6.0356 H   0  0  0  0  0  0  0  0  0  0  0  0
   -6.0620    0.6467   -5.4737 H   0  0  0  0  0  0  0  0  0  0  0  0
   -5.4008    1.9991   -4.5274 H   0  0  0  0  0  0  0  0  0  0  0  0
   -3.0619    0.6027   -3.8704 N   0  0  0  0  0  0  0  0  0  0  0  0
   -2.2197   -0.1591   -2.9382 C   0  0  2  0  0  0  0  0  0  0  0  0
   -1.3739    0.7899   -2.0591 C   0  0  0  0  0  0  0  0  0  0  0  0
   -1.4022    1.9951   -2.2874 O   0  0  0  0  0  0  0  0  0  0  0  0
   -1.3174   -1.1002   -3.7447 C   0  0  0  0  0  0  0  0  0  0  0  0
   -2.8621    1.6008   -3.9332 H   0  0  0  0  0  0  0  0  0  0  0  0
   -2.8526   -0.7517   -2.2682 H   0  0  0  0  0  0  0  0  0  0  0  0
   -0.6652   -0.5266   -4.4107 H   0  0  0  0  0  0  0  0  0  0  0  0
   -0.6926   -1.7022   -3.0775 H   0  0  0  0  0  0  0  0  0  0  0  0
   -1.9235   -1.7808   -4.3509 H   0  0  0  0  0  0  0  0  0  0  0  0
   -0.5700    0.2669   -1.0632 N   0  0  0  0  0  0  0  0  0  0  0  0
    0.1188    0.9831    0.0265 C   0  0  2  0  0  0  0  0  0  0  0  0
    0.5507    2.4402   -0.2681 C   0  0  0  0  0  0  0  0  0  0  0  0
   -0.0065    3.3876    0.2732 O   0  0  0  0  0  0  0  0  0  0  0  0
    1.3683    0.1315    0.3329 C   0  0  0  0  0  0  0  0  0  0  0  0
    1.0216   -1.2092    0.9696 C   0  0  0  0  0  0  0  0  0  0  0  0
   -0.0179   -1.2960    1.6653 O   0  5  0  0  0  0  0  0  0  0  0  0
    1.7449   -2.1785    0.6450 O   0  0  0  0  0  0  0  0  0  0  0  0
   -0.6865   -0.7324   -0.8960 H   0  0  0  0  0  0  0  0  0  0  0  0
   -0.5361    1.0262    0.9045 H   0  0  0  0  0  0  0  0  0  0  0  0
    2.0076    0.6704    1.0376 H   0  0  0  0  0  0  0  0  0  0  0  0
    1.9437   -0.0406   -0.5815 H   0  0  0  0  0  0  0  0  0  0  0  0
    1.6417    2.6939   -1.0804 N   0  0  0  0  0  0  0  0  0  0  0  0
    2.1738    4.0338   -1.3708 C   0  0  2  0  0  0  0  0  0  0  0  0
    1.4633    4.7503   -2.5471 C   0  0  0  0  0  0  0  0  0  0  0  0
    2.0200    5.6683   -3.1430 O   0  0  0  0  0  0  0  0  0  0  0  0
    3.6763    3.8636   -1.6250 C   0  0  0  0  0  0  0  0  0  0  0  0
    2.0657    1.8860   -1.5258 H   0  0  0  0  0  0  0  0  0  0  0  0
    2.0493    4.6711   -0.4892 H   0  0  0  0  0  0  0  0  0  0  0  0
    3.8473    3.2707   -2.5289 H   0  0  0  0  0  0  0  0  0  0  0  0
    4.1548    4.8395   -1.7534 H   0  0  0  0  0  0  0  0  0  0  0  0
    4.1506    3.3585   -0.7779 H   0  0  0  0  0  0  0  0  0  0  0  0
    0.2089    4.3537   -2.9718 N   0  0  0  0  0  0  0  0  0  0  0  0
   -0.5417    5.0172   -4.0255 C   0  0  0  0  0  0  0  0  0  0  0  0
   -0.2574    3.6206   -2.4267 H   0  0  0  0  0  0  0  0  0  0  0  0
   -0.7685    6.0494   -3.7406 H   0  0  0  0  0  0  0  0  0  0  0  0
    0.0296    5.0225   -4.9593 H   0  0  0  0  0  0  0  0  0  0  0  0
   -1.4842    4.4896   -4.1996 H   0  0  0  0  0  0  0  0  0  0  0  0
  1  2  2  0  0  0  0
  1  3  1  0  0  0  0
  1  7  1  0  0  0  0
  3  4  1  0  0  0  0
  3  5  1  0  0  0  0
  3  6  1  0  0  0  0
  7  8  1  0  0  0  0
  7 12  1  0  0  0  0
  8  9  1  0  0  0  0
  8 11  1  0  0  0  0
  8 13  1  0  0  0  0
  9 10  2  0  0  0  0
  9 17  1  0  0  0  0
 11 14  1  0  0  0  0
 11 15  1  0  0  0  0
 11 16  1  0  0  0  0
 17 18  1  0  0  0  0
 17 25  1  0  0  0  0
 18 19  1  0  0  0  0
 18 21  1  0  0  0  0
 18 26  1  0  0  0  0
 19 20  2  0  0  0  0
 19 29  1  0  0  0  0
 21 22  1  0  0  0  0
 21 27  1  0  0  0  0
 21 28  1  0  0  0  0
 22 23  1  0  0  0  0
 22 24  2  0  0  0  0
 29 30  1  0  0  0  0
 29 34  1  0  0  0  0
 30 31  1  0  0  0  0
 30 33  1  0  0  0  0
 30 35  1  0  0  0  0
 31 32  2  0  0  0  0
 31 39  1  0  0  0  0
 33 36  1  0  0  0  0
 33 37  1  0  0  0  0
 33 38  1  0  0  0  0
 39 40  1  0  0  0  0
 39 41  1  0  0  0  0
 40 42  1  0  0  0  0
 40 43  1  0  0  0  0
 40 44  1  0  0  0  0
M  CHG  1  23  -1
M  END
$$$$

  -OEChem-05262215553D

 44 43  0     1  0  0  0  0  0999 V2000
   -4.3240   -0.0599   -4.3972 C   0  0  0  0  0  0  0  0  0  0  0  0
   -4.6170   -1.2334   -4.2300 O   0  0  0  0  0  0  0  0  0  0  0  0
   -5.2702    0.8595   -5.1477 C   0  0  0  0  0  0  0  0  0  0  0  0
   -4.7488    1.3270   -5.9864 H   0  0  0  0  0  0  0  0  0  0  0  0
   -6.1220    0.2928   -5.5341 H   0  0  0  0  0  0  0  0  0  0  0  0
   -5.6399    1.6396   -4.4777 H   0  0  0  0  0  0  0  0  0  0  0  0
   -3.1409    0.4444   -3.9028 N   0  0  0  0  0  0  0  0  0  0  0  0
   -2.2367   -0.2760   -2.9959 C   0  0  2  0  0  0  0  0  0  0  0  0
   -1.4479    0.7091   -2.1037 C   0  0  0  0  0  0  0  0  0  0  0  0
   -1.5741    1.9150   -2.2908 O   0  0  0  0  0  0  0  0  0  0  0  0
   -1.2816   -1.1372   -3.8304 C   0  0  0  0  0  0  0  0  0  0  0  0
   -3.0147    1.4553   -3.9459 H   0  0  0  0  0  0  0  0  0  0  0  0
   -2.8201   -0.9239   -2.3322 H   0  0  0  0  0  0  0  0  0  0  0  0
   -0.6726   -0.5075   -4.4865 H   0  0  0  0  0  0  0  0  0  0  0  0
   -0.6147   -1.7132   -3.1810 H   0  0  0  0  0  0  0  0  0  0  0  0
   -1.8470   -1.8412   -4.4488 H   0  0  0  0  0  0  0  0  0  0  0  0
   -0.6064    0.2236   -1.1208 N   0  0  0  0  0  0  0  0  0  0  0  0
    0.0702    0.9685   -0.0418 C   0  0  2  0  0  0  0  0  0  0  0  0
    0.4425    2.4431   -0.3321 C   0  0  0  0  0  0  0  0  0  0  0  0
    0.0575    3.3479    0.3981 O   0  0  0  0  0  0  0  0  0  0  0  0
    1.3669    0.1787    0.2256 C   0  0  0  0  0  0  0  0  0  0  0  0
    1.1041   -1.1828    0.8587 C   0  0  0  0  0  0  0  0  0  0  0  0
    0.0882   -1.3280    1.5795 O   0  5  0  0  0  0  0  0  0  0  0  0
    1.8590   -2.1143    0.4960 O   0  0  0  0  0  0  0  0  0  0  0  0
   -0.6502   -0.7844   -0.9698 H   0  0  0  0  0  0  0  0  0  0  0  0
   -0.5654    0.9756    0.8512 H   0  0  0  0  0  0  0  0  0  0  0  0
    1.9950    0.7437    0.9199 H   0  0  0  0  0  0  0  0  0  0  0  0
    1.9281    0.0465   -0.7039 H   0  0  0  0  0  0  0  0  0  0  0  0
    1.2947    2.7505   -1.3786 N   0  0  0  0  0  0  0  0  0  0  0  0
    1.7981    4.0998   -1.6808 C   0  0  2  0  0  0  0  0  0  0  0  0
    0.8947    4.9116   -2.6417 C   0  0  0  0  0  0  0  0  0  0  0  0
    1.3139    5.9410   -3.1630 O   0  0  0  0  0  0  0  0  0  0  0  0
    3.2128    3.9262   -2.2451 C   0  0  0  0  0  0  0  0  0  0  0  0
    1.5672    1.9754   -1.9745 H   0  0  0  0  0  0  0  0  0  0  0  0
    1.8718    4.6768   -0.7531 H   0  0  0  0  0  0  0  0  0  0  0  0
    3.1831    3.3876   -3.1974 H   0  0  0  0  0  0  0  0  0  0  0  0
    3.6799    4.9021   -2.4115 H   0  0  0  0  0  0  0  0  0  0  0  0
    3.8354    3.3643   -1.5419 H   0  0  0  0  0  0  0  0  0  0  0  0
   -0.3729    4.4715   -2.9735 N   0  0  0  0  0  0  0  0  0  0  0  0
   -1.2952    5.2093   -3.8216 C   0  0  0  0  0  0  0  0  0  0  0  0
   -0.7122    3.6315   -2.4928 H   0  0  0  0  0  0  0  0  0  0  0  0
   -1.5254    6.1833   -3.3780 H   0  0  0  0  0  0  0  0  0  0  0  0
   -0.8625    5.3635   -4.8153 H   0  0  0  0  0  0  0  0  0  0  0  0
   -2.2282    4.6489   -3.9331 H   0  0  0  0  0  0  0  0  0  0  0  0
  1  2  2  0  0  0  0
  1  3  1  0  0  0  0
  1  7  1  0  0  0  0
  3  4  1  0  0  0  0
  3  5  1  0  0  0  0
  3  6  1  0  0  0  0
  7  8  1  0  0  0  0
  7 12  1  0  0  0  0
  8  9  1  0  0  0  0
  8 11  1  0  0  0  0
  8 13  1  0  0  0  0
  9 10  2  0  0  0  0
  9 17  1  0  0  0  0
 11 14  1  0  0  0  0
 11 15  1  0  0  0  0
 11 16  1  0  0  0  0
 17 18  1  0  0  0  0
 17 25  1  0  0  0  0
 18 19  1  0  0  0  0
 18 21  1  0  0  0  0
 18 26  1  0  0  0  0
 19 20  2  0  0  0  0
 19 29  1  0  0  0  0
 21 22  1  0  0  0  0
 21 27  1  0  0  0  0
 21 28  1  0  0  0  0
 22 23  1  0  0  0  0
 22 24  2  0  0  0  0
 29 30  1  0  0  0  0
 29 34  1  0  0  0  0
 30 31  1  0  0  0  0
 30 33  1  0  0  0  0
 30 35  1  0  0  0  0
 31 32  2  0  0  0  0
 31 39  1  0  0  0  0
 33 36  1  0  0  0  0
 33 37  1  0  0  0  0
 33 38  1  0  0  0  0
 39 40  1  0  0  0  0
 39 41  1  0  0  0  0
 40 42  1  0  0  0  0
 40 43  1  0  0  0  0
 40 44  1  0  0  0  0
M  CHG  1  23  -1
M  END
$$$$

  -OEChem-05262215553D

 44 43  0     1  0  0  0  0  0999 V2000
   -4.2585   -0.2989   -4.5422 C   0  0  0  0  0  0  0  0  0  0  0  0
   -4.4558   -1.4975   -4.4204 O   0  0  0  0  0  0  0  0  0  0  0  0
   -5.2355    0.5549   -5.3296 C   0  0  0  0  0  0  0  0  0  0  0  0
   -4.7300    1.0015   -6.1893 H   0  0  0  0  0  0  0  0  0  0  0  0
   -6.0685   -0.0562   -5.6883 H   0  0  0  0  0  0  0  0  0  0  0  0
   -5.6311    1.3513   -4.6943 H   0  0  0  0  0  0  0  0  0  0  0  0
   -3.1539    0.2913   -3.9676 N   0  0  0  0  0  0  0  0  0  0  0  0
   -2.2268   -0.3797   -3.0458 C   0  0  2  0  0  0  0  0  0  0  0  0
   -1.5462    0.6400   -2.1051 C   0  0  0  0  0  0  0  0  0  0  0  0
   -1.7786    1.8356   -2.2501 O   0  0  0  0  0  0  0  0  0  0  0  0
   -1.1784   -1.1406   -3.8663 C   0  0  0  0  0  0  0  0  0  0  0  0
   -3.1140    1.3100   -3.9792 H   0  0  0  0  0  0  0  0  0  0  0  0
   -2.7785   -1.0886   -2.4183 H   0  0  0  0  0  0  0  0  0  0  0  0
   -0.6024   -0.4475   -4.4876 H   0  0  0  0  0  0  0  0  0  0  0  0
   -0.4875   -1.6772   -3.2083 H   0  0  0  0  0  0  0  0  0  0  0  0
   -1.6638   -1.8729   -4.5191 H   0  0  0  0  0  0  0  0  0  0  0  0
   -0.6769    0.2002   -1.1258 N   0  0  0  0  0  0  0  0  0  0  0  0
    0.0025    0.9748   -0.0683 C   0  0  2  0  0  0  0  0  0  0  0  0
    0.3477    2.4550   -0.3677 C   0  0  0  0  0  0  0  0  0  0  0  0
    0.2100    3.3186    0.4898 O   0  0  0  0  0  0  0  0  0  0  0  0
    1.3224    0.2159    0.1700 C   0  0  0  0  0  0  0  0  0  0  0  0
    1.1058   -1.1469    0.8180 C   0  0  0  0  0  0  0  0  0  0  0  0
    0.1122   -1.3086    1.5660 O   0  5  0  0  0  0  0  0  0  0  0  0
    1.8570   -2.0688    0.4242 O   0  0  0  0  0  0  0  0  0  0  0  0
   -0.6409   -0.8109   -0.9945 H   0  0  0  0  0  0  0  0  0  0  0  0
   -0.6133    0.9730    0.8385 H   0  0  0  0  0  0  0  0  0  0  0  0
    1.9546    0.7985    0.8456 H   0  0  0  0  0  0  0  0  0  0  0  0
    1.8645    0.0936   -0.7726 H   0  0  0  0  0  0  0  0  0  0  0  0
    0.9135    2.8115   -1.5795 N   0  0  0  0  0  0  0  0  0  0  0  0
    1.3593    4.1692   -1.9295 C   0  0  2  0  0  0  0  0  0  0  0  0
    0.2547    5.0660   -2.5388 C   0  0  0  0  0  0  0  0  0  0  0  0
    0.5361    6.1778   -2.9761 O   0  0  0  0  0  0  0  0  0  0  0  0
    2.5390    4.0100   -2.8940 C   0  0  0  0  0  0  0  0  0  0  0  0
    0.9127    2.0922   -2.2951 H   0  0  0  0  0  0  0  0  0  0  0  0
    1.7206    4.6759   -1.0283 H   0  0  0  0  0  0  0  0  0  0  0  0
    2.2111    3.5418   -3.8273 H   0  0  0  0  0  0  0  0  0  0  0  0
    2.9740    4.9865   -3.1286 H   0  0  0  0  0  0  0  0  0  0  0  0
    3.3173    3.3869   -2.4425 H   0  0  0  0  0  0  0  0  0  0  0  0
   -1.0431    4.6106   -2.6750 N   0  0  0  0  0  0  0  0  0  0  0  0
   -2.1374    5.4146   -3.1953 C   0  0  0  0  0  0  0  0  0  0  0  0
   -1.2497    3.6829   -2.2916 H   0  0  0  0  0  0  0  0  0  0  0  0
   -2.2824    6.3067   -2.5778 H   0  0  0  0  0  0  0  0  0  0  0  0
   -1.9294    5.7243   -4.2244 H   0  0  0  0  0  0  0  0  0  0  0  0
   -3.0645    4.8337   -3.1881 H   0  0  0  0  0  0  0  0  0  0  0  0
  1  2  2  0  0  0  0
  1  3  1  0  0  0  0
  1  7  1  0  0  0  0
  3  4  1  0  0  0  0
  3  5  1  0  0  0  0
  3  6  1  0  0  0  0
  7  8  1  0  0  0  0
  7 12  1  0  0  0  0
  8  9  1  0  0  0  0
  8 11  1  0  0  0  0
  8 13  1  0  0  0  0
  9 10  2  0  0  0  0
  9 17  1  0  0  0  0
 11 14  1  0  0  0  0
 11 15  1  0  0  0  0
 11 16  1  0  0  0  0
 17 18  1  0  0  0  0
 17 25  1  0  0  0  0
 18 19  1  0  0  0  0
 18 21  1  0  0  0  0
 18 26  1  0  0  0  0
 19 20  2  0  0  0  0
 19 29  1  0  0  0  0
 21 22  1  0  0  0  0
 21 27  1  0  0  0  0
 21 28  1  0  0  0  0
 22 23  1  0  0  0  0
 22 24  2  0  0  0  0
 29 30  1  0  0  0  0
 29 34  1  0  0  0  0
 30 31  1  0  0  0  0
 30 33  1  0  0  0  0
 30 35  1  0  0  0  0
 31 32  2  0  0  0  0
 31 39  1  0  0  0  0
 33 36  1  0  0  0  0
 33 37  1  0  0  0  0
 33 38  1  0  0  0  0
 39 40  1  0  0  0  0
 39 41  1  0  0  0  0
 40 42  1  0  0  0  0
 40 43  1  0  0  0  0
 40 44  1  0  0  0  0
M  CHG  1  23  -1
M  END
$$$$

  -OEChem-05262215553D

 44 43  0     1  0  0  0  0  0999 V2000
   -3.8364    0.6306   -4.5437 C   0  0  0  0  0  0  0  0  0  0  0  0
   -4.5586   -0.3539   -4.4805 O   0  0  0  0  0  0  0  0  0  0  0  0
   -4.1143    1.7132   -5.5702 C   0  0  0  0  0  0  0  0  0  0  0  0
   -3.2197    1.8935   -6.1718 H   0  0  0  0  0  0  0  0  0  0  0  0
   -4.9305    1.4102   -6.2313 H   0  0  0  0  0  0  0  0  0  0  0  0
   -4.3917    2.6411   -5.0642 H   0  0  0  0  0  0  0  0  0  0  0  0
   -2.7708    0.7773   -3.6849 N   0  0  0  0  0  0  0  0  0  0  0  0
   -2.5154   -0.0845   -2.5186 C   0  0  2  0  0  0  0  0  0  0  0  0
   -1.8288    0.7194   -1.3918 C   0  0  0  0  0  0  0  0  0  0  0  0
   -2.1649    1.8815   -1.2074 O   0  0  0  0  0  0  0  0  0  0  0  0
   -1.6809   -1.2875   -2.9803 C   0  0  0  0  0  0  0  0  0  0  0  0
   -2.3131    1.6949   -3.7081 H   0  0  0  0  0  0  0  0  0  0  0  0
   -3.4647   -0.4497   -2.1121 H   0  0  0  0  0  0  0  0  0  0  0  0
   -0.7064   -0.9599   -3.3563 H   0  0  0  0  0  0  0  0  0  0  0  0
   -1.5233   -1.9887   -2.1547 H   0  0  0  0  0  0  0  0  0  0  0  0
   -2.2000   -1.8217   -3.7823 H   0  0  0  0  0  0  0  0  0  0  0  0
   -0.7741    0.2062   -0.6580 N   0  0  0  0  0  0  0  0  0  0  0  0
    0.2918    0.9731    0.0234 C   0  0  2  0  0  0  0  0  0  0  0  0
    0.6872    2.3299   -0.6214 C   0  0  0  0  0  0  0  0  0  0  0  0
    1.0252    3.2879    0.0650 O   0  0  0  0  0  0  0  0  0  0  0  0
    1.5258    0.0536   -0.0338 C   0  0  0  0  0  0  0  0  0  0  0  0
    1.3891   -1.1887    0.8395 C   0  0  0  0  0  0  0  0  0  0  0  0
    0.6788   -1.1343    1.8711 O   0  5  0  0  0  0  0  0  0  0  0  0
    1.8789   -2.2411    0.3672 O   0  0  0  0  0  0  0  0  0  0  0  0
   -0.6215   -0.7986   -0.7243 H   0  0  0  0  0  0  0  0  0  0  0  0
    0.0010    1.1728    1.0610 H   0  0  0  0  0  0  0  0  0  0  0  0
    2.3985    0.6049    0.3274 H   0  0  0  0  0  0  0  0  0  0  0  0
    1.7243   -0.2435   -1.0682 H   0  0  0  0  0  0  0  0  0  0  0  0
    0.5765    2.4996   -1.9922 N   0  0  0  0  0  0  0  0  0  0  0  0
    0.4496    3.7971   -2.6611 C   0  0  2  0  0  0  0  0  0  0  0  0
   -0.9956    3.9922   -3.1710 C   0  0  0  0  0  0  0  0  0  0  0  0
   -1.4017    3.3776   -4.1570 O   0  0  0  0  0  0  0  0  0  0  0  0
    1.4721    3.8410   -3.8003 C   0  0  0  0  0  0  0  0  0  0  0  0
    0.1688    1.7040   -2.4722 H   0  0  0  0  0  0  0  0  0  0  0  0
    0.6765    4.6167   -1.9719 H   0  0  0  0  0  0  0  0  0  0  0  0
    1.2974    3.0257   -4.5095 H   0  0  0  0  0  0  0  0  0  0  0  0
    1.4012    4.7916   -4.3375 H   0  0  0  0  0  0  0  0  0  0  0  0
    2.4859    3.7422   -3.3998 H   0  0  0  0  0  0  0  0  0  0  0  0
   -1.8661    4.8026   -2.4680 N   0  0  0  0  0  0  0  0  0  0  0  0
   -3.2991    4.8095   -2.7305 C   0  0  0  0  0  0  0  0  0  0  0  0
   -1.5666    5.0172   -1.5192 H   0  0  0  0  0  0  0  0  0  0  0  0
   -3.4994    5.0886   -3.7700 H   0  0  0  0  0  0  0  0  0  0  0  0
   -3.7285    3.8201   -2.5402 H   0  0  0  0  0  0  0  0  0  0  0  0
   -3.7959    5.5342   -2.0787 H   0  0  0  0  0  0  0  0  0  0  0  0
  1  2  2  0  0  0  0
  1  3  1  0  0  0  0
  1  7  1  0  0  0  0
  3  4  1  0  0  0  0
  3  5  1  0  0  0  0
  3  6  1  0  0  0  0
  7  8  1  0  0  0  0
  7 12  1  0  0  0  0
  8  9  1  0  0  0  0
  8 11  1  0  0  0  0
  8 13  1  0  0  0  0
  9 10  2  0  0  0  0
  9 17  1  0  0  0  0
 11 14  1  0  0  0  0
 11 15  1  0  0  0  0
 11 16  1  0  0  0  0
 17 18  1  0  0  0  0
 17 25  1  0  0  0  0
 18 19  1  0  0  0  0
 18 21  1  0  0  0  0
 18 26  1  0  0  0  0
 19 20  2  0  0  0  0
 19 29  1  0  0  0  0
 21 22  1  0  0  0  0
 21 27  1  0  0  0  0
 21 28  1  0  0  0  0
 22 23  1  0  0  0  0
 22 24  2  0  0  0  0
 29 30  1  0  0  0  0
 29 34  1  0  0  0  0
 30 31  1  0  0  0  0
 30 33  1  0  0  0  0
 30 35  1  0  0  0  0
 31 32  2  0  0  0  0
 31 39  1  0  0  0  0
 33 36  1  0  0  0  0
 33 37  1  0  0  0  0
 33 38  1  0  0  0  0
 39 40  1  0  0  0  0
 39 41  1  0  0  0  0
 40 42  1  0  0  0  0
 40 43  1  0  0  0  0
 40 44  1  0  0  0  0
M  CHG  1  23  -1
M  END
$$$$

  -OEChem-05262215553D

 44 43  0     1  0  0  0  0  0999 V2000
   -4.5665   -0.4699   -4.0740 C   0  0  0  0  0  0  0  0  0  0  0  0
   -4.8015   -1.6685   -4.0414 O   0  0  0  0  0  0  0  0  0  0  0  0
   -5.5537    0.4785   -4.7294 C   0  0  0  0  0  0  0  0  0  0  0  0
   -5.0826    0.9748   -5.5814 H   0  0  0  0  0  0  0  0  0  0  0  0
   -6.4316   -0.0711   -5.0801 H   0  0  0  0  0  0  0  0  0  0  0  0
   -5.8756    1.2357   -4.0101 H   0  0  0  0  0  0  0  0  0  0  0  0
   -3.4143    0.0366   -3.5148 N   0  0  0  0  0  0  0  0  0  0  0  0
   -2.4984   -0.7293   -2.6563 C   0  0  2  0  0  0  0  0  0  0  0  0
   -1.8735    0.1898   -1.5816 C   0  0  0  0  0  0  0  0  0  0  0  0
   -2.4166    1.2581   -1.3267 O   0  0  0  0  0  0  0  0  0  0  0  0
   -1.4305   -1.3747   -3.5497 C   0  0  0  0  0  0  0  0  0  0  0  0
   -3.3586    1.0533   -3.4337 H   0  0  0  0  0  0  0  0  0  0  0  0
   -3.0471   -1.5168   -2.1283 H   0  0  0  0  0  0  0  0  0  0  0  0
   -0.8348   -0.6051   -4.0514 H   0  0  0  0  0  0  0  0  0  0  0  0
   -0.7603   -2.0081   -2.9602 H   0  0  0  0  0  0  0  0  0  0  0  0
   -1.9042   -2.0007   -4.3124 H   0  0  0  0  0  0  0  0  0  0  0  0
   -0.6977   -0.1538   -0.9430 N   0  0  0  0  0  0  0  0  0  0  0  0
    0.2045    0.6764   -0.1133 C   0  0  2  0  0  0  0  0  0  0  0  0
    0.3188    2.2022   -0.4041 C   0  0  0  0  0  0  0  0  0  0  0  0
    0.8988    2.9396    0.3877 O   0  0  0  0  0  0  0  0  0  0  0  0
    1.5914    0.0396   -0.3411 C   0  0  0  0  0  0  0  0  0  0  0  0
    1.7198   -1.3490    0.2768 C   0  0  0  0  0  0  0  0  0  0  0  0
    1.0432   -1.6264    1.2959 O   0  5  0  0  0  0  0  0  0  0  0  0
    2.3812   -2.1834   -0.3844 O   0  0  0  0  0  0  0  0  0  0  0  0
   -0.3770   -1.1083   -1.0979 H   0  0  0  0  0  0  0  0  0  0  0  0
   -0.0919    0.5864    0.9374 H   0  0  0  0  0  0  0  0  0  0  0  0
    2.3579    0.6658    0.1231 H   0  0  0  0  0  0  0  0  0  0  0  0
    1.8086   -0.0100   -1.4125 H   0  0  0  0  0  0  0  0  0  0  0  0
   -0.1415    2.7651   -1.5808 N   0  0  0  0  0  0  0  0  0  0  0  0
   -0.1713    4.2021   -1.8624 C   0  0  2  0  0  0  0  0  0  0  0  0
   -1.3469    4.5841   -2.7892 C   0  0  0  0  0  0  0  0  0  0  0  0
   -1.8431    3.7699   -3.5639 O   0  0  0  0  0  0  0  0  0  0  0  0
    1.1610    4.5978   -2.5046 C   0  0  0  0  0  0  0  0  0  0  0  0
   -0.8632    2.2090   -2.0427 H   0  0  0  0  0  0  0  0  0  0  0  0
   -0.2998    4.7531   -0.9252 H   0  0  0  0  0  0  0  0  0  0  0  0
    1.3068    4.0556   -3.4442 H   0  0  0  0  0  0  0  0  0  0  0  0
    1.1828    5.6714   -2.7119 H   0  0  0  0  0  0  0  0  0  0  0  0
    1.9910    4.3585   -1.8324 H   0  0  0  0  0  0  0  0  0  0  0  0
   -1.8364    5.8785   -2.7739 N   0  0  0  0  0  0  0  0  0  0  0  0
   -2.9626    6.3208   -3.5848 C   0  0  0  0  0  0  0  0  0  0  0  0
   -1.4426    6.5147   -2.0872 H   0  0  0  0  0  0  0  0  0  0  0  0
   -2.7515    6.1704   -4.6485 H   0  0  0  0  0  0  0  0  0  0  0  0
   -3.8668    5.7623   -3.3213 H   0  0  0  0  0  0  0  0  0  0  0  0
   -3.1513    7.3855   -3.4185 H   0  0  0  0  0  0  0  0  0  0  0  0
  1  2  2  0  0  0  0
  1  3  1  0  0  0  0
  1  7  1  0  0  0  0
  3  4  1  0  0  0  0
  3  5  1  0  0  0  0
  3  6  1  0  0  0  0
  7  8  1  0  0  0  0
  7 12  1  0  0  0  0
  8  9  1  0  0  0  0
  8 11  1  0  0  0  0
  8 13  1  0  0  0  0
  9 10  2  0  0  0  0
  9 17  1  0  0  0  0
 11 14  1  0  0  0  0
 11 15  1  0  0  0  0
 11 16  1  0  0  0  0
 17 18  1  0  0  0  0
 17 25  1  0  0  0  0
 18 19  1  0  0  0  0
 18 21  1  0  0  0  0
 18 26  1  0  0  0  0
 19 20  2  0  0  0  0
 19 29  1  0  0  0  0
 21 22  1  0  0  0  0
 21 27  1  0  0  0  0
 21 28  1  0  0  0  0
 22 23  1  0  0  0  0
 22 24  2  0  0  0  0
 29 30  1  0  0  0  0
 29 34  1  0  0  0  0
 30 31  1  0  0  0  0
 30 33  1  0  0  0  0
 30 35  1  0  0  0  0
 31 32  2  0  0  0  0
 31 39  1  0  0  0  0
 33 36  1  0  0  0  0
 33 37  1  0  0  0  0
 33 38  1  0  0  0  0
 39 40  1  0  0  0  0
 39 41  1  0  0  0  0
 40 42  1  0  0  0  0
 40 43  1  0  0  0  0
 40 44  1  0  0  0  0
M  CHG  1  23  -1
M  END
$$$$

  -OEChem-05262215553D

 44 43  0     1  0  0  0  0  0999 V2000
   -4.3074    0.1818   -4.0764 C   0  0  0  0  0  0  0  0  0  0  0  0
   -4.7198   -0.9516   -4.2770 O   0  0  0  0  0  0  0  0  0  0  0  0
   -5.0475    1.3740   -4.6544 C   0  0  0  0  0  0  0  0  0  0  0  0
   -4.3941    1.9199   -5.3393 H   0  0  0  0  0  0  0  0  0  0  0  0
   -5.9364    1.0430   -5.1979 H   0  0  0  0  0  0  0  0  0  0  0  0
   -5.3537    2.0455   -3.8481 H   0  0  0  0  0  0  0  0  0  0  0  0
   -3.1728    0.3968   -3.3275 N   0  0  0  0  0  0  0  0  0  0  0  0
   -2.4986   -0.6385   -2.5244 C   0  0  2  0  0  0  0  0  0  0  0  0
   -1.9375   -0.0292   -1.2197 C   0  0  0  0  0  0  0  0  0  0  0  0
   -2.5905    0.8340   -0.6453 O   0  0  0  0  0  0  0  0  0  0  0  0
   -1.4114   -1.2846   -3.3940 C   0  0  0  0  0  0  0  0  0  0  0  0
   -2.9846    1.3778   -3.0947 H   0  0  0  0  0  0  0  0  0  0  0  0
   -3.2174   -1.4102   -2.2283 H   0  0  0  0  0  0  0  0  0  0  0  0
   -0.6515   -0.5470   -3.6724 H   0  0  0  0  0  0  0  0  0  0  0  0
   -0.9254   -2.1067   -2.8591 H   0  0  0  0  0  0  0  0  0  0  0  0
   -1.8534   -1.6901   -4.3095 H   0  0  0  0  0  0  0  0  0  0  0  0
   -0.6618   -0.3103   -0.7667 N   0  0  0  0  0  0  0  0  0  0  0  0
    0.2858    0.5880   -0.0614 C   0  0  2  0  0  0  0  0  0  0  0  0
    0.2352    2.1212   -0.3582 C   0  0  0  0  0  0  0  0  0  0  0  0
    1.0269    2.8965    0.1684 O   0  0  0  0  0  0  0  0  0  0  0  0
    1.6652    0.0516   -0.5021 C   0  0  0  0  0  0  0  0  0  0  0  0
    1.9889   -1.3260    0.0666 C   0  0  0  0  0  0  0  0  0  0  0  0
    1.5002   -1.6620    1.1716 O   0  5  0  0  0  0  0  0  0  0  0  0
    2.5978   -2.1026   -0.7069 O   0  0  0  0  0  0  0  0  0  0  0  0
   -0.2269   -1.1293   -1.1869 H   0  0  0  0  0  0  0  0  0  0  0  0
    0.1544    0.4737    1.0201 H   0  0  0  0  0  0  0  0  0  0  0  0
    2.4477    0.7267   -0.1459 H   0  0  0  0  0  0  0  0  0  0  0  0
    1.7250    0.0261   -1.5943 H   0  0  0  0  0  0  0  0  0  0  0  0
   -0.6623    2.6593   -1.2589 N   0  0  0  0  0  0  0  0  0  0  0  0
   -0.8094    4.0617   -1.6441 C   0  0  2  0  0  0  0  0  0  0  0  0
   -2.1491    4.2731   -2.3869 C   0  0  0  0  0  0  0  0  0  0  0  0
   -2.7063    3.3426   -2.9693 O   0  0  0  0  0  0  0  0  0  0  0  0
    0.3535    4.4686   -2.5567 C   0  0  0  0  0  0  0  0  0  0  0  0
   -1.4726    2.0639   -1.4348 H   0  0  0  0  0  0  0  0  0  0  0  0
   -0.8074    4.6849   -0.7442 H   0  0  0  0  0  0  0  0  0  0  0  0
    0.3826    3.8278   -3.4438 H   0  0  0  0  0  0  0  0  0  0  0  0
    0.2421    5.5079   -2.8791 H   0  0  0  0  0  0  0  0  0  0  0  0
    1.3077    4.3739   -2.0295 H   0  0  0  0  0  0  0  0  0  0  0  0
   -2.7296    5.5280   -2.4248 N   0  0  0  0  0  0  0  0  0  0  0  0
   -4.0049    5.8024   -3.0735 C   0  0  0  0  0  0  0  0  0  0  0  0
   -2.2757    6.2670   -1.8961 H   0  0  0  0  0  0  0  0  0  0  0  0
   -3.9621    5.5313   -4.1336 H   0  0  0  0  0  0  0  0  0  0  0  0
   -4.8078    5.2320   -2.5952 H   0  0  0  0  0  0  0  0  0  0  0  0
   -4.2439    6.8675   -2.9994 H   0  0  0  0  0  0  0  0  0  0  0  0
  1  2  2  0  0  0  0
  1  3  1  0  0  0  0
  1  7  1  0  0  0  0
  3  4  1  0  0  0  0
  3  5  1  0  0  0  0
  3  6  1  0  0  0  0
  7  8  1  0  0  0  0
  7 12  1  0  0  0  0
  8  9  1  0  0  0  0
  8 11  1  0  0  0  0
  8 13  1  0  0  0  0
  9 10  2  0  0  0  0
  9 17  1  0  0  0  0
 11 14  1  0  0  0  0
 11 15  1  0  0  0  0
 11 16  1  0  0  0  0
 17 18  1  0  0  0  0
 17 25  1  0  0  0  0
 18 19  1  0  0  0  0
 18 21  1  0  0  0  0
 18 26  1  0  0  0  0
 19 20  2  0  0  0  0
 19 29  1  0  0  0  0
 21 22  1  0  0  0  0
 21 27  1  0  0  0  0
 21 28  1  0  0  0  0
 22 23  1  0  0  0  0
 22 24  2  0  0  0  0
 29 30  1  0  0  0  0
 29 34  1  0  0  0  0
 30 31  1  0  0  0  0
 30 33  1  0  0  0  0
 30 35  1  0  0  0  0
 31 32  2  0  0  0  0
 31 39  1  0  0  0  0
 33 36  1  0  0  0  0
 33 37  1  0  0  0  0
 33 38  1  0  0  0  0
 39 40  1  0  0  0  0
 39 41  1  0  0  0  0
 40 42  1  0  0  0  0
 40 43  1  0  0  0  0
 40 44  1  0  0  0  0
M  CHG  1  23  -1
M  END
$$$$

  -OEChem-05262215553D

 44 43  0     1  0  0  0  0  0999 V2000
   -4.4098    0.3238   -3.9778 C   0  0  0  0  0  0  0  0  0  0  0  0
   -4.7258   -0.8001   -4.3414 O   0  0  0  0  0  0  0  0  0  0  0  0
   -5.2237    1.5242   -4.4246 C   0  0  0  0  0  0  0  0  0  0  0  0
   -4.5808    2.2327   -4.9530 H   0  0  0  0  0  0  0  0  0  0  0  0
   -6.0307    1.2101   -5.0918 H   0  0  0  0  0  0  0  0  0  0  0  0
   -5.6562    2.0224   -3.5533 H   0  0  0  0  0  0  0  0  0  0  0  0
   -3.3203    0.5189   -3.1599 N   0  0  0  0  0  0  0  0  0  0  0  0
   -2.5778   -0.5602   -2.4860 C   0  0  2  0  0  0  0  0  0  0  0  0
   -2.0240   -0.0669   -1.1303 C   0  0  0  0  0  0  0  0  0  0  0  0
   -2.7048    0.6984   -0.4565 O   0  0  0  0  0  0  0  0  0  0  0  0
   -1.4724   -1.0489   -3.4326 C   0  0  0  0  0  0  0  0  0  0  0  0
   -3.2107    1.4716   -2.7958 H   0  0  0  0  0  0  0  0  0  0  0  0
   -3.2512   -1.3962   -2.2687 H   0  0  0  0  0  0  0  0  0  0  0  0
   -0.7537   -0.2474   -3.6316 H   0  0  0  0  0  0  0  0  0  0  0  0
   -0.9398   -1.9005   -2.9977 H   0  0  0  0  0  0  0  0  0  0  0  0
   -1.9055   -1.3708   -4.3848 H   0  0  0  0  0  0  0  0  0  0  0  0
   -0.7413   -0.3588   -0.7069 N   0  0  0  0  0  0  0  0  0  0  0  0
    0.2219    0.5342   -0.0153 C   0  0  2  0  0  0  0  0  0  0  0  0
    0.1693    2.0729   -0.3027 C   0  0  0  0  0  0  0  0  0  0  0  0
    1.1052    2.8087   -0.0063 O   0  0  0  0  0  0  0  0  0  0  0  0
    1.5908   -0.0296   -0.4611 C   0  0  0  0  0  0  0  0  0  0  0  0
    1.8975   -1.4067    0.1189 C   0  0  0  0  0  0  0  0  0  0  0  0
    1.4129   -1.7248    1.2312 O   0  5  0  0  0  0  0  0  0  0  0  0
    2.4952   -2.1976   -0.6488 O   0  0  0  0  0  0  0  0  0  0  0  0
   -0.3016   -1.1344   -1.1974 H   0  0  0  0  0  0  0  0  0  0  0  0
    0.0986    0.4205    1.0672 H   0  0  0  0  0  0  0  0  0  0  0  0
    2.3899    0.6307   -0.1152 H   0  0  0  0  0  0  0  0  0  0  0  0
    1.6432   -0.0650   -1.5534 H   0  0  0  0  0  0  0  0  0  0  0  0
   -0.9025    2.6787   -0.9278 N   0  0  0  0  0  0  0  0  0  0  0  0
   -0.9980    4.0489   -1.4360 C   0  0  2  0  0  0  0  0  0  0  0  0
   -2.4220    4.3223   -1.9696 C   0  0  0  0  0  0  0  0  0  0  0  0
   -3.0741    3.4308   -2.5113 O   0  0  0  0  0  0  0  0  0  0  0  0
    0.0047    4.2638   -2.5788 C   0  0  0  0  0  0  0  0  0  0  0  0
   -1.7518    2.1117   -0.9698 H   0  0  0  0  0  0  0  0  0  0  0  0
   -0.7840    4.7484   -0.6221 H   0  0  0  0  0  0  0  0  0  0  0  0
   -0.1625    3.5311   -3.3749 H   0  0  0  0  0  0  0  0  0  0  0  0
   -0.1051    5.2679   -2.9988 H   0  0  0  0  0  0  0  0  0  0  0  0
    1.0325    4.1563   -2.2202 H   0  0  0  0  0  0  0  0  0  0  0  0
   -2.9647    5.5915   -1.8823 N   0  0  0  0  0  0  0  0  0  0  0  0
   -4.3149    5.9164   -2.3229 C   0  0  0  0  0  0  0  0  0  0  0  0
   -2.4268    6.2940   -1.3834 H   0  0  0  0  0  0  0  0  0  0  0  0
   -4.4472    5.6570   -3.3786 H   0  0  0  0  0  0  0  0  0  0  0  0
   -5.0536    5.3683   -1.7285 H   0  0  0  0  0  0  0  0  0  0  0  0
   -4.5014    6.9880   -2.2063 H   0  0  0  0  0  0  0  0  0  0  0  0
  1  2  2  0  0  0  0
  1  3  1  0  0  0  0
  1  7  1  0  0  0  0
  3  4  1  0  0  0  0
  3  5  1  0  0  0  0
  3  6  1  0  0  0  0
  7  8  1  0  0  0  0
  7 12  1  0  0  0  0
  8  9  1  0  0  0  0
  8 11  1  0  0  0  0
  8 13  1  0  0  0  0
  9 10  2  0  0  0  0
  9 17  1  0  0  0  0
 11 14  1  0  0  0  0
 11 15  1  0  0  0  0
 11 16  1  0  0  0  0
 17 18  1  0  0  0  0
 17 25  1  0  0  0  0
 18 19  1  0  0  0  0
 18 21  1  0  0  0  0
 18 26  1  0  0  0  0
 19 20  2  0  0  0  0
 19 29  1  0  0  0  0
 21 22  1  0  0  0  0
 21 27  1  0  0  0  0
 21 28  1  0  0  0  0
 22 23  1  0  0  0  0
 22 24  2  0  0  0  0
 29 30  1  0  0  0  0
 29 34  1  0  0  0  0
 30 31  1  0  0  0  0
 30 33  1  0  0  0  0
 30 35  1  0  0  0  0
 31 32  2  0  0  0  0
 31 39  1  0  0  0  0
 33 36  1  0  0  0  0
 33 37  1  0  0  0  0
 33 38  1  0  0  0  0
 39 40  1  0  0  0  0
 39 41  1  0  0  0  0
 40 42  1  0  0  0  0
 40 43  1  0  0  0  0
 40 44  1  0  0  0  0
M  CHG  1  23  -1
M  END
$$$$

  -OEChem-05262215553D

 44 43  0     1  0  0  0  0  0999 V2000
   -4.8787   -0.4242   -4.0927 C   0  0  0  0  0  0  0  0  0  0  0  0
   -4.7549   -1.6161   -4.3242 O   0  0  0  0  0  0  0  0  0  0  0  0
   -6.1944    0.2726   -4.3878 C   0  0  0  0  0  0  0  0  0  0  0  0
   -6.0400    1.0639   -5.1253 H   0  0  0  0  0  0  0  0  0  0  0  0
   -6.9199   -0.4426   -4.7853 H   0  0  0  0  0  0  0  0  0  0  0  0
   -6.5971    0.7115   -3.4715 H   0  0  0  0  0  0  0  0  0  0  0  0
   -3.8351    0.2989   -3.5566 N   0  0  0  0  0  0  0  0  0  0  0  0
   -2.5835   -0.2848   -3.0520 C   0  0  2  0  0  0  0  0  0  0  0  0
   -1.9539    0.5994   -1.9512 C   0  0  0  0  0  0  0  0  0  0  0  0
   -2.5131    1.6526   -1.6492 O   0  0  0  0  0  0  0  0  0  0  0  0
   -1.6107   -0.4560   -4.2244 C   0  0  0  0  0  0  0  0  0  0  0  0
   -4.0389    1.2511   -3.2576 H   0  0  0  0  0  0  0  0  0  0  0  0
   -2.7878   -1.2657   -2.6082 H   0  0  0  0  0  0  0  0  0  0  0  0
   -1.3779    0.5143   -4.6740 H   0  0  0  0  0  0  0  0  0  0  0  0
   -0.6773   -0.9174   -3.8864 H   0  0  0  0  0  0  0  0  0  0  0  0
   -2.0503   -1.1001   -4.9923 H   0  0  0  0  0  0  0  0  0  0  0  0
   -0.8403    0.1370   -1.2729 N   0  0  0  0  0  0  0  0  0  0  0  0
    0.0896    0.7597   -0.2965 C   0  0  2  0  0  0  0  0  0  0  0  0
    0.3994    2.2924   -0.3280 C   0  0  0  0  0  0  0  0  0  0  0  0
    1.4201    2.7438    0.1783 O   0  0  0  0  0  0  0  0  0  0  0  0
    1.3825   -0.0577   -0.5320 C   0  0  0  0  0  0  0  0  0  0  0  0
    1.2575   -1.5060   -0.0685 C   0  0  0  0  0  0  0  0  0  0  0  0
    0.4814   -1.7729    0.8803 O   0  5  0  0  0  0  0  0  0  0  0  0
    1.7827   -2.3630   -0.8162 O   0  0  0  0  0  0  0  0  0  0  0  0
   -0.5946   -0.8281   -1.4960 H   0  0  0  0  0  0  0  0  0  0  0  0
   -0.2930    0.5728    0.7128 H   0  0  0  0  0  0  0  0  0  0  0  0
    2.2065    0.3737    0.0415 H   0  0  0  0  0  0  0  0  0  0  0  0
    1.6643   -0.0228   -1.5888 H   0  0  0  0  0  0  0  0  0  0  0  0
   -0.5128    3.2243   -0.7718 N   0  0  0  0  0  0  0  0  0  0  0  0
   -0.4452    4.6826   -0.6079 C   0  0  2  0  0  0  0  0  0  0  0  0
   -1.8503    5.3115   -0.4570 C   0  0  0  0  0  0  0  0  0  0  0  0
   -1.9739    6.5197   -0.2890 O   0  0  0  0  0  0  0  0  0  0  0  0
    0.2928    5.2648   -1.8173 C   0  0  0  0  0  0  0  0  0  0  0  0
   -1.3422    2.8307   -1.2074 H   0  0  0  0  0  0  0  0  0  0  0  0
    0.1114    4.9257    0.3034 H   0  0  0  0  0  0  0  0  0  0  0  0
   -0.2572    5.0549   -2.7396 H   0  0  0  0  0  0  0  0  0  0  0  0
    0.3995    6.3489   -1.7122 H   0  0  0  0  0  0  0  0  0  0  0  0
    1.2924    4.8264   -1.8978 H   0  0  0  0  0  0  0  0  0  0  0  0
   -2.9946    4.5354   -0.5658 N   0  0  0  0  0  0  0  0  0  0  0  0
   -4.3446    5.0649   -0.4463 C   0  0  0  0  0  0  0  0  0  0  0  0
   -2.8733    3.5325   -0.7137 H   0  0  0  0  0  0  0  0  0  0  0  0
   -5.0745    4.2570   -0.5545 H   0  0  0  0  0  0  0  0  0  0  0  0
   -4.4870    5.5316    0.5338 H   0  0  0  0  0  0  0  0  0  0  0  0
   -4.5340    5.8100   -1.2257 H   0  0  0  0  0  0  0  0  0  0  0  0
  1  2  2  0  0  0  0
  1  3  1  0  0  0  0
  1  7  1  0  0  0  0
  3  4  1  0  0  0  0
  3  5  1  0  0  0  0
  3  6  1  0  0  0  0
  7  8  1  0  0  0  0
  7 12  1  0  0  0  0
  8  9  1  0  0  0  0
  8 11  1  0  0  0  0
  8 13  1  0  0  0  0
  9 10  2  0  0  0  0
  9 17  1  0  0  0  0
 11 14  1  0  0  0  0
 11 15  1  0  0  0  0
 11 16  1  0  0  0  0
 17 18  1  0  0  0  0
 17 25  1  0  0  0  0
 18 19  1  0  0  0  0
 18 21  1  0  0  0  0
 18 26  1  0  0  0  0
 19 20  2  0  0  0  0
 19 29  1  0  0  0  0
 21 22  1  0  0  0  0
 21 27  1  0  0  0  0
 21 28  1  0  0  0  0
 22 23  1  0  0  0  0
 22 24  2  0  0  0  0
 29 30  1  0  0  0  0
 29 34  1  0  0  0  0
 30 31  1  0  0  0  0
 30 33  1  0  0  0  0
 30 35  1  0  0  0  0
 31 32  2  0  0  0  0
 31 39  1  0  0  0  0
 33 36  1  0  0  0  0
 33 37  1  0  0  0  0
 33 38  1  0  0  0  0
 39 40  1  0  0  0  0
 39 41  1  0  0  0  0
 40 42  1  0  0  0  0
 40 43  1  0  0  0  0
 40 44  1  0  0  0  0
M  CHG  1  23  -1
M  END
$$$$

  -OEChem-05262215553D

 44 43  0     1  0  0  0  0  0999 V2000
   -4.0354   -1.4678   -4.8244 C   0  0  0  0  0  0  0  0  0  0  0  0
   -3.6797   -2.6350   -4.7900 O   0  0  0  0  0  0  0  0  0  0  0  0
   -5.2551   -1.0709   -5.6363 C   0  0  0  0  0  0  0  0  0  0  0  0
   -4.9792   -0.3207   -6.3814 H   0  0  0  0  0  0  0  0  0  0  0  0
   -5.6671   -1.9437   -6.1507 H   0  0  0  0  0  0  0  0  0  0  0  0
   -6.0216   -0.6551   -4.9776 H   0  0  0  0  0  0  0  0  0  0  0  0
   -3.3420   -0.5026   -4.1268 N   0  0  0  0  0  0  0  0  0  0  0  0
   -2.2596   -0.7718   -3.1696 C   0  0  2  0  0  0  0  0  0  0  0  0
   -2.1414    0.3624   -2.1258 C   0  0  0  0  0  0  0  0  0  0  0  0
   -2.8628    1.3479   -2.2412 O   0  0  0  0  0  0  0  0  0  0  0  0
   -0.9429   -0.9261   -3.9397 C   0  0  0  0  0  0  0  0  0  0  0  0
   -3.7576    0.4270   -4.0812 H   0  0  0  0  0  0  0  0  0  0  0  0
   -2.4717   -1.7000   -2.6272 H   0  0  0  0  0  0  0  0  0  0  0  0
   -0.7022   -0.0022   -4.4751 H   0  0  0  0  0  0  0  0  0  0  0  0
   -0.1208   -1.1567   -3.2547 H   0  0  0  0  0  0  0  0  0  0  0  0
   -1.0197   -1.7409   -4.6663 H   0  0  0  0  0  0  0  0  0  0  0  0
   -1.2818    0.2063   -1.0547 N   0  0  0  0  0  0  0  0  0  0  0  0
   -0.8438    1.1235    0.0241 C   0  0  2  0  0  0  0  0  0  0  0  0
   -0.7588    2.6651   -0.2280 C   0  0  0  0  0  0  0  0  0  0  0  0
    0.1802    3.3341    0.1962 O   0  0  0  0  0  0  0  0  0  0  0  0
    0.5306    0.5338    0.4255 C   0  0  0  0  0  0  0  0  0  0  0  0
    0.4135   -0.8211    1.1166 C   0  0  0  0  0  0  0  0  0  0  0  0
   -0.6231   -1.0740    1.7767 O   0  5  0  0  0  0  0  0  0  0  0  0
    1.2891   -1.6664    0.8199 O   0  0  0  0  0  0  0  0  0  0  0  0
   -0.8667   -0.7230   -0.9878 H   0  0  0  0  0  0  0  0  0  0  0  0
   -1.5436    1.0227    0.8602 H   0  0  0  0  0  0  0  0  0  0  0  0
    1.0239    1.1946    1.1425 H   0  0  0  0  0  0  0  0  0  0  0  0
    1.1784    0.4550   -0.4526 H   0  0  0  0  0  0  0  0  0  0  0  0
   -1.7471    3.3827   -0.8724 N   0  0  0  0  0  0  0  0  0  0  0  0
   -1.6395    4.7887   -1.2935 C   0  0  2  0  0  0  0  0  0  0  0  0
   -1.9490    5.7941   -0.1557 C   0  0  0  0  0  0  0  0  0  0  0  0
   -2.7312    6.7284   -0.3080 O   0  0  0  0  0  0  0  0  0  0  0  0
   -2.5636    4.9563   -2.5056 C   0  0  0  0  0  0  0  0  0  0  0  0
   -2.4746    2.8108   -1.3079 H   0  0  0  0  0  0  0  0  0  0  0  0
   -0.6151    4.9879   -1.6245 H   0  0  0  0  0  0  0  0  0  0  0  0
   -3.6058    4.7830   -2.2193 H   0  0  0  0  0  0  0  0  0  0  0  0
   -2.4774    5.9682   -2.9133 H   0  0  0  0  0  0  0  0  0  0  0  0
   -2.2939    4.2432   -3.2909 H   0  0  0  0  0  0  0  0  0  0  0  0
   -1.2870    5.6691    1.0493 N   0  0  0  0  0  0  0  0  0  0  0  0
   -1.4740    6.5502    2.1913 C   0  0  0  0  0  0  0  0  0  0  0  0
   -0.6247    4.8898    1.1128 H   0  0  0  0  0  0  0  0  0  0  0  0
   -1.2336    7.5836    1.9215 H   0  0  0  0  0  0  0  0  0  0  0  0
   -2.5104    6.5063    2.5413 H   0  0  0  0  0  0  0  0  0  0  0  0
   -0.8173    6.2445    3.0113 H   0  0  0  0  0  0  0  0  0  0  0  0
  1  2  2  0  0  0  0
  1  3  1  0  0  0  0
  1  7  1  0  0  0  0
  3  4  1  0  0  0  0
  3  5  1  0  0  0  0
  3  6  1  0  0  0  0
  7  8  1  0  0  0  0
  7 12  1  0  0  0  0
  8  9  1  0  0  0  0
  8 11  1  0  0  0  0
  8 13  1  0  0  0  0
  9 10  2  0  0  0  0
  9 17  1  0  0  0  0
 11 14  1  0  0  0  0
 11 15  1  0  0  0  0
 11 16  1  0  0  0  0
 17 18  1  0  0  0  0
 17 25  1  0  0  0  0
 18 19  1  0  0  0  0
 18 21  1  0  0  0  0
 18 26  1  0  0  0  0
 19 20  2  0  0  0  0
 19 29  1  0  0  0  0
 21 22  1  0  0  0  0
 21 27  1  0  0  0  0
 21 28  1  0  0  0  0
 22 23  1  0  0  0  0
 22 24  2  0  0  0  0
 29 30  1  0  0  0  0
 29 34  1  0  0  0  0
 30 31  1  0  0  0  0
 30 33  1  0  0  0  0
 30 35  1  0  0  0  0
 31 32  2  0  0  0  0
 31 39  1  0  0  0  0
 33 36  1  0  0  0  0
 33 37  1  0  0  0  0
 33 38  1  0  0  0  0
 39 40  1  0  0  0  0
 39 41  1  0  0  0  0
 40 42  1  0  0  0  0
 40 43  1  0  0  0  0
 40 44  1  0  0  0  0
M  CHG  1  23  -1
M  END
$$$$

  -OEChem-05262215553D

 44 43  0     1  0  0  0  0  0999 V2000
   -4.5030   -0.8910   -4.2919 C   0  0  0  0  0  0  0  0  0  0  0  0
   -4.2166   -2.0402   -4.5888 O   0  0  0  0  0  0  0  0  0  0  0  0
   -5.8864   -0.3503   -4.6037 C   0  0  0  0  0  0  0  0  0  0  0  0
   -5.8076    0.5144   -5.2671 H   0  0  0  0  0  0  0  0  0  0  0  0
   -6.4915   -1.1182   -5.0938 H   0  0  0  0  0  0  0  0  0  0  0  0
   -6.3836   -0.0464   -3.6792 H   0  0  0  0  0  0  0  0  0  0  0  0
   -3.5838   -0.0769   -3.6676 N   0  0  0  0  0  0  0  0  0  0  0  0
   -2.2994   -0.5317   -3.1176 C   0  0  2  0  0  0  0  0  0  0  0  0
   -1.8522    0.3665   -1.9420 C   0  0  0  0  0  0  0  0  0  0  0  0
   -2.5275    1.3503   -1.6624 O   0  0  0  0  0  0  0  0  0  0  0  0
   -1.2489   -0.5187   -4.2335 C   0  0  0  0  0  0  0  0  0  0  0  0
   -3.9212    0.8197   -3.3169 H   0  0  0  0  0  0  0  0  0  0  0  0
   -2.4040   -1.5519   -2.7321 H   0  0  0  0  0  0  0  0  0  0  0  0
   -1.1168    0.4957   -4.6230 H   0  0  0  0  0  0  0  0  0  0  0  0
   -0.2850   -0.8764   -3.8584 H   0  0  0  0  0  0  0  0  0  0  0  0
   -1.5593   -1.1716   -5.0553 H   0  0  0  0  0  0  0  0  0  0  0  0
   -0.7520    0.0043   -1.1890 N   0  0  0  0  0  0  0  0  0  0  0  0
   -0.0517    0.6969   -0.0847 C   0  0  2  0  0  0  0  0  0  0  0  0
   -0.0380    2.2587   -0.0484 C   0  0  0  0  0  0  0  0  0  0  0  0
    1.0138    2.8939   -0.0357 O   0  0  0  0  0  0  0  0  0  0  0  0
    1.3776    0.1073   -0.1471 C   0  0  0  0  0  0  0  0  0  0  0  0
    1.4329   -1.3623    0.2587 C   0  0  0  0  0  0  0  0  0  0  0  0
    0.5861   -1.7938    1.0782 O   0  5  0  0  0  0  0  0  0  0  0  0
    2.2253   -2.0858   -0.3884 O   0  0  0  0  0  0  0  0  0  0  0  0
   -0.3597   -0.9076   -1.4198 H   0  0  0  0  0  0  0  0  0  0  0  0
   -0.5235    0.4029    0.8587 H   0  0  0  0  0  0  0  0  0  0  0  0
    2.0242    0.6427    0.5527 H   0  0  0  0  0  0  0  0  0  0  0  0
    1.7951    0.2368   -1.1504 H   0  0  0  0  0  0  0  0  0  0  0  0
   -1.2031    2.9998    0.0225 N   0  0  0  0  0  0  0  0  0  0  0  0
   -1.2663    4.4646   -0.0616 C   0  0  2  0  0  0  0  0  0  0  0  0
   -2.4838    5.0662    0.6719 C   0  0  0  0  0  0  0  0  0  0  0  0
   -3.5740    4.5055    0.6772 O   0  0  0  0  0  0  0  0  0  0  0  0
   -1.2989    4.8538   -1.5425 C   0  0  0  0  0  0  0  0  0  0  0  0
   -2.0511    2.4833   -0.2315 H   0  0  0  0  0  0  0  0  0  0  0  0
   -0.3716    4.8938    0.3998 H   0  0  0  0  0  0  0  0  0  0  0  0
   -2.1833    4.4281   -2.0280 H   0  0  0  0  0  0  0  0  0  0  0  0
   -1.3280    5.9417   -1.6525 H   0  0  0  0  0  0  0  0  0  0  0  0
   -0.4069    4.4777   -2.0533 H   0  0  0  0  0  0  0  0  0  0  0  0
   -2.3661    6.2990    1.2907 N   0  0  0  0  0  0  0  0  0  0  0  0
   -3.4534    6.9373    2.0202 C   0  0  0  0  0  0  0  0  0  0  0  0
   -1.4420    6.7191    1.3144 H   0  0  0  0  0  0  0  0  0  0  0  0
   -4.3089    7.1090    1.3586 H   0  0  0  0  0  0  0  0  0  0  0  0
   -3.7736    6.3080    2.8572 H   0  0  0  0  0  0  0  0  0  0  0  0
   -3.1254    7.9025    2.4174 H   0  0  0  0  0  0  0  0  0  0  0  0
  1  2  2  0  0  0  0
  1  3  1  0  0  0  0
  1  7  1  0  0  0  0
  3  4  1  0  0  0  0
  3  5  1  0  0  0  0
  3  6  1  0  0  0  0
  7  8  1  0  0  0  0
  7 12  1  0  0  0  0
  8  9  1  0  0  0  0
  8 11  1  0  0  0  0
  8 13  1  0  0  0  0
  9 10  2  0  0  0  0
  9 17  1  0  0  0  0
 11 14  1  0  0  0  0
 11 15  1  0  0  0  0
 11 16  1  0  0  0  0
 17 18  1  0  0  0  0
 17 25  1  0  0  0  0
 18 19  1  0  0  0  0
 18 21  1  0  0  0  0
 18 26  1  0  0  0  0
 19 20  2  0  0  0  0
 19 29  1  0  0  0  0
 21 22  1  0  0  0  0
 21 27  1  0  0  0  0
 21 28  1  0  0  0  0
 22 23  1  0  0  0  0
 22 24  2  0  0  0  0
 29 30  1  0  0  0  0
 29 34  1  0  0  0  0
 30 31  1  0  0  0  0
 30 33  1  0  0  0  0
 30 35  1  0  0  0  0
 31 32  2  0  0  0  0
 31 39  1  0  0  0  0
 33 36  1  0  0  0  0
 33 37  1  0  0  0  0
 33 38  1  0  0  0  0
 39 40  1  0  0  0  0
 39 41  1  0  0  0  0
 40 42  1  0  0  0  0
 40 43  1  0  0  0  0
 40 44  1  0  0  0  0
M  CHG  1  23  -1
M  END
$$$$

  -OEChem-05262215553D

 44 43  0     1  0  0  0  0  0999 V2000
   -4.5429   -0.6882   -4.2008 C   0  0  0  0  0  0  0  0  0  0  0  0
   -4.3068   -1.8435   -4.5180 O   0  0  0  0  0  0  0  0  0  0  0  0
   -5.9095   -0.0892   -4.4789 C   0  0  0  0  0  0  0  0  0  0  0  0
   -5.8094    0.7746   -5.1404 H   0  0  0  0  0  0  0  0  0  0  0  0
   -6.5565   -0.8286   -4.9590 H   0  0  0  0  0  0  0  0  0  0  0  0
   -6.3736    0.2300   -3.5424 H   0  0  0  0  0  0  0  0  0  0  0  0
   -3.5801    0.0825   -3.5873 N   0  0  0  0  0  0  0  0  0  0  0  0
   -2.3016   -0.4269   -3.0746 C   0  0  2  0  0  0  0  0  0  0  0  0
   -1.8072    0.4248   -1.8840 C   0  0  0  0  0  0  0  0  0  0  0  0
   -2.4424    1.4240   -1.5622 O   0  0  0  0  0  0  0  0  0  0  0  0
   -1.2724   -0.4151   -4.2099 C   0  0  0  0  0  0  0  0  0  0  0  0
   -3.8762    0.9852   -3.2162 H   0  0  0  0  0  0  0  0  0  0  0  0
   -2.4304   -1.4535   -2.7144 H   0  0  0  0  0  0  0  0  0  0  0  0
   -1.1140    0.6053   -4.5726 H   0  0  0  0  0  0  0  0  0  0  0  0
   -0.3140   -0.8154   -3.8645 H   0  0  0  0  0  0  0  0  0  0  0  0
   -1.6202   -1.0324   -5.0438 H   0  0  0  0  0  0  0  0  0  0  0  0
   -0.7151    0.0063   -1.1498 N   0  0  0  0  0  0  0  0  0  0  0  0
   -0.0034    0.6838   -0.0481 C   0  0  2  0  0  0  0  0  0  0  0  0
    0.0201    2.2417   -0.0527 C   0  0  0  0  0  0  0  0  0  0  0  0
    1.0477    2.8757   -0.2822 O   0  0  0  0  0  0  0  0  0  0  0  0
    1.4225    0.0884   -0.0961 C   0  0  0  0  0  0  0  0  0  0  0  0
    1.4664   -1.3806    0.3138 C   0  0  0  0  0  0  0  0  0  0  0  0
    0.6090   -1.8048    1.1265 O   0  5  0  0  0  0  0  0  0  0  0  0
    2.2739   -2.1085   -0.3092 O   0  0  0  0  0  0  0  0  0  0  0  0
   -0.3402   -0.9069   -1.4014 H   0  0  0  0  0  0  0  0  0  0  0  0
   -0.4786    0.4062    0.8986 H   0  0  0  0  0  0  0  0  0  0  0  0
    2.0641    0.6303    0.6037 H   0  0  0  0  0  0  0  0  0  0  0  0
    1.8455    0.2088   -1.0980 H   0  0  0  0  0  0  0  0  0  0  0  0
   -1.1047    2.9645    0.3023 N   0  0  0  0  0  0  0  0  0  0  0  0
   -1.1867    4.4303    0.2608 C   0  0  2  0  0  0  0  0  0  0  0  0
   -2.2296    5.0057    1.2419 C   0  0  0  0  0  0  0  0  0  0  0  0
   -3.3178    4.4661    1.4088 O   0  0  0  0  0  0  0  0  0  0  0  0
   -1.5231    4.8546   -1.1720 C   0  0  0  0  0  0  0  0  0  0  0  0
   -1.9814    2.4506    0.1862 H   0  0  0  0  0  0  0  0  0  0  0  0
   -0.2165    4.8543    0.5380 H   0  0  0  0  0  0  0  0  0  0  0  0
   -2.4874    4.4348   -1.4764 H   0  0  0  0  0  0  0  0  0  0  0  0
   -1.5763    5.9448   -1.2451 H   0  0  0  0  0  0  0  0  0  0  0  0
   -0.7547    4.4973   -1.8648 H   0  0  0  0  0  0  0  0  0  0  0  0
   -1.9631    6.1904    1.9065 N   0  0  0  0  0  0  0  0  0  0  0  0
   -2.8801    6.7985    2.8611 C   0  0  0  0  0  0  0  0  0  0  0  0
   -1.0364    6.5886    1.7898 H   0  0  0  0  0  0  0  0  0  0  0  0
   -3.8363    7.0288    2.3800 H   0  0  0  0  0  0  0  0  0  0  0  0
   -3.0615    6.1213    3.7020 H   0  0  0  0  0  0  0  0  0  0  0  0
   -2.4563    7.7290    3.2505 H   0  0  0  0  0  0  0  0  0  0  0  0
  1  2  2  0  0  0  0
  1  3  1  0  0  0  0
  1  7  1  0  0  0  0
  3  4  1  0  0  0  0
  3  5  1  0  0  0  0
  3  6  1  0  0  0  0
  7  8  1  0  0  0  0
  7 12  1  0  0  0  0
  8  9  1  0  0  0  0
  8 11  1  0  0  0  0
  8 13  1  0  0  0  0
  9 10  2  0  0  0  0
  9 17  1  0  0  0  0
 11 14  1  0  0  0  0
 11 15  1  0  0  0  0
 11 16  1  0  0  0  0
 17 18  1  0  0  0  0
 17 25  1  0  0  0  0
 18 19  1  0  0  0  0
 18 21  1  0  0  0  0
 18 26  1  0  0  0  0
 19 20  2  0  0  0  0
 19 29  1  0  0  0  0
 21 22  1  0  0  0  0
 21 27  1  0  0  0  0
 21 28  1  0  0  0  0
 22 23  1  0  0  0  0
 22 24  2  0  0  0  0
 29 30  1  0  0  0  0
 29 34  1  0  0  0  0
 30 31  1  0  0  0  0
 30 33  1  0  0  0  0
 30 35  1  0  0  0  0
 31 32  2  0  0  0  0
 31 39  1  0  0  0  0
 33 36  1  0  0  0  0
 33 37  1  0  0  0  0
 33 38  1  0  0  0  0
 39 40  1  0  0  0  0
 39 41  1  0  0  0  0
 40 42  1  0  0  0  0
 40 43  1  0  0  0  0
 40 44  1  0  0  0  0
M  CHG  1  23  -1
M  END
$$$$

  -OEChem-05262215553D

 44 43  0     1  0  0  0  0  0999 V2000
   -4.5698   -0.4052   -4.1311 C   0  0  0  0  0  0  0  0  0  0  0  0
   -4.3818   -1.5386   -4.5448 O   0  0  0  0  0  0  0  0  0  0  0  0
   -5.9022    0.2795   -4.3750 C   0  0  0  0  0  0  0  0  0  0  0  0
   -5.7459    1.2177   -4.9128 H   0  0  0  0  0  0  0  0  0  0  0  0
   -6.5554   -0.3642   -4.9707 H   0  0  0  0  0  0  0  0  0  0  0  0
   -6.3911    0.4926   -3.4213 H   0  0  0  0  0  0  0  0  0  0  0  0
   -3.5837    0.2639   -3.4404 N   0  0  0  0  0  0  0  0  0  0  0  0
   -2.3230   -0.3331   -2.9798 C   0  0  2  0  0  0  0  0  0  0  0  0
   -1.7862    0.4128   -1.7375 C   0  0  0  0  0  0  0  0  0  0  0  0
   -2.3997    1.3891   -1.3155 O   0  0  0  0  0  0  0  0  0  0  0  0
   -1.3021   -0.2786   -4.1223 C   0  0  0  0  0  0  0  0  0  0  0  0
   -3.8417    1.1453   -2.9964 H   0  0  0  0  0  0  0  0  0  0  0  0
   -2.4901   -1.3770   -2.6923 H   0  0  0  0  0  0  0  0  0  0  0  0
   -1.1104    0.7589   -4.4134 H   0  0  0  0  0  0  0  0  0  0  0  0
   -0.3555   -0.7347   -3.8155 H   0  0  0  0  0  0  0  0  0  0  0  0
   -1.6766   -0.8228   -4.9949 H   0  0  0  0  0  0  0  0  0  0  0  0
   -0.6687   -0.0610   -1.0783 N   0  0  0  0  0  0  0  0  0  0  0  0
    0.0974    0.5860    0.0020 C   0  0  2  0  0  0  0  0  0  0  0  0
    0.1153    2.1405   -0.0092 C   0  0  0  0  0  0  0  0  0  0  0  0
    1.0061    2.7734   -0.5722 O   0  0  0  0  0  0  0  0  0  0  0  0
    1.5252    0.0099   -0.1139 C   0  0  0  0  0  0  0  0  0  0  0  0
    1.6037   -1.4670    0.2604 C   0  0  0  0  0  0  0  0  0  0  0  0
    0.7839   -1.9205    1.0958 O   0  5  0  0  0  0  0  0  0  0  0  0
    2.4080   -2.1680   -0.3971 O   0  0  0  0  0  0  0  0  0  0  0  0
   -0.2860   -0.9413   -1.4174 H   0  0  0  0  0  0  0  0  0  0  0  0
   -0.3317    0.2945    0.9664 H   0  0  0  0  0  0  0  0  0  0  0  0
    2.1854    0.5512    0.5686 H   0  0  0  0  0  0  0  0  0  0  0  0
    1.9057    0.1540   -1.1297 H   0  0  0  0  0  0  0  0  0  0  0  0
   -0.8551    2.8560    0.6704 N   0  0  0  0  0  0  0  0  0  0  0  0
   -0.9867    4.3177    0.6156 C   0  0  2  0  0  0  0  0  0  0  0  0
   -1.7455    4.9064    1.8238 C   0  0  0  0  0  0  0  0  0  0  0  0
   -2.5819    4.2514    2.4364 O   0  0  0  0  0  0  0  0  0  0  0  0
   -1.7084    4.6944   -0.6829 C   0  0  0  0  0  0  0  0  0  0  0  0
   -1.6839    2.3249    0.9345 H   0  0  0  0  0  0  0  0  0  0  0  0
    0.0122    4.7656    0.6128 H   0  0  0  0  0  0  0  0  0  0  0  0
   -2.7102    4.2533   -0.7037 H   0  0  0  0  0  0  0  0  0  0  0  0
   -1.8024    5.7809   -0.7682 H   0  0  0  0  0  0  0  0  0  0  0  0
   -1.1505    4.3270   -1.5501 H   0  0  0  0  0  0  0  0  0  0  0  0
   -1.5144    6.2178    2.2026 N   0  0  0  0  0  0  0  0  0  0  0  0
   -2.1784    6.8572    3.3306 C   0  0  0  0  0  0  0  0  0  0  0  0
   -0.7936    6.7265    1.6999 H   0  0  0  0  0  0  0  0  0  0  0  0
   -3.2652    6.8342    3.1991 H   0  0  0  0  0  0  0  0  0  0  0  0
   -1.9245    6.3453    4.2646 H   0  0  0  0  0  0  0  0  0  0  0  0
   -1.8635    7.9019    3.4107 H   0  0  0  0  0  0  0  0  0  0  0  0
  1  2  2  0  0  0  0
  1  3  1  0  0  0  0
  1  7  1  0  0  0  0
  3  4  1  0  0  0  0
  3  5  1  0  0  0  0
  3  6  1  0  0  0  0
  7  8  1  0  0  0  0
  7 12  1  0  0  0  0
  8  9  1  0  0  0  0
  8 11  1  0  0  0  0
  8 13  1  0  0  0  0
  9 10  2  0  0  0  0
  9 17  1  0  0  0  0
 11 14  1  0  0  0  0
 11 15  1  0  0  0  0
 11 16  1  0  0  0  0
 17 18  1  0  0  0  0
 17 25  1  0  0  0  0
 18 19  1  0  0  0  0
 18 21  1  0  0  0  0
 18 26  1  0  0  0  0
 19 20  2  0  0  0  0
 19 29  1  0  0  0  0
 21 22  1  0  0  0  0
 21 27  1  0  0  0  0
 21 28  1  0  0  0  0
 22 23  1  0  0  0  0
 22 24  2  0  0  0  0
 29 30  1  0  0  0  0
 29 34  1  0  0  0  0
 30 31  1  0  0  0  0
 30 33  1  0  0  0  0
 30 35  1  0  0  0  0
 31 32  2  0  0  0  0
 31 39  1  0  0  0  0
 33 36  1  0  0  0  0
 33 37  1  0  0  0  0
 33 38  1  0  0  0  0
 39 40  1  0  0  0  0
 39 41  1  0  0  0  0
 40 42  1  0  0  0  0
 40 43  1  0  0  0  0
 40 44  1  0  0  0  0
M  CHG  1  23  -1
M  END
$$$$

  -OEChem-05262215553D

 44 43  0     1  0  0  0  0  0999 V2000
   -4.5683   -0.2908   -4.1019 C   0  0  0  0  0  0  0  0  0  0  0  0
   -4.3937   -1.4151   -4.5454 O   0  0  0  0  0  0  0  0  0  0  0  0
   -5.9012    0.4059   -4.3086 C   0  0  0  0  0  0  0  0  0  0  0  0
   -5.7514    1.3450   -4.8471 H   0  0  0  0  0  0  0  0  0  0  0  0
   -6.5751   -0.2304   -4.8893 H   0  0  0  0  0  0  0  0  0  0  0  0
   -6.3631    0.6188   -3.3412 H   0  0  0  0  0  0  0  0  0  0  0  0
   -3.5701    0.3523   -3.4036 N   0  0  0  0  0  0  0  0  0  0  0  0
   -2.3213   -0.2764   -2.9531 C   0  0  2  0  0  0  0  0  0  0  0  0
   -1.7781    0.4250   -1.6883 C   0  0  0  0  0  0  0  0  0  0  0  0
   -2.3811    1.3943   -1.2338 O   0  0  0  0  0  0  0  0  0  0  0  0
   -1.2925   -0.2091   -4.0872 C   0  0  0  0  0  0  0  0  0  0  0  0
   -3.8176    1.2237   -2.9349 H   0  0  0  0  0  0  0  0  0  0  0  0
   -2.5074   -1.3244   -2.6946 H   0  0  0  0  0  0  0  0  0  0  0  0
   -1.0763    0.8323   -4.3460 H   0  0  0  0  0  0  0  0  0  0  0  0
   -0.3584   -0.6946   -3.7881 H   0  0  0  0  0  0  0  0  0  0  0  0
   -1.6731   -0.7189   -4.9775 H   0  0  0  0  0  0  0  0  0  0  0  0
   -0.6666   -0.0816   -1.0432 N   0  0  0  0  0  0  0  0  0  0  0  0
    0.1136    0.5607    0.0274 C   0  0  2  0  0  0  0  0  0  0  0  0
    0.1453    2.1110   -0.0127 C   0  0  0  0  0  0  0  0  0  0  0  0
    0.8589    2.7183   -0.8085 O   0  0  0  0  0  0  0  0  0  0  0  0
    1.5412   -0.0114   -0.0871 C   0  0  0  0  0  0  0  0  0  0  0  0
    1.6231   -1.4860    0.2937 C   0  0  0  0  0  0  0  0  0  0  0  0
    0.8047   -1.9368    1.1319 O   0  5  0  0  0  0  0  0  0  0  0  0
    2.4380   -2.1863   -0.3513 O   0  0  0  0  0  0  0  0  0  0  0  0
   -0.2781   -0.9452   -1.4158 H   0  0  0  0  0  0  0  0  0  0  0  0
   -0.3137    0.2795    0.9953 H   0  0  0  0  0  0  0  0  0  0  0  0
    2.2016    0.5374    0.5891 H   0  0  0  0  0  0  0  0  0  0  0  0
    1.9179    0.1268   -1.1051 H   0  0  0  0  0  0  0  0  0  0  0  0
   -0.6049    2.8464    0.8875 N   0  0  0  0  0  0  0  0  0  0  0  0
   -0.7417    4.3065    0.8448 C   0  0  2  0  0  0  0  0  0  0  0  0
   -1.1405    4.9104    2.2070 C   0  0  0  0  0  0  0  0  0  0  0  0
   -1.7827    4.2632    3.0273 O   0  0  0  0  0  0  0  0  0  0  0  0
   -1.7898    4.6643   -0.2144 C   0  0  0  0  0  0  0  0  0  0  0  0
   -1.2758    2.3280    1.4509 H   0  0  0  0  0  0  0  0  0  0  0  0
    0.2194    4.7483    0.5627 H   0  0  0  0  0  0  0  0  0  0  0  0
   -2.7567    4.2196    0.0419 H   0  0  0  0  0  0  0  0  0  0  0  0
   -1.9101    5.7490   -0.2860 H   0  0  0  0  0  0  0  0  0  0  0  0
   -1.4848    4.2857   -1.1950 H   0  0  0  0  0  0  0  0  0  0  0  0
   -0.7957    6.2175    2.5038 N   0  0  0  0  0  0  0  0  0  0  0  0
   -1.1045    6.8603    3.7741 C   0  0  0  0  0  0  0  0  0  0  0  0
   -0.2252    6.7128    1.8251 H   0  0  0  0  0  0  0  0  0  0  0  0
   -2.1835    6.8433    3.9603 H   0  0  0  0  0  0  0  0  0  0  0  0
   -0.5957    6.3464    4.5963 H   0  0  0  0  0  0  0  0  0  0  0  0
   -0.7742    7.9032    3.7584 H   0  0  0  0  0  0  0  0  0  0  0  0
  1  2  2  0  0  0  0
  1  3  1  0  0  0  0
  1  7  1  0  0  0  0
  3  4  1  0  0  0  0
  3  5  1  0  0  0  0
  3  6  1  0  0  0  0
  7  8  1  0  0  0  0
  7 12  1  0  0  0  0
  8  9  1  0  0  0  0
  8 11  1  0  0  0  0
  8 13  1  0  0  0  0
  9 10  2  0  0  0  0
  9 17  1  0  0  0  0
 11 14  1  0  0  0  0
 11 15  1  0  0  0  0
 11 16  1  0  0  0  0
 17 18  1  0  0  0  0
 17 25  1  0  0  0  0
 18 19  1  0  0  0  0
 18 21  1  0  0  0  0
 18 26  1  0  0  0  0
 19 20  2  0  0  0  0
 19 29  1  0  0  0  0
 21 22  1  0  0  0  0
 21 27  1  0  0  0  0
 21 28  1  0  0  0  0
 22 23  1  0  0  0  0
 22 24  2  0  0  0  0
 29 30  1  0  0  0  0
 29 34  1  0  0  0  0
 30 31  1  0  0  0  0
 30 33  1  0  0  0  0
 30 35  1  0  0  0  0
 31 32  2  0  0  0  0
 31 39  1  0  0  0  0
 33 36  1  0  0  0  0
 33 37  1  0  0  0  0
 33 38  1  0  0  0  0
 39 40  1  0  0  0  0
 39 41  1  0  0  0  0
 40 42  1  0  0  0  0
 40 43  1  0  0  0  0
 40 44  1  0  0  0  0
M  CHG  1  23  -1
M  END
$$$$

  -OEChem-05262215553D

 44 43  0     1  0  0  0  0  0999 V2000
   -4.5693   -0.2185   -4.0773 C   0  0  0  0  0  0  0  0  0  0  0  0
   -4.4020   -1.3310   -4.5525 O   0  0  0  0  0  0  0  0  0  0  0  0
   -5.8960    0.4945   -4.2677 C   0  0  0  0  0  0  0  0  0  0  0  0
   -5.7423    1.4298   -4.8116 H   0  0  0  0  0  0  0  0  0  0  0  0
   -6.5858   -0.1354   -4.8361 H   0  0  0  0  0  0  0  0  0  0  0  0
   -6.3420    0.7166   -3.2950 H   0  0  0  0  0  0  0  0  0  0  0  0
   -3.5670    0.3983   -3.3616 N   0  0  0  0  0  0  0  0  0  0  0  0
   -2.3211   -0.2490   -2.9297 C   0  0  2  0  0  0  0  0  0  0  0  0
   -1.7881    0.4009   -1.6333 C   0  0  0  0  0  0  0  0  0  0  0  0
   -2.4058    1.3392   -1.1333 O   0  0  0  0  0  0  0  0  0  0  0  0
   -1.2864   -0.1322   -4.0545 C   0  0  0  0  0  0  0  0  0  0  0  0
   -3.8094    1.2564   -2.8662 H   0  0  0  0  0  0  0  0  0  0  0  0
   -2.5066   -1.3071   -2.7156 H   0  0  0  0  0  0  0  0  0  0  0  0
   -1.0683    0.9199   -4.2652 H   0  0  0  0  0  0  0  0  0  0  0  0
   -0.3537   -0.6313   -3.7736 H   0  0  0  0  0  0  0  0  0  0  0  0
   -1.6639   -0.6012   -4.9684 H   0  0  0  0  0  0  0  0  0  0  0  0
   -0.6741   -0.1213   -1.0039 N   0  0  0  0  0  0  0  0  0  0  0  0
    0.1201    0.5321    0.0488 C   0  0  2  0  0  0  0  0  0  0  0  0
    0.1553    2.0796   -0.0218 C   0  0  0  0  0  0  0  0  0  0  0  0
    0.6523    2.6626   -0.9838 O   0  0  0  0  0  0  0  0  0  0  0  0
    1.5510   -0.0275   -0.0661 C   0  0  0  0  0  0  0  0  0  0  0  0
    1.6522   -1.4959    0.3323 C   0  0  0  0  0  0  0  0  0  0  0  0
    0.8445   -1.9461    1.1807 O   0  5  0  0  0  0  0  0  0  0  0  0
    2.4867   -2.1901   -0.2938 O   0  0  0  0  0  0  0  0  0  0  0  0
   -0.2617   -0.9522   -1.4207 H   0  0  0  0  0  0  0  0  0  0  0  0
   -0.3006    0.2645    1.0235 H   0  0  0  0  0  0  0  0  0  0  0  0
    2.2097    0.5363    0.5994 H   0  0  0  0  0  0  0  0  0  0  0  0
    1.9194    0.1020   -1.0881 H   0  0  0  0  0  0  0  0  0  0  0  0
   -0.3183    2.8369    1.0344 N   0  0  0  0  0  0  0  0  0  0  0  0
   -0.4364    4.2988    1.0125 C   0  0  2  0  0  0  0  0  0  0  0  0
   -0.4473    4.9149    2.4264 C   0  0  0  0  0  0  0  0  0  0  0  0
   -0.8864    4.2902    3.3860 O   0  0  0  0  0  0  0  0  0  0  0  0
   -1.7223    4.6685    0.2655 C   0  0  0  0  0  0  0  0  0  0  0  0
   -0.7697    2.3373    1.7979 H   0  0  0  0  0  0  0  0  0  0  0  0
    0.4220    4.7204    0.4802 H   0  0  0  0  0  0  0  0  0  0  0  0
   -2.5939    4.2440    0.7742 H   0  0  0  0  0  0  0  0  0  0  0  0
   -1.8393    5.7550    0.2164 H   0  0  0  0  0  0  0  0  0  0  0  0
   -1.6949    4.2773   -0.7568 H   0  0  0  0  0  0  0  0  0  0  0  0
    0.0212    6.2027    2.6193 N   0  0  0  0  0  0  0  0  0  0  0  0
    0.0859    6.8445    3.9254 C   0  0  0  0  0  0  0  0  0  0  0  0
    0.4237    6.6757    1.8159 H   0  0  0  0  0  0  0  0  0  0  0  0
   -0.9135    6.9155    4.3668 H   0  0  0  0  0  0  0  0  0  0  0  0
    0.7313    6.2734    4.6009 H   0  0  0  0  0  0  0  0  0  0  0  0
    0.4935    7.8552    3.8286 H   0  0  0  0  0  0  0  0  0  0  0  0
  1  2  2  0  0  0  0
  1  3  1  0  0  0  0
  1  7  1  0  0  0  0
  3  4  1  0  0  0  0
  3  5  1  0  0  0  0
  3  6  1  0  0  0  0
  7  8  1  0  0  0  0
  7 12  1  0  0  0  0
  8  9  1  0  0  0  0
  8 11  1  0  0  0  0
  8 13  1  0  0  0  0
  9 10  2  0  0  0  0
  9 17  1  0  0  0  0
 11 14  1  0  0  0  0
 11 15  1  0  0  0  0
 11 16  1  0  0  0  0
 17 18  1  0  0  0  0
 17 25  1  0  0  0  0
 18 19  1  0  0  0  0
 18 21  1  0  0  0  0
 18 26  1  0  0  0  0
 19 20  2  0  0  0  0
 19 29  1  0  0  0  0
 21 22  1  0  0  0  0
 21 27  1  0  0  0  0
 21 28  1  0  0  0  0
 22 23  1  0  0  0  0
 22 24  2  0  0  0  0
 29 30  1  0  0  0  0
 29 34  1  0  0  0  0
 30 31  1  0  0  0  0
 30 33  1  0  0  0  0
 30 35  1  0  0  0  0
 31 32  2  0  0  0  0
 31 39  1  0  0  0  0
 33 36  1  0  0  0  0
 33 37  1  0  0  0  0
 33 38  1  0  0  0  0
 39 40  1  0  0  0  0
 39 41  1  0  0  0  0
 40 42  1  0  0  0  0
 40 43  1  0  0  0  0
 40 44  1  0  0  0  0
M  CHG  1  23  -1
M  END
$$$$

  -OEChem-05262215553D

 44 43  0     1  0  0  0  0  0999 V2000
   -4.5654   -0.1923   -4.0800 C   0  0  0  0  0  0  0  0  0  0  0  0
   -4.3849   -1.2867   -4.5914 O   0  0  0  0  0  0  0  0  0  0  0  0
   -5.8951    0.5171   -4.2592 C   0  0  0  0  0  0  0  0  0  0  0  0
   -5.7450    1.4593   -4.7917 H   0  0  0  0  0  0  0  0  0  0  0  0
   -6.5832   -0.1084   -4.8344 H   0  0  0  0  0  0  0  0  0  0  0  0
   -6.3401    0.7250   -3.2829 H   0  0  0  0  0  0  0  0  0  0  0  0
   -3.5755    0.4073   -3.3333 N   0  0  0  0  0  0  0  0  0  0  0  0
   -2.3319   -0.2471   -2.9061 C   0  0  2  0  0  0  0  0  0  0  0  0
   -1.8227    0.3599   -1.5798 C   0  0  0  0  0  0  0  0  0  0  0  0
   -2.4715    1.2536   -1.0380 O   0  0  0  0  0  0  0  0  0  0  0  0
   -1.2825   -0.0858   -4.0115 C   0  0  0  0  0  0  0  0  0  0  0  0
   -3.8310    1.2447   -2.8096 H   0  0  0  0  0  0  0  0  0  0  0  0
   -2.5130   -1.3130   -2.7315 H   0  0  0  0  0  0  0  0  0  0  0  0
   -1.0671    0.9740   -4.1819 H   0  0  0  0  0  0  0  0  0  0  0  0
   -0.3514   -0.5897   -3.7346 H   0  0  0  0  0  0  0  0  0  0  0  0
   -1.6442   -0.5245   -4.9466 H   0  0  0  0  0  0  0  0  0  0  0  0
   -0.6976   -0.1576   -0.9657 N   0  0  0  0  0  0  0  0  0  0  0  0
    0.1053    0.5203    0.0651 C   0  0  2  0  0  0  0  0  0  0  0  0
    0.1299    2.0661   -0.0309 C   0  0  0  0  0  0  0  0  0  0  0  0
    0.4137    2.6337   -1.0846 O   0  0  0  0  0  0  0  0  0  0  0  0
    1.5435   -0.0177   -0.0617 C   0  0  0  0  0  0  0  0  0  0  0  0
    1.6771   -1.4781    0.3556 C   0  0  0  0  0  0  0  0  0  0  0  0
    0.8903   -1.9308    1.2220 O   0  5  0  0  0  0  0  0  0  0  0  0
    2.5181   -2.1641   -0.2710 O   0  0  0  0  0  0  0  0  0  0  0  0
   -0.2551   -0.9498   -1.4241 H   0  0  0  0  0  0  0  0  0  0  0  0
   -0.3012    0.2638    1.0488 H   0  0  0  0  0  0  0  0  0  0  0  0
    2.2023    0.5662    0.5862 H   0  0  0  0  0  0  0  0  0  0  0  0
    1.8956    0.1031   -1.0905 H   0  0  0  0  0  0  0  0  0  0  0  0
   -0.0362    2.8374    1.1051 N   0  0  0  0  0  0  0  0  0  0  0  0
   -0.0693    4.3037    1.1099 C   0  0  2  0  0  0  0  0  0  0  0  0
    0.3016    4.9001    2.4827 C   0  0  0  0  0  0  0  0  0  0  0  0
    0.0778    4.2848    3.5195 O   0  0  0  0  0  0  0  0  0  0  0  0
   -1.4734    4.7569    0.6966 C   0  0  0  0  0  0  0  0  0  0  0  0
   -0.2500    2.3530    1.9750 H   0  0  0  0  0  0  0  0  0  0  0  0
    0.6570    4.6824    0.3837 H   0  0  0  0  0  0  0  0  0  0  0  0
   -2.2187    4.3875    1.4080 H   0  0  0  0  0  0  0  0  0  0  0  0
   -1.5303    5.8489    0.6643 H   0  0  0  0  0  0  0  0  0  0  0  0
   -1.7207    4.3685   -0.2968 H   0  0  0  0  0  0  0  0  0  0  0  0
    0.8780    6.1560    2.5545 N   0  0  0  0  0  0  0  0  0  0  0  0
    1.3083    6.7688    3.8037 C   0  0  0  0  0  0  0  0  0  0  0  0
    1.1022    6.6146    1.6766 H   0  0  0  0  0  0  0  0  0  0  0  0
    0.4610    6.8772    4.4887 H   0  0  0  0  0  0  0  0  0  0  0  0
    2.0766    6.1553    4.2854 H   0  0  0  0  0  0  0  0  0  0  0  0
    1.7264    7.7614    3.6121 H   0  0  0  0  0  0  0  0  0  0  0  0
  1  2  2  0  0  0  0
  1  3  1  0  0  0  0
  1  7  1  0  0  0  0
  3  4  1  0  0  0  0
  3  5  1  0  0  0  0
  3  6  1  0  0  0  0
  7  8  1  0  0  0  0
  7 12  1  0  0  0  0
  8  9  1  0  0  0  0
  8 11  1  0  0  0  0
  8 13  1  0  0  0  0
  9 10  2  0  0  0  0
  9 17  1  0  0  0  0
 11 14  1  0  0  0  0
 11 15  1  0  0  0  0
 11 16  1  0  0  0  0
 17 18  1  0  0  0  0
 17 25  1  0  0  0  0
 18 19  1  0  0  0  0
 18 21  1  0  0  0  0
 18 26  1  0  0  0  0
 19 20  2  0  0  0  0
 19 29  1  0  0  0  0
 21 22  1  0  0  0  0
 21 27  1  0  0  0  0
 21 28  1  0  0  0  0
 22 23  1  0  0  0  0
 22 24  2  0  0  0  0
 29 30  1  0  0  0  0
 29 34  1  0  0  0  0
 30 31  1  0  0  0  0
 30 33  1  0  0  0  0
 30 35  1  0  0  0  0
 31 32  2  0  0  0  0
 31 39  1  0  0  0  0
 33 36  1  0  0  0  0
 33 37  1  0  0  0  0
 33 38  1  0  0  0  0
 39 40  1  0  0  0  0
 39 41  1  0  0  0  0
 40 42  1  0  0  0  0
 40 43  1  0  0  0  0
 40 44  1  0  0  0  0
M  CHG  1  23  -1
M  END
$$$$

  -OEChem-05262215553D

 44 43  0     1  0  0  0  0  0999 V2000
   -4.5640   -0.2045   -4.0801 C   0  0  0  0  0  0  0  0  0  0  0  0
   -4.3687   -1.2859   -4.6138 O   0  0  0  0  0  0  0  0  0  0  0  0
   -5.8933    0.5037   -4.2662 C   0  0  0  0  0  0  0  0  0  0  0  0
   -5.7368    1.4610   -4.7692 H   0  0  0  0  0  0  0  0  0  0  0  0
   -6.5664   -0.1086   -4.8726 H   0  0  0  0  0  0  0  0  0  0  0  0
   -6.3583    0.6832   -3.2935 H   0  0  0  0  0  0  0  0  0  0  0  0
   -3.5899    0.3859   -3.3065 N   0  0  0  0  0  0  0  0  0  0  0  0
   -2.3444   -0.2650   -2.8814 C   0  0  2  0  0  0  0  0  0  0  0  0
   -1.8678    0.3019   -1.5255 C   0  0  0  0  0  0  0  0  0  0  0  0
   -2.5579    1.1376   -0.9433 O   0  0  0  0  0  0  0  0  0  0  0  0
   -1.2809   -0.0441   -3.9628 C   0  0  0  0  0  0  0  0  0  0  0  0
   -3.8616    1.2060   -2.7641 H   0  0  0  0  0  0  0  0  0  0  0  0
   -2.5118   -1.3394   -2.7502 H   0  0  0  0  0  0  0  0  0  0  0  0
   -1.0697    1.0242   -4.0769 H   0  0  0  0  0  0  0  0  0  0  0  0
   -0.3505   -0.5559   -3.6986 H   0  0  0  0  0  0  0  0  0  0  0  0
   -1.6276   -0.4372   -4.9234 H   0  0  0  0  0  0  0  0  0  0  0  0
   -0.7228   -0.1894   -0.9274 N   0  0  0  0  0  0  0  0  0  0  0  0
    0.0806    0.5247    0.0787 C   0  0  2  0  0  0  0  0  0  0  0  0
    0.0794    2.0709   -0.0314 C   0  0  0  0  0  0  0  0  0  0  0  0
    0.1542    2.6343   -1.1225 O   0  0  0  0  0  0  0  0  0  0  0  0
    1.5278    0.0182   -0.0743 C   0  0  0  0  0  0  0  0  0  0  0  0
    1.7067   -1.4328    0.3581 C   0  0  0  0  0  0  0  0  0  0  0  0
    0.9524   -1.8941    1.2482 O   0  5  0  0  0  0  0  0  0  0  0  0
    2.5509   -2.1045   -0.2796 O   0  0  0  0  0  0  0  0  0  0  0  0
   -0.2459   -0.9394   -1.4201 H   0  0  0  0  0  0  0  0  0  0  0  0
   -0.3024    0.2716    1.0728 H   0  0  0  0  0  0  0  0  0  0  0  0
    2.1885    0.6243    0.5510 H   0  0  0  0  0  0  0  0  0  0  0  0
    1.8533    0.1349   -1.1124 H   0  0  0  0  0  0  0  0  0  0  0  0
    0.2296    2.8440    1.1065 N   0  0  0  0  0  0  0  0  0  0  0  0
    0.3248    4.3084    1.1109 C   0  0  2  0  0  0  0  0  0  0  0  0
    1.0594    4.8508    2.3539 C   0  0  0  0  0  0  0  0  0  0  0  0
    1.0555    4.2272    3.4096 O   0  0  0  0  0  0  0  0  0  0  0  0
   -1.0931    4.8849    1.0427 C   0  0  0  0  0  0  0  0  0  0  0  0
    0.2662    2.3609    2.0028 H   0  0  0  0  0  0  0  0  0  0  0  0
    0.8888    4.6356    0.2314 H   0  0  0  0  0  0  0  0  0  0  0  0
   -1.6767    4.5657    1.9121 H   0  0  0  0  0  0  0  0  0  0  0  0
   -1.0620    5.9781    1.0244 H   0  0  0  0  0  0  0  0  0  0  0  0
   -1.6016    4.5380    0.1372 H   0  0  0  0  0  0  0  0  0  0  0  0
    1.7149    6.0679    2.2924 N   0  0  0  0  0  0  0  0  0  0  0  0
    2.4731    6.6247    3.4049 C   0  0  0  0  0  0  0  0  0  0  0  0
    1.7487    6.5330    1.3902 H   0  0  0  0  0  0  0  0  0  0  0  0
    1.8295    6.7521    4.2815 H   0  0  0  0  0  0  0  0  0  0  0  0
    3.3043    5.9629    3.6692 H   0  0  0  0  0  0  0  0  0  0  0  0
    2.8813    7.6024    3.1318 H   0  0  0  0  0  0  0  0  0  0  0  0
  1  2  2  0  0  0  0
  1  3  1  0  0  0  0
  1  7  1  0  0  0  0
  3  4  1  0  0  0  0
  3  5  1  0  0  0  0
  3  6  1  0  0  0  0
  7  8  1  0  0  0  0
  7 12  1  0  0  0  0
  8  9  1  0  0  0  0
  8 11  1  0  0  0  0
  8 13  1  0  0  0  0
  9 10  2  0  0  0  0
  9 17  1  0  0  0  0
 11 14  1  0  0  0  0
 11 15  1  0  0  0  0
 11 16  1  0  0  0  0
 17 18  1  0  0  0  0
 17 25  1  0  0  0  0
 18 19  1  0  0  0  0
 18 21  1  0  0  0  0
 18 26  1  0  0  0  0
 19 20  2  0  0  0  0
 19 29  1  0  0  0  0
 21 22  1  0  0  0  0
 21 27  1  0  0  0  0
 21 28  1  0  0  0  0
 22 23  1  0  0  0  0
 22 24  2  0  0  0  0
 29 30  1  0  0  0  0
 29 34  1  0  0  0  0
 30 31  1  0  0  0  0
 30 33  1  0  0  0  0
 30 35  1  0  0  0  0
 31 32  2  0  0  0  0
 31 39  1  0  0  0  0
 33 36  1  0  0  0  0
 33 37  1  0  0  0  0
 33 38  1  0  0  0  0
 39 40  1  0  0  0  0
 39 41  1  0  0  0  0
 40 42  1  0  0  0  0
 40 43  1  0  0  0  0
 40 44  1  0  0  0  0
M  CHG  1  23  -1
M  END
$$$$

  -OEChem-05262215553D

 44 43  0     1  0  0  0  0  0999 V2000
   -4.5519   -0.2018   -4.0856 C   0  0  0  0  0  0  0  0  0  0  0  0
   -4.3345   -1.2612   -4.6537 O   0  0  0  0  0  0  0  0  0  0  0  0
   -5.8872    0.4965   -4.2682 C   0  0  0  0  0  0  0  0  0  0  0  0
   -5.7362    1.4637   -4.7540 H   0  0  0  0  0  0  0  0  0  0  0  0
   -6.5511   -0.1118   -4.8885 H   0  0  0  0  0  0  0  0  0  0  0  0
   -6.3604    0.6553   -3.2960 H   0  0  0  0  0  0  0  0  0  0  0  0
   -3.5972    0.3737   -3.2773 N   0  0  0  0  0  0  0  0  0  0  0  0
   -2.3487   -0.2741   -2.8563 C   0  0  2  0  0  0  0  0  0  0  0  0
   -1.8974    0.2591   -1.4781 C   0  0  0  0  0  0  0  0  0  0  0  0
   -2.6272    1.0309   -0.8578 O   0  0  0  0  0  0  0  0  0  0  0  0
   -1.2742   -0.0089   -3.9172 C   0  0  0  0  0  0  0  0  0  0  0  0
   -3.8890    1.1689   -2.7089 H   0  0  0  0  0  0  0  0  0  0  0  0
   -2.5033   -1.3537   -2.7579 H   0  0  0  0  0  0  0  0  0  0  0  0
   -1.0739    1.0646   -3.9964 H   0  0  0  0  0  0  0  0  0  0  0  0
   -0.3415   -0.5184   -3.6571 H   0  0  0  0  0  0  0  0  0  0  0  0
   -1.6041   -0.3766   -4.8935 H   0  0  0  0  0  0  0  0  0  0  0  0
   -0.7326   -0.2037   -0.8961 N   0  0  0  0  0  0  0  0  0  0  0  0
    0.0670    0.5363    0.0955 C   0  0  2  0  0  0  0  0  0  0  0  0
    0.0400    2.0850   -0.0057 C   0  0  0  0  0  0  0  0  0  0  0  0
   -0.0985    2.6613   -1.0836 O   0  0  0  0  0  0  0  0  0  0  0  0
    1.5214    0.0580   -0.0910 C   0  0  0  0  0  0  0  0  0  0  0  0
    1.7434   -1.3879    0.3383 C   0  0  0  0  0  0  0  0  0  0  0  0
    1.0222   -1.8651    1.2469 O   0  5  0  0  0  0  0  0  0  0  0  0
    2.5888   -2.0396   -0.3184 O   0  0  0  0  0  0  0  0  0  0  0  0
   -0.2296   -0.9146   -1.4192 H   0  0  0  0  0  0  0  0  0  0  0  0
   -0.2923    0.2762    1.0966 H   0  0  0  0  0  0  0  0  0  0  0  0
    2.1879    0.6757    0.5160 H   0  0  0  0  0  0  0  0  0  0  0  0
    1.8185    0.1797   -1.1370 H   0  0  0  0  0  0  0  0  0  0  0  0
    0.4960    2.8430    1.0594 N   0  0  0  0  0  0  0  0  0  0  0  0
    0.6955    4.2970    1.0266 C   0  0  2  0  0  0  0  0  0  0  0  0
    1.7466    4.7738    2.0493 C   0  0  0  0  0  0  0  0  0  0  0  0
    1.9622    4.1355    3.0735 O   0  0  0  0  0  0  0  0  0  0  0  0
   -0.6507    4.9765    1.2963 C   0  0  0  0  0  0  0  0  0  0  0  0
    0.7676    2.3453    1.9063 H   0  0  0  0  0  0  0  0  0  0  0  0
    1.0536    4.5908    0.0348 H   0  0  0  0  0  0  0  0  0  0  0  0
   -1.0294    4.6949    2.2840 H   0  0  0  0  0  0  0  0  0  0  0  0
   -0.5455    6.0647    1.2590 H   0  0  0  0  0  0  0  0  0  0  0  0
   -1.3854    4.6744    0.5431 H   0  0  0  0  0  0  0  0  0  0  0  0
    2.4453    5.9470    1.8248 N   0  0  0  0  0  0  0  0  0  0  0  0
    3.4940    6.4345    2.7107 C   0  0  0  0  0  0  0  0  0  0  0  0
    2.2907    6.4171    0.9379 H   0  0  0  0  0  0  0  0  0  0  0  0
    3.1041    6.5774    3.7239 H   0  0  0  0  0  0  0  0  0  0  0  0
    4.3239    5.7212    2.7485 H   0  0  0  0  0  0  0  0  0  0  0  0
    3.8764    7.3941    2.3502 H   0  0  0  0  0  0  0  0  0  0  0  0
  1  2  2  0  0  0  0
  1  3  1  0  0  0  0
  1  7  1  0  0  0  0
  3  4  1  0  0  0  0
  3  5  1  0  0  0  0
  3  6  1  0  0  0  0
  7  8  1  0  0  0  0
  7 12  1  0  0  0  0
  8  9  1  0  0  0  0
  8 11  1  0  0  0  0
  8 13  1  0  0  0  0
  9 10  2  0  0  0  0
  9 17  1  0  0  0  0
 11 14  1  0  0  0  0
 11 15  1  0  0  0  0
 11 16  1  0  0  0  0
 17 18  1  0  0  0  0
 17 25  1  0  0  0  0
 18 19  1  0  0  0  0
 18 21  1  0  0  0  0
 18 26  1  0  0  0  0
 19 20  2  0  0  0  0
 19 29  1  0  0  0  0
 21 22  1  0  0  0  0
 21 27  1  0  0  0  0
 21 28  1  0  0  0  0
 22 23  1  0  0  0  0
 22 24  2  0  0  0  0
 29 30  1  0  0  0  0
 29 34  1  0  0  0  0
 30 31  1  0  0  0  0
 30 33  1  0  0  0  0
 30 35  1  0  0  0  0
 31 32  2  0  0  0  0
 31 39  1  0  0  0  0
 33 36  1  0  0  0  0
 33 37  1  0  0  0  0
 33 38  1  0  0  0  0
 39 40  1  0  0  0  0
 39 41  1  0  0  0  0
 40 42  1  0  0  0  0
 40 43  1  0  0  0  0
 40 44  1  0  0  0  0
M  CHG  1  23  -1
M  END
$$$$

  -OEChem-05262215553D

 44 43  0     1  0  0  0  0  0999 V2000
   -4.4565   -0.2928   -4.1854 C   0  0  0  0  0  0  0  0  0  0  0  0
   -4.0805   -1.2280   -4.8757 O   0  0  0  0  0  0  0  0  0  0  0  0
   -5.8809    0.2164   -4.3121 C   0  0  0  0  0  0  0  0  0  0  0  0
   -5.8774    1.2934   -4.4967 H   0  0  0  0  0  0  0  0  0  0  0  0
   -6.3881   -0.2821   -5.1423 H   0  0  0  0  0  0  0  0  0  0  0  0
   -6.4306    0.0146   -3.3895 H   0  0  0  0  0  0  0  0  0  0  0  0
   -3.6069    0.3014   -3.2794 N   0  0  0  0  0  0  0  0  0  0  0  0
   -2.2975   -0.2324   -2.8837 C   0  0  2  0  0  0  0  0  0  0  0  0
   -1.9789    0.1545   -1.4224 C   0  0  0  0  0  0  0  0  0  0  0  0
   -2.8552    0.6652   -0.7275 O   0  0  0  0  0  0  0  0  0  0  0  0
   -1.2307    0.3180   -3.8371 C   0  0  0  0  0  0  0  0  0  0  0  0
   -4.0237    0.9572   -2.6181 H   0  0  0  0  0  0  0  0  0  0  0  0
   -2.3052   -1.3262   -2.9409 H   0  0  0  0  0  0  0  0  0  0  0  0
   -1.1791    1.4090   -3.7626 H   0  0  0  0  0  0  0  0  0  0  0  0
   -0.2462   -0.0943   -3.5946 H   0  0  0  0  0  0  0  0  0  0  0  0
   -1.4694    0.0483   -4.8705 H   0  0  0  0  0  0  0  0  0  0  0  0
   -0.7874   -0.2272   -0.8377 N   0  0  0  0  0  0  0  0  0  0  0  0
   -0.0109    0.5623    0.1396 C   0  0  2  0  0  0  0  0  0  0  0  0
   -0.3235    2.0783    0.3174 C   0  0  0  0  0  0  0  0  0  0  0  0
   -0.8772    2.7471   -0.5518 O   0  0  0  0  0  0  0  0  0  0  0  0
    1.4529    0.4097   -0.3345 C   0  0  0  0  0  0  0  0  0  0  0  0
    2.0045   -0.9998   -0.1511 C   0  0  0  0  0  0  0  0  0  0  0  0
    1.5542   -1.7068    0.7815 O   0  5  0  0  0  0  0  0  0  0  0  0
    2.7982   -1.4025   -1.0326 O   0  0  0  0  0  0  0  0  0  0  0  0
   -0.2167   -0.8420   -1.4124 H   0  0  0  0  0  0  0  0  0  0  0  0
   -0.1403    0.1080    1.1274 H   0  0  0  0  0  0  0  0  0  0  0  0
    2.1022    1.0726    0.2419 H   0  0  0  0  0  0  0  0  0  0  0  0
    1.5331    0.7033   -1.3856 H   0  0  0  0  0  0  0  0  0  0  0  0
    0.4085    2.8040    1.2439 N   0  0  0  0  0  0  0  0  0  0  0  0
    0.4589    4.2704    1.3215 C   0  0  2  0  0  0  0  0  0  0  0  0
    1.7529    4.7785    1.9884 C   0  0  0  0  0  0  0  0  0  0  0  0
    2.3624    4.0794    2.7900 O   0  0  0  0  0  0  0  0  0  0  0  0
   -0.7651    4.7618    2.1009 C   0  0  0  0  0  0  0  0  0  0  0  0
    1.0381    2.2796    1.8506 H   0  0  0  0  0  0  0  0  0  0  0  0
    0.4327    4.6882    0.3100 H   0  0  0  0  0  0  0  0  0  0  0  0
   -0.7587    4.3553    3.1172 H   0  0  0  0  0  0  0  0  0  0  0  0
   -0.7679    5.8541    2.1611 H   0  0  0  0  0  0  0  0  0  0  0  0
   -1.6857    4.4411    1.6030 H   0  0  0  0  0  0  0  0  0  0  0  0
    2.2296    6.0439    1.6958 N   0  0  0  0  0  0  0  0  0  0  0  0
    3.4764    6.5715    2.2334 C   0  0  0  0  0  0  0  0  0  0  0  0
    1.7383    6.5709    0.9800 H   0  0  0  0  0  0  0  0  0  0  0  0
    3.4444    6.5883    3.3278 H   0  0  0  0  0  0  0  0  0  0  0  0
    4.3223    5.9538    1.9139 H   0  0  0  0  0  0  0  0  0  0  0  0
    3.6387    7.5931    1.8769 H   0  0  0  0  0  0  0  0  0  0  0  0
  1  2  2  0  0  0  0
  1  3  1  0  0  0  0
  1  7  1  0  0  0  0
  3  4  1  0  0  0  0
  3  5  1  0  0  0  0
  3  6  1  0  0  0  0
  7  8  1  0  0  0  0
  7 12  1  0  0  0  0
  8  9  1  0  0  0  0
  8 11  1  0  0  0  0
  8 13  1  0  0  0  0
  9 10  2  0  0  0  0
  9 17  1  0  0  0  0
 11 14  1  0  0  0  0
 11 15  1  0  0  0  0
 11 16  1  0  0  0  0
 17 18  1  0  0  0  0
 17 25  1  0  0  0  0
 18 19  1  0  0  0  0
 18 21  1  0  0  0  0
 18 26  1  0  0  0  0
 19 20  2  0  0  0  0
 19 29  1  0  0  0  0
 21 22  1  0  0  0  0
 21 27  1  0  0  0  0
 21 28  1  0  0  0  0
 22 23  1  0  0  0  0
 22 24  2  0  0  0  0
 29 30  1  0  0  0  0
 29 34  1  0  0  0  0
 30 31  1  0  0  0  0
 30 33  1  0  0  0  0
 30 35  1  0  0  0  0
 31 32  2  0  0  0  0
 31 39  1  0  0  0  0
 33 36  1  0  0  0  0
 33 37  1  0  0  0  0
 33 38  1  0  0  0  0
 39 40  1  0  0  0  0
 39 41  1  0  0  0  0
 40 42  1  0  0  0  0
 40 43  1  0  0  0  0
 40 44  1  0  0  0  0
M  CHG  1  23  -1
M  END
$$$$

  -OEChem-05262215553D

 44 43  0     1  0  0  0  0  0999 V2000
   -4.4293   -0.2627   -4.2038 C   0  0  0  0  0  0  0  0  0  0  0  0
   -4.0031   -1.1452   -4.9333 O   0  0  0  0  0  0  0  0  0  0  0  0
   -5.8738    0.1876   -4.3252 C   0  0  0  0  0  0  0  0  0  0  0  0
   -5.9132    1.2574   -4.5445 H   0  0  0  0  0  0  0  0  0  0  0  0
   -6.3742   -0.3572   -5.1305 H   0  0  0  0  0  0  0  0  0  0  0  0
   -6.4023   -0.0038   -3.3879 H   0  0  0  0  0  0  0  0  0  0  0  0
   -3.6173    0.3267   -3.2609 N   0  0  0  0  0  0  0  0  0  0  0  0
   -2.2914   -0.1689   -2.8710 C   0  0  2  0  0  0  0  0  0  0  0  0
   -1.9976    0.1785   -1.3947 C   0  0  0  0  0  0  0  0  0  0  0  0
   -2.8963    0.6392   -0.6951 O   0  0  0  0  0  0  0  0  0  0  0  0
   -1.2377    0.4541   -3.7933 C   0  0  0  0  0  0  0  0  0  0  0  0
   -4.0712    0.9306   -2.5748 H   0  0  0  0  0  0  0  0  0  0  0  0
   -2.2578   -1.2592   -2.9669 H   0  0  0  0  0  0  0  0  0  0  0  0
   -1.2281    1.5430   -3.6800 H   0  0  0  0  0  0  0  0  0  0  0  0
   -0.2413    0.0695   -3.5543 H   0  0  0  0  0  0  0  0  0  0  0  0
   -1.4562    0.2128   -4.8379 H   0  0  0  0  0  0  0  0  0  0  0  0
   -0.8123   -0.2181   -0.8078 N   0  0  0  0  0  0  0  0  0  0  0  0
    0.0053    0.5545    0.1522 C   0  0  2  0  0  0  0  0  0  0  0  0
   -0.2308    2.0894    0.3357 C   0  0  0  0  0  0  0  0  0  0  0  0
   -1.0326    2.7405   -0.3252 O   0  0  0  0  0  0  0  0  0  0  0  0
    1.4502    0.3078   -0.3523 C   0  0  0  0  0  0  0  0  0  0  0  0
    1.9273   -1.1271   -0.1532 C   0  0  0  0  0  0  0  0  0  0  0  0
    1.4622   -1.7913    0.8026 O   0  5  0  0  0  0  0  0  0  0  0  0
    2.6700   -1.5895   -1.0496 O   0  0  0  0  0  0  0  0  0  0  0  0
   -0.2632   -0.8523   -1.3823 H   0  0  0  0  0  0  0  0  0  0  0  0
   -0.1283    0.1149    1.1461 H   0  0  0  0  0  0  0  0  0  0  0  0
    2.1578    0.9327    0.1952 H   0  0  0  0  0  0  0  0  0  0  0  0
    1.5235    0.5790   -1.4101 H   0  0  0  0  0  0  0  0  0  0  0  0
    0.7232    2.8500    0.9950 N   0  0  0  0  0  0  0  0  0  0  0  0
    0.7621    4.3186    1.0330 C   0  0  2  0  0  0  0  0  0  0  0  0
    2.1817    4.8642    1.2888 C   0  0  0  0  0  0  0  0  0  0  0  0
    3.0188    4.1870    1.8750 O   0  0  0  0  0  0  0  0  0  0  0  0
   -0.1935    4.8032    2.1282 C   0  0  0  0  0  0  0  0  0  0  0  0
    1.5049    2.3492    1.4166 H   0  0  0  0  0  0  0  0  0  0  0  0
    0.4344    4.7161    0.0671 H   0  0  0  0  0  0  0  0  0  0  0  0
    0.1177    4.4164    3.1038 H   0  0  0  0  0  0  0  0  0  0  0  0
   -0.2040    5.8962    2.1718 H   0  0  0  0  0  0  0  0  0  0  0  0
   -1.2116    4.4565    1.9248 H   0  0  0  0  0  0  0  0  0  0  0  0
    2.5156    6.1409    0.8729 N   0  0  0  0  0  0  0  0  0  0  0  0
    3.8413    6.7186    1.0469 C   0  0  0  0  0  0  0  0  0  0  0  0
    1.8168    6.6572    0.3472 H   0  0  0  0  0  0  0  0  0  0  0  0
    4.0996    6.7703    2.1097 H   0  0  0  0  0  0  0  0  0  0  0  0
    4.5935    6.1142    0.5292 H   0  0  0  0  0  0  0  0  0  0  0  0
    3.8677    7.7318    0.6352 H   0  0  0  0  0  0  0  0  0  0  0  0
  1  2  2  0  0  0  0
  1  3  1  0  0  0  0
  1  7  1  0  0  0  0
  3  4  1  0  0  0  0
  3  5  1  0  0  0  0
  3  6  1  0  0  0  0
  7  8  1  0  0  0  0
  7 12  1  0  0  0  0
  8  9  1  0  0  0  0
  8 11  1  0  0  0  0
  8 13  1  0  0  0  0
  9 10  2  0  0  0  0
  9 17  1  0  0  0  0
 11 14  1  0  0  0  0
 11 15  1  0  0  0  0
 11 16  1  0  0  0  0
 17 18  1  0  0  0  0
 17 25  1  0  0  0  0
 18 19  1  0  0  0  0
 18 21  1  0  0  0  0
 18 26  1  0  0  0  0
 19 20  2  0  0  0  0
 19 29  1  0  0  0  0
 21 22  1  0  0  0  0
 21 27  1  0  0  0  0
 21 28  1  0  0  0  0
 22 23  1  0  0  0  0
 22 24  2  0  0  0  0
 29 30  1  0  0  0  0
 29 34  1  0  0  0  0
 30 31  1  0  0  0  0
 30 33  1  0  0  0  0
 30 35  1  0  0  0  0
 31 32  2  0  0  0  0
 31 39  1  0  0  0  0
 33 36  1  0  0  0  0
 33 37  1  0  0  0  0
 33 38  1  0  0  0  0
 39 40  1  0  0  0  0
 39 41  1  0  0  0  0
 40 42  1  0  0  0  0
 40 43  1  0  0  0  0
 40 44  1  0  0  0  0
M  CHG  1  23  -1
M  END
$$$$

  -OEChem-05262215553D

 44 43  0     1  0  0  0  0  0999 V2000
   -4.6922   -0.0270   -3.8297 C   0  0  0  0  0  0  0  0  0  0  0  0
   -5.0122   -1.1724   -3.5505 O   0  0  0  0  0  0  0  0  0  0  0  0
   -5.7331    0.9396   -4.3647 C   0  0  0  0  0  0  0  0  0  0  0  0
   -5.4374    1.2953   -5.3546 H   0  0  0  0  0  0  0  0  0  0  0  0
   -6.7050    0.4445   -4.4425 H   0  0  0  0  0  0  0  0  0  0  0  0
   -5.8262    1.7952   -3.6914 H   0  0  0  0  0  0  0  0  0  0  0  0
   -3.3938    0.4009   -3.6625 N   0  0  0  0  0  0  0  0  0  0  0  0
   -2.3511   -0.3470   -2.9492 C   0  0  2  0  0  0  0  0  0  0  0  0
   -1.3797    0.6185   -2.2335 C   0  0  0  0  0  0  0  0  0  0  0  0
   -1.3941    1.8040   -2.5485 O   0  0  0  0  0  0  0  0  0  0  0  0
   -1.6049   -1.2266   -3.9579 C   0  0  0  0  0  0  0  0  0  0  0  0
   -3.2148    1.3993   -3.7725 H   0  0  0  0  0  0  0  0  0  0  0  0
   -2.8071   -0.9817   -2.1817 H   0  0  0  0  0  0  0  0  0  0  0  0
   -1.1201   -0.6076   -4.7196 H   0  0  0  0  0  0  0  0  0  0  0  0
   -0.8383   -1.8246   -3.4554 H   0  0  0  0  0  0  0  0  0  0  0  0
   -2.3019   -1.9091   -4.4538 H   0  0  0  0  0  0  0  0  0  0  0  0
   -0.4063    0.1030   -1.3981 N   0  0  0  0  0  0  0  0  0  0  0  0
    0.2320    0.7111   -0.2123 C   0  0  2  0  0  0  0  0  0  0  0  0
    0.0764    2.2396    0.0390 C   0  0  0  0  0  0  0  0  0  0  0  0
   -1.0422    2.7398    0.1106 O   0  0  0  0  0  0  0  0  0  0  0  0
    1.7141    0.2794   -0.3388 C   0  0  0  0  0  0  0  0  0  0  0  0
    1.8965   -1.2213   -0.1228 C   0  0  0  0  0  0  0  0  0  0  0  0
    1.0859   -1.8212    0.6260 O   0  5  0  0  0  0  0  0  0  0  0  0
    2.8229   -1.7767   -0.7567 O   0  0  0  0  0  0  0  0  0  0  0  0
   -0.4022   -0.9150   -1.3577 H   0  0  0  0  0  0  0  0  0  0  0  0
   -0.2043    0.2559    0.6834 H   0  0  0  0  0  0  0  0  0  0  0  0
    2.3228    0.7667    0.4247 H   0  0  0  0  0  0  0  0  0  0  0  0
    2.1061    0.5669   -1.3192 H   0  0  0  0  0  0  0  0  0  0  0  0
    1.0728    2.9536    0.6866 N   0  0  0  0  0  0  0  0  0  0  0  0
    0.9750    4.3700    1.0650 C   0  0  2  0  0  0  0  0  0  0  0  0
    2.2303    5.1713    0.6652 C   0  0  0  0  0  0  0  0  0  0  0  0
    3.3378    4.6453    0.6670 O   0  0  0  0  0  0  0  0  0  0  0  0
    0.7529    4.4396    2.5770 C   0  0  0  0  0  0  0  0  0  0  0  0
    2.0065    2.5473    0.6540 H   0  0  0  0  0  0  0  0  0  0  0  0
    0.1236    4.8369    0.5593 H   0  0  0  0  0  0  0  0  0  0  0  0
    1.5938    3.9828    3.1087 H   0  0  0  0  0  0  0  0  0  0  0  0
    0.6560    5.4796    2.9021 H   0  0  0  0  0  0  0  0  0  0  0  0
   -0.1630    3.9044    2.8475 H   0  0  0  0  0  0  0  0  0  0  0  0
    2.1177    6.5085    0.3275 N   0  0  0  0  0  0  0  0  0  0  0  0
    3.2434    7.3142   -0.1268 C   0  0  0  0  0  0  0  0  0  0  0  0
    1.1785    6.8881    0.2520 H   0  0  0  0  0  0  0  0  0  0  0  0
    4.0400    7.3186    0.6244 H   0  0  0  0  0  0  0  0  0  0  0  0
    3.6444    6.9162   -1.0646 H   0  0  0  0  0  0  0  0  0  0  0  0
    2.9236    8.3466   -0.2959 H   0  0  0  0  0  0  0  0  0  0  0  0
  1  2  2  0  0  0  0
  1  3  1  0  0  0  0
  1  7  1  0  0  0  0
  3  4  1  0  0  0  0
  3  5  1  0  0  0  0
  3  6  1  0  0  0  0
  7  8  1  0  0  0  0
  7 12  1  0  0  0  0
  8  9  1  0  0  0  0
  8 11  1  0  0  0  0
  8 13  1  0  0  0  0
  9 10  2  0  0  0  0
  9 17  1  0  0  0  0
 11 14  1  0  0  0  0
 11 15  1  0  0  0  0
 11 16  1  0  0  0  0
 17 18  1  0  0  0  0
 17 25  1  0  0  0  0
 18 19  1  0  0  0  0
 18 21  1  0  0  0  0
 18 26  1  0  0  0  0
 19 20  2  0  0  0  0
 19 29  1  0  0  0  0
 21 22  1  0  0  0  0
 21 27  1  0  0  0  0
 21 28  1  0  0  0  0
 22 23  1  0  0  0  0
 22 24  2  0  0  0  0
 29 30  1  0  0  0  0
 29 34  1  0  0  0  0
 30 31  1  0  0  0  0
 30 33  1  0  0  0  0
 30 35  1  0  0  0  0
 31 32  2  0  0  0  0
 31 39  1  0  0  0  0
 33 36  1  0  0  0  0
 33 37  1  0  0  0  0
 33 38  1  0  0  0  0
 39 40  1  0  0  0  0
 39 41  1  0  0  0  0
 40 42  1  0  0  0  0
 40 43  1  0  0  0  0
 40 44  1  0  0  0  0
M  CHG  1  23  -1
M  END
$$$$

  -OEChem-05262215553D

 44 43  0     1  0  0  0  0  0999 V2000
   -4.6666   -0.0562   -3.8537 C   0  0  0  0  0  0  0  0  0  0  0  0
   -4.9487   -1.2267   -3.6482 O   0  0  0  0  0  0  0  0  0  0  0  0
   -5.7348    0.9054   -4.3411 C   0  0  0  0  0  0  0  0  0  0  0  0
   -5.4495    1.3172   -5.3122 H   0  0  0  0  0  0  0  0  0  0  0  0
   -6.6922    0.3871   -4.4441 H   0  0  0  0  0  0  0  0  0  0  0  0
   -5.8518    1.7239   -3.6265 H   0  0  0  0  0  0  0  0  0  0  0  0
   -3.3863    0.4055   -3.6437 N   0  0  0  0  0  0  0  0  0  0  0  0
   -2.3248   -0.3498   -2.9665 C   0  0  2  0  0  0  0  0  0  0  0  0
   -1.3902    0.6025   -2.1873 C   0  0  0  0  0  0  0  0  0  0  0  0
   -1.4396    1.8034   -2.4331 O   0  0  0  0  0  0  0  0  0  0  0  0
   -1.5406   -1.1447   -4.0157 C   0  0  0  0  0  0  0  0  0  0  0  0
   -3.2421    1.4145   -3.6904 H   0  0  0  0  0  0  0  0  0  0  0  0
   -2.7658   -1.0428   -2.2419 H   0  0  0  0  0  0  0  0  0  0  0  0
   -1.0766   -0.4674   -4.7396 H   0  0  0  0  0  0  0  0  0  0  0  0
   -0.7533   -1.7382   -3.5401 H   0  0  0  0  0  0  0  0  0  0  0  0
   -2.2079   -1.8265   -4.5518 H   0  0  0  0  0  0  0  0  0  0  0  0
   -0.4333    0.0693   -1.3436 N   0  0  0  0  0  0  0  0  0  0  0  0
    0.2177    0.6766   -0.1658 C   0  0  2  0  0  0  0  0  0  0  0  0
    0.0890    2.2130    0.0387 C   0  0  0  0  0  0  0  0  0  0  0  0
   -1.0105    2.6987    0.2910 O   0  0  0  0  0  0  0  0  0  0  0  0
    1.6903    0.2124   -0.2744 C   0  0  0  0  0  0  0  0  0  0  0  0
    1.8418   -1.2877   -0.0354 C   0  0  0  0  0  0  0  0  0  0  0  0
    1.0156   -1.8625    0.7155 O   0  5  0  0  0  0  0  0  0  0  0  0
    2.7561   -1.8695   -0.6632 O   0  0  0  0  0  0  0  0  0  0  0  0
   -0.4305   -0.9492   -1.3126 H   0  0  0  0  0  0  0  0  0  0  0  0
   -0.2321    0.2499    0.7373 H   0  0  0  0  0  0  0  0  0  0  0  0
    2.2982    0.7007    0.4902 H   0  0  0  0  0  0  0  0  0  0  0  0
    2.0971    0.4771   -1.2553 H   0  0  0  0  0  0  0  0  0  0  0  0
    1.1847    2.9895    0.3807 N   0  0  0  0  0  0  0  0  0  0  0  0
    1.1295    4.4314    0.6544 C   0  0  2  0  0  0  0  0  0  0  0  0
    2.2372    5.2097   -0.0832 C   0  0  0  0  0  0  0  0  0  0  0  0
    3.3502    4.7198   -0.2403 O   0  0  0  0  0  0  0  0  0  0  0  0
    1.2502    4.6314    2.1662 C   0  0  0  0  0  0  0  0  0  0  0  0
    2.0982    2.5891    0.1725 H   0  0  0  0  0  0  0  0  0  0  0  0
    0.1710    4.8401    0.3183 H   0  0  0  0  0  0  0  0  0  0  0  0
    2.2031    4.2338    2.5298 H   0  0  0  0  0  0  0  0  0  0  0  0
    1.1961    5.6949    2.4170 H   0  0  0  0  0  0  0  0  0  0  0  0
    0.4356    4.1112    2.6802 H   0  0  0  0  0  0  0  0  0  0  0  0
    1.9906    6.4905   -0.5445 N   0  0  0  0  0  0  0  0  0  0  0  0
    2.9588    7.2615   -1.3126 C   0  0  0  0  0  0  0  0  0  0  0  0
    1.0337    6.8254   -0.4820 H   0  0  0  0  0  0  0  0  0  0  0  0
    3.8908    7.3767   -0.7496 H   0  0  0  0  0  0  0  0  0  0  0  0
    3.1785    6.7618   -2.2618 H   0  0  0  0  0  0  0  0  0  0  0  0
    2.5614    8.2578   -1.5279 H   0  0  0  0  0  0  0  0  0  0  0  0
  1  2  2  0  0  0  0
  1  3  1  0  0  0  0
  1  7  1  0  0  0  0
  3  4  1  0  0  0  0
  3  5  1  0  0  0  0
  3  6  1  0  0  0  0
  7  8  1  0  0  0  0
  7 12  1  0  0  0  0
  8  9  1  0  0  0  0
  8 11  1  0  0  0  0
  8 13  1  0  0  0  0
  9 10  2  0  0  0  0
  9 17  1  0  0  0  0
 11 14  1  0  0  0  0
 11 15  1  0  0  0  0
 11 16  1  0  0  0  0
 17 18  1  0  0  0  0
 17 25  1  0  0  0  0
 18 19  1  0  0  0  0
 18 21  1  0  0  0  0
 18 26  1  0  0  0  0
 19 20  2  0  0  0  0
 19 29  1  0  0  0  0
 21 22  1  0  0  0  0
 21 27  1  0  0  0  0
 21 28  1  0  0  0  0
 22 23  1  0  0  0  0
 22 24  2  0  0  0  0
 29 30  1  0  0  0  0
 29 34  1  0  0  0  0
 30 31  1  0  0  0  0
 30 33  1  0  0  0  0
 30 35  1  0  0  0  0
 31 32  2  0  0  0  0
 31 39  1  0  0  0  0
 33 36  1  0  0  0  0
 33 37  1  0  0  0  0
 33 38  1  0  0  0  0
 39 40  1  0  0  0  0
 39 41  1  0  0  0  0
 40 42  1  0  0  0  0
 40 43  1  0  0  0  0
 40 44  1  0  0  0  0
M  CHG  1  23  -1
M  END
$$$$

  -OEChem-05262215553D

 44 43  0     1  0  0  0  0  0999 V2000
   -4.6429   -0.0592   -3.9013 C   0  0  0  0  0  0  0  0  0  0  0  0
   -4.9187   -1.2364   -3.7279 O   0  0  0  0  0  0  0  0  0  0  0  0
   -5.7047    0.8999   -4.4086 C   0  0  0  0  0  0  0  0  0  0  0  0
   -5.4234    1.2785   -5.3944 H   0  0  0  0  0  0  0  0  0  0  0  0
   -6.6685    0.3891   -4.4870 H   0  0  0  0  0  0  0  0  0  0  0  0
   -5.8073    1.7413   -3.7186 H   0  0  0  0  0  0  0  0  0  0  0  0
   -3.3752    0.4117   -3.6399 N   0  0  0  0  0  0  0  0  0  0  0  0
   -2.3299   -0.3465   -2.9402 C   0  0  2  0  0  0  0  0  0  0  0  0
   -1.4366    0.5962   -2.1024 C   0  0  0  0  0  0  0  0  0  0  0  0
   -1.5472    1.8073   -2.2641 O   0  0  0  0  0  0  0  0  0  0  0  0
   -1.4976   -1.1057   -3.9789 C   0  0  0  0  0  0  0  0  0  0  0  0
   -3.2459    1.4237   -3.6508 H   0  0  0  0  0  0  0  0  0  0  0  0
   -2.7885   -1.0624   -2.2492 H   0  0  0  0  0  0  0  0  0  0  0  0
   -1.0081   -0.4045   -4.6621 H   0  0  0  0  0  0  0  0  0  0  0  0
   -0.7274   -1.7095   -3.4889 H   0  0  0  0  0  0  0  0  0  0  0  0
   -2.1377   -1.7743   -4.5628 H   0  0  0  0  0  0  0  0  0  0  0  0
   -0.4675    0.0524   -1.2791 N   0  0  0  0  0  0  0  0  0  0  0  0
    0.2168    0.6525   -0.1177 C   0  0  2  0  0  0  0  0  0  0  0  0
    0.1039    2.1898    0.0735 C   0  0  0  0  0  0  0  0  0  0  0  0
   -0.9355    2.6680    0.5205 O   0  0  0  0  0  0  0  0  0  0  0  0
    1.6857    0.1891   -0.2568 C   0  0  0  0  0  0  0  0  0  0  0  0
    1.8455   -1.3106   -0.0240 C   0  0  0  0  0  0  0  0  0  0  0  0
    1.0371   -1.8897    0.7424 O   0  5  0  0  0  0  0  0  0  0  0  0
    2.7431   -1.8888   -0.6786 O   0  0  0  0  0  0  0  0  0  0  0  0
   -0.4372   -0.9663   -1.2799 H   0  0  0  0  0  0  0  0  0  0  0  0
   -0.2139    0.2307    0.7968 H   0  0  0  0  0  0  0  0  0  0  0  0
    2.3036    0.6843    0.4961 H   0  0  0  0  0  0  0  0  0  0  0  0
    2.0726    0.4544   -1.2454 H   0  0  0  0  0  0  0  0  0  0  0  0
    1.2236    3.0054    0.0807 N   0  0  0  0  0  0  0  0  0  0  0  0
    1.1837    4.4636    0.2428 C   0  0  2  0  0  0  0  0  0  0  0  0
    2.0417    5.1893   -0.8131 C   0  0  0  0  0  0  0  0  0  0  0  0
    3.1192    4.7259   -1.1707 O   0  0  0  0  0  0  0  0  0  0  0  0
    1.6708    4.7956    1.6545 C   0  0  0  0  0  0  0  0  0  0  0  0
    2.0713    2.6019   -0.3150 H   0  0  0  0  0  0  0  0  0  0  0  0
    0.1573    4.8264    0.1283 H   0  0  0  0  0  0  0  0  0  0  0  0
    2.6975    4.4435    1.7972 H   0  0  0  0  0  0  0  0  0  0  0  0
    1.6441    5.8762    1.8242 H   0  0  0  0  0  0  0  0  0  0  0  0
    1.0291    4.3111    2.3973 H   0  0  0  0  0  0  0  0  0  0  0  0
    1.6178    6.3970   -1.3387 N   0  0  0  0  0  0  0  0  0  0  0  0
    2.3402    7.1064   -2.3861 C   0  0  0  0  0  0  0  0  0  0  0  0
    0.6771    6.6971   -1.1005 H   0  0  0  0  0  0  0  0  0  0  0  0
    3.3585    7.3403   -2.0581 H   0  0  0  0  0  0  0  0  0  0  0  0
    2.3931    6.4977   -3.2949 H   0  0  0  0  0  0  0  0  0  0  0  0
    1.8313    8.0447   -2.6259 H   0  0  0  0  0  0  0  0  0  0  0  0
  1  2  2  0  0  0  0
  1  3  1  0  0  0  0
  1  7  1  0  0  0  0
  3  4  1  0  0  0  0
  3  5  1  0  0  0  0
  3  6  1  0  0  0  0
  7  8  1  0  0  0  0
  7 12  1  0  0  0  0
  8  9  1  0  0  0  0
  8 11  1  0  0  0  0
  8 13  1  0  0  0  0
  9 10  2  0  0  0  0
  9 17  1  0  0  0  0
 11 14  1  0  0  0  0
 11 15  1  0  0  0  0
 11 16  1  0  0  0  0
 17 18  1  0  0  0  0
 17 25  1  0  0  0  0
 18 19  1  0  0  0  0
 18 21  1  0  0  0  0
 18 26  1  0  0  0  0
 19 20  2  0  0  0  0
 19 29  1  0  0  0  0
 21 22  1  0  0  0  0
 21 27  1  0  0  0  0
 21 28  1  0  0  0  0
 22 23  1  0  0  0  0
 22 24  2  0  0  0  0
 29 30  1  0  0  0  0
 29 34  1  0  0  0  0
 30 31  1  0  0  0  0
 30 33  1  0  0  0  0
 30 35  1  0  0  0  0
 31 32  2  0  0  0  0
 31 39  1  0  0  0  0
 33 36  1  0  0  0  0
 33 37  1  0  0  0  0
 33 38  1  0  0  0  0
 39 40  1  0  0  0  0
 39 41  1  0  0  0  0
 40 42  1  0  0  0  0
 40 43  1  0  0  0  0
 40 44  1  0  0  0  0
M  CHG  1  23  -1
M  END
$$$$

  -OEChem-05262215553D

 44 43  0     1  0  0  0  0  0999 V2000
   -4.2373    0.5695   -4.2954 C   0  0  0  0  0  0  0  0  0  0  0  0
   -4.6535   -0.5721   -4.1742 O   0  0  0  0  0  0  0  0  0  0  0  0
   -5.1039    1.6269   -4.9545 C   0  0  0  0  0  0  0  0  0  0  0  0
   -4.6262    1.9808   -5.8715 H   0  0  0  0  0  0  0  0  0  0  0  0
   -6.0842    1.2111   -5.2033 H   0  0  0  0  0  0  0  0  0  0  0  0
   -5.2423    2.4718   -4.2752 H   0  0  0  0  0  0  0  0  0  0  0  0
   -2.9851    0.9119   -3.8346 N   0  0  0  0  0  0  0  0  0  0  0  0
   -2.1375    0.0524   -2.9981 C   0  0  2  0  0  0  0  0  0  0  0  0
   -1.2686    0.9000   -2.0417 C   0  0  0  0  0  0  0  0  0  0  0  0
   -1.2243    2.1160   -2.2046 O   0  0  0  0  0  0  0  0  0  0  0  0
   -1.2588   -0.8080   -3.9125 C   0  0  0  0  0  0  0  0  0  0  0  0
   -2.7494    1.9040   -3.8276 H   0  0  0  0  0  0  0  0  0  0  0  0
   -2.7652   -0.5999   -2.3810 H   0  0  0  0  0  0  0  0  0  0  0  0
   -0.6091   -0.1746   -4.5246 H   0  0  0  0  0  0  0  0  0  0  0  0
   -0.6314   -1.4826   -3.3214 H   0  0  0  0  0  0  0  0  0  0  0  0
   -1.8821   -1.4145   -4.5768 H   0  0  0  0  0  0  0  0  0  0  0  0
   -0.4895    0.2671   -1.0898 N   0  0  0  0  0  0  0  0  0  0  0  0
    0.1466    0.8292    0.1170 C   0  0  2  0  0  0  0  0  0  0  0  0
    0.2413    2.3735    0.2136 C   0  0  0  0  0  0  0  0  0  0  0  0
   -0.7134    3.0283    0.6170 O   0  0  0  0  0  0  0  0  0  0  0  0
    1.5492    0.1822    0.1626 C   0  0  0  0  0  0  0  0  0  0  0  0
    1.4930   -1.3107    0.4661 C   0  0  0  0  0  0  0  0  0  0  0  0
    0.5411   -1.7486    1.1562 O   0  5  0  0  0  0  0  0  0  0  0  0
    2.3772   -2.0222   -0.0627 O   0  0  0  0  0  0  0  0  0  0  0  0
   -0.5882   -0.7473   -1.0634 H   0  0  0  0  0  0  0  0  0  0  0  0
   -0.4308    0.5227    0.9965 H   0  0  0  0  0  0  0  0  0  0  0  0
    2.1398    0.6431    0.9587 H   0  0  0  0  0  0  0  0  0  0  0  0
    2.0685    0.3423   -0.7871 H   0  0  0  0  0  0  0  0  0  0  0  0
    1.4364    3.0393    0.0052 N   0  0  0  0  0  0  0  0  0  0  0  0
    1.5998    4.4982    0.0956 C   0  0  2  0  0  0  0  0  0  0  0  0
    1.1652    5.2508   -1.1890 C   0  0  0  0  0  0  0  0  0  0  0  0
    1.7017    6.3091   -1.5056 O   0  0  0  0  0  0  0  0  0  0  0  0
    3.0677    4.7562    0.4580 C   0  0  0  0  0  0  0  0  0  0  0  0
    2.1987    2.4807   -0.3679 H   0  0  0  0  0  0  0  0  0  0  0  0
    0.9802    4.8819    0.9127 H   0  0  0  0  0  0  0  0  0  0  0  0
    3.7264    4.4300   -0.3530 H   0  0  0  0  0  0  0  0  0  0  0  0
    3.2351    5.8234    0.6340 H   0  0  0  0  0  0  0  0  0  0  0  0
    3.3361    4.2126    1.3690 H   0  0  0  0  0  0  0  0  0  0  0  0
    0.1747    4.7438   -2.0103 N   0  0  0  0  0  0  0  0  0  0  0  0
   -0.3079    5.4070   -3.2108 C   0  0  0  0  0  0  0  0  0  0  0  0
   -0.2932    3.8827   -1.7068 H   0  0  0  0  0  0  0  0  0  0  0  0
   -0.7645    6.3692   -2.9583 H   0  0  0  0  0  0  0  0  0  0  0  0
    0.5148    5.5761   -3.9127 H   0  0  0  0  0  0  0  0  0  0  0  0
   -1.0601    4.7833   -3.7030 H   0  0  0  0  0  0  0  0  0  0  0  0
  1  2  2  0  0  0  0
  1  3  1  0  0  0  0
  1  7  1  0  0  0  0
  3  4  1  0  0  0  0
  3  5  1  0  0  0  0
  3  6  1  0  0  0  0
  7  8  1  0  0  0  0
  7 12  1  0  0  0  0
  8  9  1  0  0  0  0
  8 11  1  0  0  0  0
  8 13  1  0  0  0  0
  9 10  2  0  0  0  0
  9 17  1  0  0  0  0
 11 14  1  0  0  0  0
 11 15  1  0  0  0  0
 11 16  1  0  0  0  0
 17 18  1  0  0  0  0
 17 25  1  0  0  0  0
 18 19  1  0  0  0  0
 18 21  1  0  0  0  0
 18 26  1  0  0  0  0
 19 20  2  0  0  0  0
 19 29  1  0  0  0  0
 21 22  1  0  0  0  0
 21 27  1  0  0  0  0
 21 28  1  0  0  0  0
 22 23  1  0  0  0  0
 22 24  2  0  0  0  0
 29 30  1  0  0  0  0
 29 34  1  0  0  0  0
 30 31  1  0  0  0  0
 30 33  1  0  0  0  0
 30 35  1  0  0  0  0
 31 32  2  0  0  0  0
 31 39  1  0  0  0  0
 33 36  1  0  0  0  0
 33 37  1  0  0  0  0
 33 38  1  0  0  0  0
 39 40  1  0  0  0  0
 39 41  1  0  0  0  0
 40 42  1  0  0  0  0
 40 43  1  0  0  0  0
 40 44  1  0  0  0  0
M  CHG  1  23  -1
M  END
$$$$

  -OEChem-05262215553D

 44 43  0     1  0  0  0  0  0999 V2000
   -4.2578    0.3614   -4.3934 C   0  0  0  0  0  0  0  0  0  0  0  0
   -4.6526   -0.7848   -4.2463 O   0  0  0  0  0  0  0  0  0  0  0  0
   -5.1141    1.3707   -5.1360 C   0  0  0  0  0  0  0  0  0  0  0  0
   -4.5661    1.7623   -5.9966 H   0  0  0  0  0  0  0  0  0  0  0  0
   -6.0348    0.8982   -5.4896 H   0  0  0  0  0  0  0  0  0  0  0  0
   -5.3743    2.1985   -4.4714 H   0  0  0  0  0  0  0  0  0  0  0  0
   -3.0379    0.7534   -3.8879 N   0  0  0  0  0  0  0  0  0  0  0  0
   -2.2059   -0.0544   -2.9863 C   0  0  2  0  0  0  0  0  0  0  0  0
   -1.3796    0.8485   -2.0429 C   0  0  0  0  0  0  0  0  0  0  0  0
   -1.4099    2.0641   -2.2087 O   0  0  0  0  0  0  0  0  0  0  0  0
   -1.2898   -0.9467   -3.8315 C   0  0  0  0  0  0  0  0  0  0  0  0
   -2.8275    1.7510   -3.9079 H   0  0  0  0  0  0  0  0  0  0  0  0
   -2.8443   -0.6855   -2.3585 H   0  0  0  0  0  0  0  0  0  0  0  0
   -0.6316   -0.3353   -4.4566 H   0  0  0  0  0  0  0  0  0  0  0  0
   -0.6704   -1.5824   -3.1910 H   0  0  0  0  0  0  0  0  0  0  0  0
   -1.8863   -1.5944   -4.4814 H   0  0  0  0  0  0  0  0  0  0  0  0
   -0.5775    0.2706   -1.0761 N   0  0  0  0  0  0  0  0  0  0  0  0
    0.0932    0.8976    0.0783 C   0  0  2  0  0  0  0  0  0  0  0  0
    0.1990    2.4437    0.0831 C   0  0  0  0  0  0  0  0  0  0  0  0
   -0.6309    3.1236    0.6753 O   0  0  0  0  0  0  0  0  0  0  0  0
    1.5009    0.2645    0.1087 C   0  0  0  0  0  0  0  0  0  0  0  0
    1.4699   -1.2113    0.4885 C   0  0  0  0  0  0  0  0  0  0  0  0
    0.5472   -1.6235    1.2316 O   0  5  0  0  0  0  0  0  0  0  0  0
    2.3307   -1.9426   -0.0522 O   0  0  0  0  0  0  0  0  0  0  0  0
   -0.6340   -0.7461   -1.0189 H   0  0  0  0  0  0  0  0  0  0  0  0
   -0.4530    0.6370    0.9920 H   0  0  0  0  0  0  0  0  0  0  0  0
    2.1119    0.7760    0.8572 H   0  0  0  0  0  0  0  0  0  0  0  0
    1.9880    0.3779   -0.8642 H   0  0  0  0  0  0  0  0  0  0  0  0
    1.2865    3.0849   -0.4842 N   0  0  0  0  0  0  0  0  0  0  0  0
    1.5142    4.5377   -0.4475 C   0  0  2  0  0  0  0  0  0  0  0  0
    0.7822    5.3218   -1.5667 C   0  0  0  0  0  0  0  0  0  0  0  0
    1.1635    6.4432   -1.8907 O   0  0  0  0  0  0  0  0  0  0  0  0
    3.0325    4.7445   -0.5012 C   0  0  0  0  0  0  0  0  0  0  0  0
    1.9408    2.4947   -0.9893 H   0  0  0  0  0  0  0  0  0  0  0  0
    1.1522    4.9354    0.5063 H   0  0  0  0  0  0  0  0  0  0  0  0
    3.4321    4.4021   -1.4609 H   0  0  0  0  0  0  0  0  0  0  0  0
    3.2781    5.8042   -0.3800 H   0  0  0  0  0  0  0  0  0  0  0  0
    3.5214    4.1859    0.3031 H   0  0  0  0  0  0  0  0  0  0  0  0
   -0.2921    4.7717   -2.2403 N   0  0  0  0  0  0  0  0  0  0  0  0
   -1.0620    5.4701   -3.2570 C   0  0  0  0  0  0  0  0  0  0  0  0
   -0.6253    3.8569   -1.9172 H   0  0  0  0  0  0  0  0  0  0  0  0
   -1.5306    6.3643   -2.8341 H   0  0  0  0  0  0  0  0  0  0  0  0
   -0.4173    5.7660   -4.0906 H   0  0  0  0  0  0  0  0  0  0  0  0
   -1.8484    4.8148   -3.6433 H   0  0  0  0  0  0  0  0  0  0  0  0
  1  2  2  0  0  0  0
  1  3  1  0  0  0  0
  1  7  1  0  0  0  0
  3  4  1  0  0  0  0
  3  5  1  0  0  0  0
  3  6  1  0  0  0  0
  7  8  1  0  0  0  0
  7 12  1  0  0  0  0
  8  9  1  0  0  0  0
  8 11  1  0  0  0  0
  8 13  1  0  0  0  0
  9 10  2  0  0  0  0
  9 17  1  0  0  0  0
 11 14  1  0  0  0  0
 11 15  1  0  0  0  0
 11 16  1  0  0  0  0
 17 18  1  0  0  0  0
 17 25  1  0  0  0  0
 18 19  1  0  0  0  0
 18 21  1  0  0  0  0
 18 26  1  0  0  0  0
 19 20  2  0  0  0  0
 19 29  1  0  0  0  0
 21 22  1  0  0  0  0
 21 27  1  0  0  0  0
 21 28  1  0  0  0  0
 22 23  1  0  0  0  0
 22 24  2  0  0  0  0
 29 30  1  0  0  0  0
 29 34  1  0  0  0  0
 30 31  1  0  0  0  0
 30 33  1  0  0  0  0
 30 35  1  0  0  0  0
 31 32  2  0  0  0  0
 31 39  1  0  0  0  0
 33 36  1  0  0  0  0
 33 37  1  0  0  0  0
 33 38  1  0  0  0  0
 39 40  1  0  0  0  0
 39 41  1  0  0  0  0
 40 42  1  0  0  0  0
 40 43  1  0  0  0  0
 40 44  1  0  0  0  0
M  CHG  1  23  -1
M  END
$$$$

  -OEChem-05262215553D

 44 43  0     1  0  0  0  0  0999 V2000
   -4.3647    0.1060   -4.3750 C   0  0  0  0  0  0  0  0  0  0  0  0
   -4.6413   -1.0774   -4.2565 O   0  0  0  0  0  0  0  0  0  0  0  0
   -5.3359    1.0461   -5.0658 C   0  0  0  0  0  0  0  0  0  0  0  0
   -4.8508    1.5204   -5.9224 H   0  0  0  0  0  0  0  0  0  0  0  0
   -6.2116    0.4937   -5.4178 H   0  0  0  0  0  0  0  0  0  0  0  0
   -5.6647    1.8205   -4.3682 H   0  0  0  0  0  0  0  0  0  0  0  0
   -3.1803    0.6023   -3.8759 N   0  0  0  0  0  0  0  0  0  0  0  0
   -2.2584   -0.1458   -3.0105 C   0  0  2  0  0  0  0  0  0  0  0  0
   -1.4960    0.8047   -2.0599 C   0  0  0  0  0  0  0  0  0  0  0  0
   -1.6136    2.0164   -2.2116 O   0  0  0  0  0  0  0  0  0  0  0  0
   -1.2813   -0.9307   -3.8929 C   0  0  0  0  0  0  0  0  0  0  0  0
   -3.0647    1.6153   -3.8774 H   0  0  0  0  0  0  0  0  0  0  0  0
   -2.8241   -0.8473   -2.3876 H   0  0  0  0  0  0  0  0  0  0  0  0
   -0.6947   -0.2483   -4.5156 H   0  0  0  0  0  0  0  0  0  0  0  0
   -0.5938   -1.5197   -3.2776 H   0  0  0  0  0  0  0  0  0  0  0  0
   -1.8281   -1.6173   -4.5468 H   0  0  0  0  0  0  0  0  0  0  0  0
   -0.6787    0.2759   -1.0785 N   0  0  0  0  0  0  0  0  0  0  0  0
    0.0037    0.9519    0.0414 C   0  0  2  0  0  0  0  0  0  0  0  0
    0.1116    2.4968   -0.0051 C   0  0  0  0  0  0  0  0  0  0  0  0
   -0.5413    3.1939    0.7623 O   0  0  0  0  0  0  0  0  0  0  0  0
    1.4215    0.3429    0.0581 C   0  0  0  0  0  0  0  0  0  0  0  0
    1.4252   -1.1209    0.4834 C   0  0  0  0  0  0  0  0  0  0  0  0
    0.5275   -1.5254    1.2605 O   0  5  0  0  0  0  0  0  0  0  0  0
    2.2732   -1.8572   -0.0710 O   0  0  0  0  0  0  0  0  0  0  0  0
   -0.6839   -0.7417   -1.0082 H   0  0  0  0  0  0  0  0  0  0  0  0
   -0.5203    0.7152    0.9745 H   0  0  0  0  0  0  0  0  0  0  0  0
    2.0405    0.8899    0.7747 H   0  0  0  0  0  0  0  0  0  0  0  0
    1.8853    0.4350   -0.9284 H   0  0  0  0  0  0  0  0  0  0  0  0
    1.0136    3.1125   -0.8561 N   0  0  0  0  0  0  0  0  0  0  0  0
    1.2872    4.5582   -0.8875 C   0  0  2  0  0  0  0  0  0  0  0  0
    0.3971    5.3492   -1.8774 C   0  0  0  0  0  0  0  0  0  0  0  0
    0.6976    6.4947   -2.2016 O   0  0  0  0  0  0  0  0  0  0  0  0
    2.7768    4.7181   -1.2132 C   0  0  0  0  0  0  0  0  0  0  0  0
    1.5128    2.5010   -1.4947 H   0  0  0  0  0  0  0  0  0  0  0  0
    1.1102    4.9832    0.1061 H   0  0  0  0  0  0  0  0  0  0  0  0
    2.9901    4.3538   -2.2230 H   0  0  0  0  0  0  0  0  0  0  0  0
    3.0688    5.7713   -1.1540 H   0  0  0  0  0  0  0  0  0  0  0  0
    3.3852    4.1537   -0.4996 H   0  0  0  0  0  0  0  0  0  0  0  0
   -0.7187    4.7716   -2.4529 N   0  0  0  0  0  0  0  0  0  0  0  0
   -1.6232    5.4682   -3.3534 C   0  0  0  0  0  0  0  0  0  0  0  0
   -0.9700    3.8297   -2.1336 H   0  0  0  0  0  0  0  0  0  0  0  0
   -2.0759    6.3286   -2.8499 H   0  0  0  0  0  0  0  0  0  0  0  0
   -1.0864    5.8175   -4.2415 H   0  0  0  0  0  0  0  0  0  0  0  0
   -2.4222    4.7931   -3.6745 H   0  0  0  0  0  0  0  0  0  0  0  0
  1  2  2  0  0  0  0
  1  3  1  0  0  0  0
  1  7  1  0  0  0  0
  3  4  1  0  0  0  0
  3  5  1  0  0  0  0
  3  6  1  0  0  0  0
  7  8  1  0  0  0  0
  7 12  1  0  0  0  0
  8  9  1  0  0  0  0
  8 11  1  0  0  0  0
  8 13  1  0  0  0  0
  9 10  2  0  0  0  0
  9 17  1  0  0  0  0
 11 14  1  0  0  0  0
 11 15  1  0  0  0  0
 11 16  1  0  0  0  0
 17 18  1  0  0  0  0
 17 25  1  0  0  0  0
 18 19  1  0  0  0  0
 18 21  1  0  0  0  0
 18 26  1  0  0  0  0
 19 20  2  0  0  0  0
 19 29  1  0  0  0  0
 21 22  1  0  0  0  0
 21 27  1  0  0  0  0
 21 28  1  0  0  0  0
 22 23  1  0  0  0  0
 22 24  2  0  0  0  0
 29 30  1  0  0  0  0
 29 34  1  0  0  0  0
 30 31  1  0  0  0  0
 30 33  1  0  0  0  0
 30 35  1  0  0  0  0
 31 32  2  0  0  0  0
 31 39  1  0  0  0  0
 33 36  1  0  0  0  0
 33 37  1  0  0  0  0
 33 38  1  0  0  0  0
 39 40  1  0  0  0  0
 39 41  1  0  0  0  0
 40 42  1  0  0  0  0
 40 43  1  0  0  0  0
 40 44  1  0  0  0  0
M  CHG  1  23  -1
M  END
$$$$

  -OEChem-05262215553D

 44 43  0     1  0  0  0  0  0999 V2000
   -4.3730   -0.1324   -4.4290 C   0  0  0  0  0  0  0  0  0  0  0  0
   -4.6164   -1.3183   -4.2722 O   0  0  0  0  0  0  0  0  0  0  0  0
   -5.3529    0.7512   -5.1793 C   0  0  0  0  0  0  0  0  0  0  0  0
   -4.8571    1.2127   -6.0368 H   0  0  0  0  0  0  0  0  0  0  0  0
   -6.1993    0.1587   -5.5378 H   0  0  0  0  0  0  0  0  0  0  0  0
   -5.7273    1.5369   -4.5182 H   0  0  0  0  0  0  0  0  0  0  0  0
   -3.2161    0.4187   -3.9229 N   0  0  0  0  0  0  0  0  0  0  0  0
   -2.2901   -0.2693   -3.0126 C   0  0  2  0  0  0  0  0  0  0  0  0
   -1.5875    0.7350   -2.0709 C   0  0  0  0  0  0  0  0  0  0  0  0
   -1.7858    1.9354   -2.2253 O   0  0  0  0  0  0  0  0  0  0  0  0
   -1.2628   -1.0433   -3.8466 C   0  0  0  0  0  0  0  0  0  0  0  0
   -3.1369    1.4346   -3.9542 H   0  0  0  0  0  0  0  0  0  0  0  0
   -2.8458   -0.9737   -2.3834 H   0  0  0  0  0  0  0  0  0  0  0  0
   -0.6823   -0.3580   -4.4722 H   0  0  0  0  0  0  0  0  0  0  0  0
   -0.5731   -1.5919   -3.1972 H   0  0  0  0  0  0  0  0  0  0  0  0
   -1.7678   -1.7657   -4.4955 H   0  0  0  0  0  0  0  0  0  0  0  0
   -0.7480    0.2674   -1.0785 N   0  0  0  0  0  0  0  0  0  0  0  0
   -0.0531    0.9948    0.0020 C   0  0  2  0  0  0  0  0  0  0  0  0
    0.0524    2.5386   -0.0889 C   0  0  0  0  0  0  0  0  0  0  0  0
   -0.3546    3.2462    0.8244 O   0  0  0  0  0  0  0  0  0  0  0  0
    1.3724    0.4073   -0.0012 C   0  0  0  0  0  0  0  0  0  0  0  0
    1.4085   -1.0422    0.4705 C   0  0  0  0  0  0  0  0  0  0  0  0
    0.5385   -1.4341    1.2847 O   0  5  0  0  0  0  0  0  0  0  0  0
    2.2356   -1.7891   -0.1014 O   0  0  0  0  0  0  0  0  0  0  0  0
   -0.6930   -0.7481   -0.9963 H   0  0  0  0  0  0  0  0  0  0  0  0
   -0.5516    0.7809    0.9544 H   0  0  0  0  0  0  0  0  0  0  0  0
    2.0010    0.9857    0.6814 H   0  0  0  0  0  0  0  0  0  0  0  0
    1.8099    0.4782   -1.0016 H   0  0  0  0  0  0  0  0  0  0  0  0
    0.6942    3.1424   -1.1569 N   0  0  0  0  0  0  0  0  0  0  0  0
    0.9669    4.5851   -1.2651 C   0  0  2  0  0  0  0  0  0  0  0  0
   -0.1555    5.3962   -1.9560 C   0  0  0  0  0  0  0  0  0  0  0  0
    0.0166    6.5805   -2.2292 O   0  0  0  0  0  0  0  0  0  0  0  0
    2.2968    4.7295   -2.0116 C   0  0  0  0  0  0  0  0  0  0  0  0
    0.9425    2.5318   -1.9289 H   0  0  0  0  0  0  0  0  0  0  0  0
    1.0922    5.0068   -0.2622 H   0  0  0  0  0  0  0  0  0  0  0  0
    2.2022    4.3614   -3.0379 H   0  0  0  0  0  0  0  0  0  0  0  0
    2.6028    5.7799   -2.0452 H   0  0  0  0  0  0  0  0  0  0  0  0
    3.0810    4.1597   -1.5036 H   0  0  0  0  0  0  0  0  0  0  0  0
   -1.3377    4.7935   -2.3412 N   0  0  0  0  0  0  0  0  0  0  0  0
   -2.4529    5.5001   -2.9505 C   0  0  0  0  0  0  0  0  0  0  0  0
   -1.4562    3.8078   -2.0860 H   0  0  0  0  0  0  0  0  0  0  0  0
   -2.8169    6.2876   -2.2828 H   0  0  0  0  0  0  0  0  0  0  0  0
   -2.1475    5.9513   -3.8998 H   0  0  0  0  0  0  0  0  0  0  0  0
   -3.2740    4.8040   -3.1456 H   0  0  0  0  0  0  0  0  0  0  0  0
  1  2  2  0  0  0  0
  1  3  1  0  0  0  0
  1  7  1  0  0  0  0
  3  4  1  0  0  0  0
  3  5  1  0  0  0  0
  3  6  1  0  0  0  0
  7  8  1  0  0  0  0
  7 12  1  0  0  0  0
  8  9  1  0  0  0  0
  8 11  1  0  0  0  0
  8 13  1  0  0  0  0
  9 10  2  0  0  0  0
  9 17  1  0  0  0  0
 11 14  1  0  0  0  0
 11 15  1  0  0  0  0
 11 16  1  0  0  0  0
 17 18  1  0  0  0  0
 17 25  1  0  0  0  0
 18 19  1  0  0  0  0
 18 21  1  0  0  0  0
 18 26  1  0  0  0  0
 19 20  2  0  0  0  0
 19 29  1  0  0  0  0
 21 22  1  0  0  0  0
 21 27  1  0  0  0  0
 21 28  1  0  0  0  0
 22 23  1  0  0  0  0
 22 24  2  0  0  0  0
 29 30  1  0  0  0  0
 29 34  1  0  0  0  0
 30 31  1  0  0  0  0
 30 33  1  0  0  0  0
 30 35  1  0  0  0  0
 31 32  2  0  0  0  0
 31 39  1  0  0  0  0
 33 36  1  0  0  0  0
 33 37  1  0  0  0  0
 33 38  1  0  0  0  0
 39 40  1  0  0  0  0
 39 41  1  0  0  0  0
 40 42  1  0  0  0  0
 40 43  1  0  0  0  0
 40 44  1  0  0  0  0
M  CHG  1  23  -1
M  END
$$$$

  -OEChem-05262215553D

 44 43  0     1  0  0  0  0  0999 V2000
   -4.3832   -0.3587   -4.4581 C   0  0  0  0  0  0  0  0  0  0  0  0
   -4.6416   -1.5251   -4.2074 O   0  0  0  0  0  0  0  0  0  0  0  0
   -5.3148    0.4528   -5.3399 C   0  0  0  0  0  0  0  0  0  0  0  0
   -4.7667    0.8424   -6.2012 H   0  0  0  0  0  0  0  0  0  0  0  0
   -6.1369   -0.1729   -5.6985 H   0  0  0  0  0  0  0  0  0  0  0  0
   -5.7300    1.2894   -4.7725 H   0  0  0  0  0  0  0  0  0  0  0  0
   -3.2544    0.2361   -3.9376 N   0  0  0  0  0  0  0  0  0  0  0  0
   -2.3740   -0.3758   -2.9323 C   0  0  2  0  0  0  0  0  0  0  0  0
   -1.6922    0.7008   -2.0579 C   0  0  0  0  0  0  0  0  0  0  0  0
   -1.8879    1.8853   -2.3084 O   0  0  0  0  0  0  0  0  0  0  0  0
   -1.3262   -1.2343   -3.6517 C   0  0  0  0  0  0  0  0  0  0  0  0
   -3.1642    1.2440   -4.0591 H   0  0  0  0  0  0  0  0  0  0  0  0
   -2.9642   -1.0132   -2.2646 H   0  0  0  0  0  0  0  0  0  0  0  0
   -0.6999   -0.6122   -4.2984 H   0  0  0  0  0  0  0  0  0  0  0  0
   -0.6816   -1.7444   -2.9288 H   0  0  0  0  0  0  0  0  0  0  0  0
   -1.8152   -1.9955   -4.2677 H   0  0  0  0  0  0  0  0  0  0  0  0
   -0.8600    0.3146   -1.0264 N   0  0  0  0  0  0  0  0  0  0  0  0
   -0.1310    1.1067   -0.0136 C   0  0  2  0  0  0  0  0  0  0  0  0
    0.0486    2.6363   -0.2040 C   0  0  0  0  0  0  0  0  0  0  0  0
   -0.0524    3.3898    0.7562 O   0  0  0  0  0  0  0  0  0  0  0  0
    1.2687    0.4618    0.0093 C   0  0  0  0  0  0  0  0  0  0  0  0
    1.2519   -0.9466    0.5947 C   0  0  0  0  0  0  0  0  0  0  0  0
    0.3798   -1.2338    1.4496 O   0  5  0  0  0  0  0  0  0  0  0  0
    2.0203   -1.7775    0.0575 O   0  0  0  0  0  0  0  0  0  0  0  0
   -0.8042   -0.6931   -0.8725 H   0  0  0  0  0  0  0  0  0  0  0  0
   -0.6267    0.9831    0.9563 H   0  0  0  0  0  0  0  0  0  0  0  0
    1.9326    1.0642    0.6356 H   0  0  0  0  0  0  0  0  0  0  0  0
    1.6910    0.4390   -1.0000 H   0  0  0  0  0  0  0  0  0  0  0  0
    0.4278    3.1775   -1.4201 N   0  0  0  0  0  0  0  0  0  0  0  0
    0.6466    4.6152   -1.6515 C   0  0  2  0  0  0  0  0  0  0  0  0
   -0.6419    5.4170   -1.9533 C   0  0  0  0  0  0  0  0  0  0  0  0
   -0.5820    6.6268   -2.1501 O   0  0  0  0  0  0  0  0  0  0  0  0
    1.6457    4.7340   -2.8057 C   0  0  0  0  0  0  0  0  0  0  0  0
    0.2500    2.5778   -2.2219 H   0  0  0  0  0  0  0  0  0  0  0  0
    1.1004    5.0606   -0.7598 H   0  0  0  0  0  0  0  0  0  0  0  0
    1.2173    4.3282   -3.7274 H   0  0  0  0  0  0  0  0  0  0  0  0
    1.9072    5.7832   -2.9754 H   0  0  0  0  0  0  0  0  0  0  0  0
    2.5625    4.1839   -2.5719 H   0  0  0  0  0  0  0  0  0  0  0  0
   -1.8599    4.7802   -2.1006 N   0  0  0  0  0  0  0  0  0  0  0  0
   -3.1161    5.4692   -2.3482 C   0  0  0  0  0  0  0  0  0  0  0  0
   -1.8699    3.7667   -1.9550 H   0  0  0  0  0  0  0  0  0  0  0  0
   -3.3328    6.1710   -1.5363 H   0  0  0  0  0  0  0  0  0  0  0  0
   -3.0712    6.0206   -3.2929 H   0  0  0  0  0  0  0  0  0  0  0  0
   -3.9339    4.7448   -2.4076 H   0  0  0  0  0  0  0  0  0  0  0  0
  1  2  2  0  0  0  0
  1  3  1  0  0  0  0
  1  7  1  0  0  0  0
  3  4  1  0  0  0  0
  3  5  1  0  0  0  0
  3  6  1  0  0  0  0
  7  8  1  0  0  0  0
  7 12  1  0  0  0  0
  8  9  1  0  0  0  0
  8 11  1  0  0  0  0
  8 13  1  0  0  0  0
  9 10  2  0  0  0  0
  9 17  1  0  0  0  0
 11 14  1  0  0  0  0
 11 15  1  0  0  0  0
 11 16  1  0  0  0  0
 17 18  1  0  0  0  0
 17 25  1  0  0  0  0
 18 19  1  0  0  0  0
 18 21  1  0  0  0  0
 18 26  1  0  0  0  0
 19 20  2  0  0  0  0
 19 29  1  0  0  0  0
 21 22  1  0  0  0  0
 21 27  1  0  0  0  0
 21 28  1  0  0  0  0
 22 23  1  0  0  0  0
 22 24  2  0  0  0  0
 29 30  1  0  0  0  0
 29 34  1  0  0  0  0
 30 31  1  0  0  0  0
 30 33  1  0  0  0  0
 30 35  1  0  0  0  0
 31 32  2  0  0  0  0
 31 39  1  0  0  0  0
 33 36  1  0  0  0  0
 33 37  1  0  0  0  0
 33 38  1  0  0  0  0
 39 40  1  0  0  0  0
 39 41  1  0  0  0  0
 40 42  1  0  0  0  0
 40 43  1  0  0  0  0
 40 44  1  0  0  0  0
M  CHG  1  23  -1
M  END
$$$$

  -OEChem-05262215553D

 44 43  0     1  0  0  0  0  0999 V2000
   -4.1526    0.4093   -4.2416 C   0  0  0  0  0  0  0  0  0  0  0  0
   -4.7184   -0.6742   -4.2637 O   0  0  0  0  0  0  0  0  0  0  0  0
   -4.6937    1.5651   -5.0629 C   0  0  0  0  0  0  0  0  0  0  0  0
   -3.9102    1.9545   -5.7177 H   0  0  0  0  0  0  0  0  0  0  0  0
   -5.5359    1.2341   -5.6764 H   0  0  0  0  0  0  0  0  0  0  0  0
   -5.0294    2.3653   -4.3990 H   0  0  0  0  0  0  0  0  0  0  0  0
   -3.0290    0.6020   -3.4708 N   0  0  0  0  0  0  0  0  0  0  0  0
   -2.5300   -0.3548   -2.4702 C   0  0  2  0  0  0  0  0  0  0  0  0
   -1.9023    0.3959   -1.2744 C   0  0  0  0  0  0  0  0  0  0  0  0
   -2.4217    1.4370   -0.8930 O   0  0  0  0  0  0  0  0  0  0  0  0
   -1.5389   -1.3012   -3.1618 C   0  0  0  0  0  0  0  0  0  0  0  0
   -2.7093    1.5737   -3.3926 H   0  0  0  0  0  0  0  0  0  0  0  0
   -3.3609   -0.9461   -2.0711 H   0  0  0  0  0  0  0  0  0  0  0  0
   -0.6691   -0.7473   -3.5301 H   0  0  0  0  0  0  0  0  0  0  0  0
   -1.1951   -2.0761   -2.4694 H   0  0  0  0  0  0  0  0  0  0  0  0
   -2.0205   -1.7961   -4.0108 H   0  0  0  0  0  0  0  0  0  0  0  0
   -0.7346   -0.0384   -0.6736 N   0  0  0  0  0  0  0  0  0  0  0  0
    0.3320    0.7702   -0.0375 C   0  0  2  0  0  0  0  0  0  0  0  0
    0.3776    2.2999   -0.3124 C   0  0  0  0  0  0  0  0  0  0  0  0
    0.7692    3.0829    0.5469 O   0  0  0  0  0  0  0  0  0  0  0  0
    1.6356    0.1684   -0.5973 C   0  0  0  0  0  0  0  0  0  0  0  0
    1.9149   -1.2405   -0.0861 C   0  0  0  0  0  0  0  0  0  0  0  0
    1.4906   -1.5734    1.0454 O   0  5  0  0  0  0  0  0  0  0  0  0
    2.4140   -2.0324   -0.9189 O   0  0  0  0  0  0  0  0  0  0  0  0
   -0.4442   -0.9812   -0.9282 H   0  0  0  0  0  0  0  0  0  0  0  0
    0.2817    0.6442    1.0500 H   0  0  0  0  0  0  0  0  0  0  0  0
    2.4789    0.7925   -0.2888 H   0  0  0  0  0  0  0  0  0  0  0  0
    1.6079    0.1652   -1.6912 H   0  0  0  0  0  0  0  0  0  0  0  0
   -0.0730    2.8176   -1.5140 N   0  0  0  0  0  0  0  0  0  0  0  0
   -0.5682    4.1846   -1.6791 C   0  0  2  0  0  0  0  0  0  0  0  0
   -1.8763    4.1919   -2.5020 C   0  0  0  0  0  0  0  0  0  0  0  0
   -2.0499    3.3903   -3.4205 O   0  0  0  0  0  0  0  0  0  0  0  0
    0.5145    5.0167   -2.3678 C   0  0  0  0  0  0  0  0  0  0  0  0
   -0.5256    2.1266   -2.1061 H   0  0  0  0  0  0  0  0  0  0  0  0
   -0.7897    4.6215   -0.7000 H   0  0  0  0  0  0  0  0  0  0  0  0
    0.7526    4.5977   -3.3507 H   0  0  0  0  0  0  0  0  0  0  0  0
    0.1770    6.0490   -2.4986 H   0  0  0  0  0  0  0  0  0  0  0  0
    1.4258    5.0229   -1.7613 H   0  0  0  0  0  0  0  0  0  0  0  0
   -2.8653    5.1169   -2.2214 N   0  0  0  0  0  0  0  0  0  0  0  0
   -4.1802    5.0820   -2.8472 C   0  0  0  0  0  0  0  0  0  0  0  0
   -2.7517    5.6499   -1.3640 H   0  0  0  0  0  0  0  0  0  0  0  0
   -4.0892    5.0986   -3.9383 H   0  0  0  0  0  0  0  0  0  0  0  0
   -4.7187    4.1761   -2.5505 H   0  0  0  0  0  0  0  0  0  0  0  0
   -4.7665    5.9528   -2.5391 H   0  0  0  0  0  0  0  0  0  0  0  0
  1  2  2  0  0  0  0
  1  3  1  0  0  0  0
  1  7  1  0  0  0  0
  3  4  1  0  0  0  0
  3  5  1  0  0  0  0
  3  6  1  0  0  0  0
  7  8  1  0  0  0  0
  7 12  1  0  0  0  0
  8  9  1  0  0  0  0
  8 11  1  0  0  0  0
  8 13  1  0  0  0  0
  9 10  2  0  0  0  0
  9 17  1  0  0  0  0
 11 14  1  0  0  0  0
 11 15  1  0  0  0  0
 11 16  1  0  0  0  0
 17 18  1  0  0  0  0
 17 25  1  0  0  0  0
 18 19  1  0  0  0  0
 18 21  1  0  0  0  0
 18 26  1  0  0  0  0
 19 20  2  0  0  0  0
 19 29  1  0  0  0  0
 21 22  1  0  0  0  0
 21 27  1  0  0  0  0
 21 28  1  0  0  0  0
 22 23  1  0  0  0  0
 22 24  2  0  0  0  0
 29 30  1  0  0  0  0
 29 34  1  0  0  0  0
 30 31  1  0  0  0  0
 30 33  1  0  0  0  0
 30 35  1  0  0  0  0
 31 32  2  0  0  0  0
 31 39  1  0  0  0  0
 33 36  1  0  0  0  0
 33 37  1  0  0  0  0
 33 38  1  0  0  0  0
 39 40  1  0  0  0  0
 39 41  1  0  0  0  0
 40 42  1  0  0  0  0
 40 43  1  0  0  0  0
 40 44  1  0  0  0  0
M  CHG  1  23  -1
M  END
$$$$

  -OEChem-05262215553D

 44 43  0     1  0  0  0  0  0999 V2000
   -4.2334    0.0728   -4.1729 C   0  0  0  0  0  0  0  0  0  0  0  0
   -4.5371   -1.0835   -4.4289 O   0  0  0  0  0  0  0  0  0  0  0  0
   -5.0629    1.2176   -4.7244 C   0  0  0  0  0  0  0  0  0  0  0  0
   -4.4392    1.8575   -5.3535 H   0  0  0  0  0  0  0  0  0  0  0  0
   -5.8939    0.8326   -5.3214 H   0  0  0  0  0  0  0  0  0  0  0  0
   -5.4633    1.8146   -3.9010 H   0  0  0  0  0  0  0  0  0  0  0  0
   -3.1439    0.3577   -3.3822 N   0  0  0  0  0  0  0  0  0  0  0  0
   -2.3958   -0.6435   -2.6022 C   0  0  2  0  0  0  0  0  0  0  0  0
   -1.9395   -0.0426   -1.2536 C   0  0  0  0  0  0  0  0  0  0  0  0
   -2.6574    0.7839   -0.7048 O   0  0  0  0  0  0  0  0  0  0  0  0
   -1.2201   -1.1324   -3.4589 C   0  0  0  0  0  0  0  0  0  0  0  0
   -3.0564    1.3399   -3.1002 H   0  0  0  0  0  0  0  0  0  0  0  0
   -3.0410   -1.4966   -2.3674 H   0  0  0  0  0  0  0  0  0  0  0  0
   -0.5328   -0.3082   -3.6757 H   0  0  0  0  0  0  0  0  0  0  0  0
   -0.6671   -1.9246   -2.9444 H   0  0  0  0  0  0  0  0  0  0  0  0
   -1.5880   -1.5364   -4.4072 H   0  0  0  0  0  0  0  0  0  0  0  0
   -0.6915   -0.2966   -0.7175 N   0  0  0  0  0  0  0  0  0  0  0  0
    0.2386    0.6553   -0.0585 C   0  0  2  0  0  0  0  0  0  0  0  0
    0.0251    2.1933   -0.2136 C   0  0  0  0  0  0  0  0  0  0  0  0
    0.6302    2.9871    0.4995 O   0  0  0  0  0  0  0  0  0  0  0  0
    1.6034    0.3123   -0.6905 C   0  0  0  0  0  0  0  0  0  0  0  0
    2.1376   -1.0530   -0.2706 C   0  0  0  0  0  0  0  0  0  0  0  0
    1.8218   -1.5129    0.8523 O   0  5  0  0  0  0  0  0  0  0  0  0
    2.7238   -1.7053   -1.1660 O   0  0  0  0  0  0  0  0  0  0  0  0
   -0.2219   -1.1087   -1.1146 H   0  0  0  0  0  0  0  0  0  0  0  0
    0.2497    0.4534    1.0179 H   0  0  0  0  0  0  0  0  0  0  0  0
    2.3437    1.0510   -0.3712 H   0  0  0  0  0  0  0  0  0  0  0  0
    1.5345    0.3646   -1.7812 H   0  0  0  0  0  0  0  0  0  0  0  0
   -0.8064    2.7168   -1.1843 N   0  0  0  0  0  0  0  0  0  0  0  0
   -1.1967    4.1169   -1.3331 C   0  0  2  0  0  0  0  0  0  0  0  0
   -2.5359    4.2185   -2.1002 C   0  0  0  0  0  0  0  0  0  0  0  0
   -2.9100    3.3169   -2.8510 O   0  0  0  0  0  0  0  0  0  0  0  0
   -0.0955    4.8704   -2.0857 C   0  0  0  0  0  0  0  0  0  0  0  0
   -1.4885    2.0435   -1.5318 H   0  0  0  0  0  0  0  0  0  0  0  0
   -1.3345    4.5620   -0.3424 H   0  0  0  0  0  0  0  0  0  0  0  0
    0.0637    4.4262   -3.0733 H   0  0  0  0  0  0  0  0  0  0  0  0
   -0.3693    5.9215   -2.2140 H   0  0  0  0  0  0  0  0  0  0  0  0
    0.8457    4.8251   -1.5291 H   0  0  0  0  0  0  0  0  0  0  0  0
   -3.3309    5.3414   -1.9565 N   0  0  0  0  0  0  0  0  0  0  0  0
   -4.6367    5.4827   -2.5865 C   0  0  0  0  0  0  0  0  0  0  0  0
   -3.0327    6.0367   -1.2787 H   0  0  0  0  0  0  0  0  0  0  0  0
   -4.5459    5.4179   -3.6758 H   0  0  0  0  0  0  0  0  0  0  0  0
   -5.3153    4.6958   -2.2405 H   0  0  0  0  0  0  0  0  0  0  0  0
   -5.0737    6.4534   -2.3339 H   0  0  0  0  0  0  0  0  0  0  0  0
  1  2  2  0  0  0  0
  1  3  1  0  0  0  0
  1  7  1  0  0  0  0
  3  4  1  0  0  0  0
  3  5  1  0  0  0  0
  3  6  1  0  0  0  0
  7  8  1  0  0  0  0
  7 12  1  0  0  0  0
  8  9  1  0  0  0  0
  8 11  1  0  0  0  0
  8 13  1  0  0  0  0
  9 10  2  0  0  0  0
  9 17  1  0  0  0  0
 11 14  1  0  0  0  0
 11 15  1  0  0  0  0
 11 16  1  0  0  0  0
 17 18  1  0  0  0  0
 17 25  1  0  0  0  0
 18 19  1  0  0  0  0
 18 21  1  0  0  0  0
 18 26  1  0  0  0  0
 19 20  2  0  0  0  0
 19 29  1  0  0  0  0
 21 22  1  0  0  0  0
 21 27  1  0  0  0  0
 21 28  1  0  0  0  0
 22 23  1  0  0  0  0
 22 24  2  0  0  0  0
 29 30  1  0  0  0  0
 29 34  1  0  0  0  0
 30 31  1  0  0  0  0
 30 33  1  0  0  0  0
 30 35  1  0  0  0  0
 31 32  2  0  0  0  0
 31 39  1  0  0  0  0
 33 36  1  0  0  0  0
 33 37  1  0  0  0  0
 33 38  1  0  0  0  0
 39 40  1  0  0  0  0
 39 41  1  0  0  0  0
 40 42  1  0  0  0  0
 40 43  1  0  0  0  0
 40 44  1  0  0  0  0
M  CHG  1  23  -1
M  END
$$$$

  -OEChem-05262215553D

 44 43  0     1  0  0  0  0  0999 V2000
   -4.4003    0.0729   -4.0319 C   0  0  0  0  0  0  0  0  0  0  0  0
   -4.5948   -1.0673   -4.4282 O   0  0  0  0  0  0  0  0  0  0  0  0
   -5.3688    1.1812   -4.4014 C   0  0  0  0  0  0  0  0  0  0  0  0
   -4.8405    1.9705   -4.9418 H   0  0  0  0  0  0  0  0  0  0  0  0
   -6.1702    0.7910   -5.0343 H   0  0  0  0  0  0  0  0  0  0  0  0
   -5.8073    1.6064   -3.4950 H   0  0  0  0  0  0  0  0  0  0  0  0
   -3.3104    0.3698   -3.2458 N   0  0  0  0  0  0  0  0  0  0  0  0
   -2.4410   -0.6394   -2.6155 C   0  0  2  0  0  0  0  0  0  0  0  0
   -2.0340   -0.1918   -1.1935 C   0  0  0  0  0  0  0  0  0  0  0  0
   -2.8182    0.4800   -0.5330 O   0  0  0  0  0  0  0  0  0  0  0  0
   -1.2293   -0.8593   -3.5312 C   0  0  0  0  0  0  0  0  0  0  0  0
   -3.3044    1.3153   -2.8488 H   0  0  0  0  0  0  0  0  0  0  0  0
   -2.9785   -1.5876   -2.5078 H   0  0  0  0  0  0  0  0  0  0  0  0
   -0.6429    0.0609   -3.6213 H   0  0  0  0  0  0  0  0  0  0  0  0
   -0.5828   -1.6499   -3.1375 H   0  0  0  0  0  0  0  0  0  0  0  0
   -1.5612   -1.1589   -4.5301 H   0  0  0  0  0  0  0  0  0  0  0  0
   -0.7708   -0.4166   -0.6829 N   0  0  0  0  0  0  0  0  0  0  0  0
    0.1354    0.5537   -0.0156 C   0  0  2  0  0  0  0  0  0  0  0  0
   -0.1249    2.0923   -0.1256 C   0  0  0  0  0  0  0  0  0  0  0  0
    0.6485    2.8964    0.3847 O   0  0  0  0  0  0  0  0  0  0  0  0
    1.5006    0.2458   -0.6710 C   0  0  0  0  0  0  0  0  0  0  0  0
    2.0698   -1.1122   -0.2745 C   0  0  0  0  0  0  0  0  0  0  0  0
    1.7807   -1.5921    0.8472 O   0  5  0  0  0  0  0  0  0  0  0  0
    2.6530   -1.7420   -1.1880 O   0  0  0  0  0  0  0  0  0  0  0  0
   -0.2657   -1.1637   -1.1562 H   0  0  0  0  0  0  0  0  0  0  0  0
    0.1647    0.3284    1.0559 H   0  0  0  0  0  0  0  0  0  0  0  0
    2.2343    0.9913   -0.3536 H   0  0  0  0  0  0  0  0  0  0  0  0
    1.4169    0.3111   -1.7600 H   0  0  0  0  0  0  0  0  0  0  0  0
   -1.1834    2.6240   -0.8348 N   0  0  0  0  0  0  0  0  0  0  0  0
   -1.4618    4.0318   -1.1177 C   0  0  2  0  0  0  0  0  0  0  0  0
   -2.8713    4.1811   -1.7335 C   0  0  0  0  0  0  0  0  0  0  0  0
   -3.3635    3.2812   -2.4140 O   0  0  0  0  0  0  0  0  0  0  0  0
   -0.4204    4.5819   -2.1009 C   0  0  0  0  0  0  0  0  0  0  0  0
   -1.9446    1.9679   -1.0156 H   0  0  0  0  0  0  0  0  0  0  0  0
   -1.4235    4.6009   -0.1835 H   0  0  0  0  0  0  0  0  0  0  0  0
   -0.4220    3.9948   -3.0248 H   0  0  0  0  0  0  0  0  0  0  0  0
   -0.6411    5.6242   -2.3487 H   0  0  0  0  0  0  0  0  0  0  0  0
    0.5824    4.5396   -1.6659 H   0  0  0  0  0  0  0  0  0  0  0  0
   -3.5888    5.3486   -1.5454 N   0  0  0  0  0  0  0  0  0  0  0  0
   -4.9437    5.5441   -2.0435 C   0  0  0  0  0  0  0  0  0  0  0  0
   -3.1802    6.0532   -0.9386 H   0  0  0  0  0  0  0  0  0  0  0  0
   -4.9689    5.4447   -3.1337 H   0  0  0  0  0  0  0  0  0  0  0  0
   -5.6225    4.8053   -1.6048 H   0  0  0  0  0  0  0  0  0  0  0  0
   -5.3022    6.5436   -1.7796 H   0  0  0  0  0  0  0  0  0  0  0  0
  1  2  2  0  0  0  0
  1  3  1  0  0  0  0
  1  7  1  0  0  0  0
  3  4  1  0  0  0  0
  3  5  1  0  0  0  0
  3  6  1  0  0  0  0
  7  8  1  0  0  0  0
  7 12  1  0  0  0  0
  8  9  1  0  0  0  0
  8 11  1  0  0  0  0
  8 13  1  0  0  0  0
  9 10  2  0  0  0  0
  9 17  1  0  0  0  0
 11 14  1  0  0  0  0
 11 15  1  0  0  0  0
 11 16  1  0  0  0  0
 17 18  1  0  0  0  0
 17 25  1  0  0  0  0
 18 19  1  0  0  0  0
 18 21  1  0  0  0  0
 18 26  1  0  0  0  0
 19 20  2  0  0  0  0
 19 29  1  0  0  0  0
 21 22  1  0  0  0  0
 21 27  1  0  0  0  0
 21 28  1  0  0  0  0
 22 23  1  0  0  0  0
 22 24  2  0  0  0  0
 29 30  1  0  0  0  0
 29 34  1  0  0  0  0
 30 31  1  0  0  0  0
 30 33  1  0  0  0  0
 30 35  1  0  0  0  0
 31 32  2  0  0  0  0
 31 39  1  0  0  0  0
 33 36  1  0  0  0  0
 33 37  1  0  0  0  0
 33 38  1  0  0  0  0
 39 40  1  0  0  0  0
 39 41  1  0  0  0  0
 40 42  1  0  0  0  0
 40 43  1  0  0  0  0
 40 44  1  0  0  0  0
M  CHG  1  23  -1
M  END
$$$$

  -OEChem-05262215553D

 44 43  0     1  0  0  0  0  0999 V2000
   -4.6484   -0.5760   -4.4852 C   0  0  0  0  0  0  0  0  0  0  0  0
   -4.4600   -1.7657   -4.6820 O   0  0  0  0  0  0  0  0  0  0  0  0
   -5.9666    0.0588   -4.8894 C   0  0  0  0  0  0  0  0  0  0  0  0
   -5.7872    0.8788   -5.5892 H   0  0  0  0  0  0  0  0  0  0  0  0
   -6.6108   -0.6818   -5.3715 H   0  0  0  0  0  0  0  0  0  0  0  0
   -6.4785    0.4484   -4.0061 H   0  0  0  0  0  0  0  0  0  0  0  0
   -3.6788    0.1990   -3.8860 N   0  0  0  0  0  0  0  0  0  0  0  0
   -2.4493   -0.3262   -3.2734 C   0  0  2  0  0  0  0  0  0  0  0  0
   -1.9847    0.5533   -2.0893 C   0  0  0  0  0  0  0  0  0  0  0  0
   -2.6291    1.5648   -1.8215 O   0  0  0  0  0  0  0  0  0  0  0  0
   -1.3592   -0.4032   -4.3486 C   0  0  0  0  0  0  0  0  0  0  0  0
   -3.9451    1.1449   -3.6184 H   0  0  0  0  0  0  0  0  0  0  0  0
   -2.6339   -1.3321   -2.8798 H   0  0  0  0  0  0  0  0  0  0  0  0
   -1.1393    0.5934   -4.7441 H   0  0  0  0  0  0  0  0  0  0  0  0
   -0.4373   -0.8250   -3.9347 H   0  0  0  0  0  0  0  0  0  0  0  0
   -1.6850   -1.0429   -5.1748 H   0  0  0  0  0  0  0  0  0  0  0  0
   -0.9167    0.1218   -1.3229 N   0  0  0  0  0  0  0  0  0  0  0  0
   -0.0947    0.7180   -0.2372 C   0  0  2  0  0  0  0  0  0  0  0  0
   -0.0758    2.2446    0.0950 C   0  0  0  0  0  0  0  0  0  0  0  0
    0.7154    2.6802    0.9234 O   0  0  0  0  0  0  0  0  0  0  0  0
    1.3266    0.2798   -0.6646 C   0  0  0  0  0  0  0  0  0  0  0  0
    1.5419   -1.2249   -0.5340 C   0  0  0  0  0  0  0  0  0  0  0  0
    0.8982   -1.8528    0.3404 O   0  5  0  0  0  0  0  0  0  0  0  0
    2.1935   -1.7650   -1.4574 O   0  0  0  0  0  0  0  0  0  0  0  0
   -0.5806   -0.8047   -1.5909 H   0  0  0  0  0  0  0  0  0  0  0  0
   -0.3743    0.2367    0.7063 H   0  0  0  0  0  0  0  0  0  0  0  0
    2.0718    0.7539   -0.0209 H   0  0  0  0  0  0  0  0  0  0  0  0
    1.5278    0.6009   -1.6914 H   0  0  0  0  0  0  0  0  0  0  0  0
   -1.0143    3.1403   -0.3690 N   0  0  0  0  0  0  0  0  0  0  0  0
   -1.2209    4.5213    0.0906 C   0  0  2  0  0  0  0  0  0  0  0  0
   -2.7120    4.9324    0.0531 C   0  0  0  0  0  0  0  0  0  0  0  0
   -3.0537    6.0585    0.3977 O   0  0  0  0  0  0  0  0  0  0  0  0
   -0.3690    5.4442   -0.7866 C   0  0  0  0  0  0  0  0  0  0  0  0
   -1.6508    2.7677   -1.0690 H   0  0  0  0  0  0  0  0  0  0  0  0
   -0.8947    4.6167    1.1318 H   0  0  0  0  0  0  0  0  0  0  0  0
   -0.6875    5.3816   -1.8316 H   0  0  0  0  0  0  0  0  0  0  0  0
   -0.4642    6.4822   -0.4530 H   0  0  0  0  0  0  0  0  0  0  0  0
    0.6855    5.1577   -0.7237 H   0  0  0  0  0  0  0  0  0  0  0  0
   -3.6813    4.0603   -0.4176 N   0  0  0  0  0  0  0  0  0  0  0  0
   -5.0967    4.3902   -0.4964 C   0  0  0  0  0  0  0  0  0  0  0  0
   -3.3758    3.1301   -0.7101 H   0  0  0  0  0  0  0  0  0  0  0  0
   -5.6596    3.5355   -0.8833 H   0  0  0  0  0  0  0  0  0  0  0  0
   -5.4865    4.6413    0.4955 H   0  0  0  0  0  0  0  0  0  0  0  0
   -5.2551    5.2420   -1.1659 H   0  0  0  0  0  0  0  0  0  0  0  0
  1  2  2  0  0  0  0
  1  3  1  0  0  0  0
  1  7  1  0  0  0  0
  3  4  1  0  0  0  0
  3  5  1  0  0  0  0
  3  6  1  0  0  0  0
  7  8  1  0  0  0  0
  7 12  1  0  0  0  0
  8  9  1  0  0  0  0
  8 11  1  0  0  0  0
  8 13  1  0  0  0  0
  9 10  2  0  0  0  0
  9 17  1  0  0  0  0
 11 14  1  0  0  0  0
 11 15  1  0  0  0  0
 11 16  1  0  0  0  0
 17 18  1  0  0  0  0
 17 25  1  0  0  0  0
 18 19  1  0  0  0  0
 18 21  1  0  0  0  0
 18 26  1  0  0  0  0
 19 20  2  0  0  0  0
 19 29  1  0  0  0  0
 21 22  1  0  0  0  0
 21 27  1  0  0  0  0
 21 28  1  0  0  0  0
 22 23  1  0  0  0  0
 22 24  2  0  0  0  0
 29 30  1  0  0  0  0
 29 34  1  0  0  0  0
 30 31  1  0  0  0  0
 30 33  1  0  0  0  0
 30 35  1  0  0  0  0
 31 32  2  0  0  0  0
 31 39  1  0  0  0  0
 33 36  1  0  0  0  0
 33 37  1  0  0  0  0
 33 38  1  0  0  0  0
 39 40  1  0  0  0  0
 39 41  1  0  0  0  0
 40 42  1  0  0  0  0
 40 43  1  0  0  0  0
 40 44  1  0  0  0  0
M  CHG  1  23  -1
M  END
$$$$

  -OEChem-05262215553D

 44 43  0     1  0  0  0  0  0999 V2000
   -3.8930   -1.3476   -5.1337 C   0  0  0  0  0  0  0  0  0  0  0  0
   -3.7338   -2.5456   -4.9614 O   0  0  0  0  0  0  0  0  0  0  0  0
   -4.9899   -0.8559   -6.0608 C   0  0  0  0  0  0  0  0  0  0  0  0
   -4.5584   -0.2449   -6.8574 H   0  0  0  0  0  0  0  0  0  0  0  0
   -5.5131   -1.7043   -6.5109 H   0  0  0  0  0  0  0  0  0  0  0  0
   -5.7105   -0.2553   -5.5000 H   0  0  0  0  0  0  0  0  0  0  0  0
   -3.0917   -0.4325   -4.4858 N   0  0  0  0  0  0  0  0  0  0  0  0
   -2.1396   -0.7643   -3.4158 C   0  0  2  0  0  0  0  0  0  0  0  0
   -2.0071    0.3952   -2.4007 C   0  0  0  0  0  0  0  0  0  0  0  0
   -2.6312    1.4290   -2.6083 O   0  0  0  0  0  0  0  0  0  0  0  0
   -0.7826   -1.0916   -4.0492 C   0  0  0  0  0  0  0  0  0  0  0  0
   -3.3681    0.5464   -4.5465 H   0  0  0  0  0  0  0  0  0  0  0  0
   -2.4958   -1.6405   -2.8629 H   0  0  0  0  0  0  0  0  0  0  0  0
   -0.3926   -0.2236   -4.5900 H   0  0  0  0  0  0  0  0  0  0  0  0
   -0.0572   -1.3790   -3.2810 H   0  0  0  0  0  0  0  0  0  0  0  0
   -0.8831   -1.9250   -4.7518 H   0  0  0  0  0  0  0  0  0  0  0  0
   -1.2261    0.2046   -1.2760 N   0  0  0  0  0  0  0  0  0  0  0  0
   -0.8564    1.0408   -0.1070 C   0  0  2  0  0  0  0  0  0  0  0  0
   -1.0634    2.5908   -0.0581 C   0  0  0  0  0  0  0  0  0  0  0  0
   -0.4060    3.2820    0.7160 O   0  0  0  0  0  0  0  0  0  0  0  0
    0.6431    0.6835    0.0560 C   0  0  0  0  0  0  0  0  0  0  0  0
    0.8553   -0.7534    0.5234 C   0  0  0  0  0  0  0  0  0  0  0  0
   -0.0315   -1.2923    1.2290 O   0  5  0  0  0  0  0  0  0  0  0  0
    1.8206   -1.3648    0.0104 O   0  0  0  0  0  0  0  0  0  0  0  0
   -0.8357   -0.7367   -1.2144 H   0  0  0  0  0  0  0  0  0  0  0  0
   -1.4229    0.6762    0.7564 H   0  0  0  0  0  0  0  0  0  0  0  0
    1.1030    1.3190    0.8163 H   0  0  0  0  0  0  0  0  0  0  0  0
    1.1761    0.8567   -0.8839 H   0  0  0  0  0  0  0  0  0  0  0  0
   -2.0673    3.2653   -0.7243 N   0  0  0  0  0  0  0  0  0  0  0  0
   -2.2414    4.7266   -0.7546 C   0  0  2  0  0  0  0  0  0  0  0  0
   -2.9977    5.2737    0.4824 C   0  0  0  0  0  0  0  0  0  0  0  0
   -3.9371    6.0575    0.3770 O   0  0  0  0  0  0  0  0  0  0  0  0
   -2.9414    5.0603   -2.0770 C   0  0  0  0  0  0  0  0  0  0  0  0
   -2.5816    2.7091   -1.4099 H   0  0  0  0  0  0  0  0  0  0  0  0
   -1.2578    5.2077   -0.7671 H   0  0  0  0  0  0  0  0  0  0  0  0
   -3.9404    4.6141   -2.1047 H   0  0  0  0  0  0  0  0  0  0  0  0
   -3.0398    6.1439   -2.1936 H   0  0  0  0  0  0  0  0  0  0  0  0
   -2.3623    4.6735   -2.9211 H   0  0  0  0  0  0  0  0  0  0  0  0
   -2.5779    4.9024    1.7442 N   0  0  0  0  0  0  0  0  0  0  0  0
   -3.1863    5.3564    2.9849 C   0  0  0  0  0  0  0  0  0  0  0  0
   -1.7612    4.2849    1.7759 H   0  0  0  0  0  0  0  0  0  0  0  0
   -3.0973    6.4434    3.0789 H   0  0  0  0  0  0  0  0  0  0  0  0
   -4.2461    5.0828    3.0139 H   0  0  0  0  0  0  0  0  0  0  0  0
   -2.6858    4.8916    3.8396 H   0  0  0  0  0  0  0  0  0  0  0  0
  1  2  2  0  0  0  0
  1  3  1  0  0  0  0
  1  7  1  0  0  0  0
  3  4  1  0  0  0  0
  3  5  1  0  0  0  0
  3  6  1  0  0  0  0
  7  8  1  0  0  0  0
  7 12  1  0  0  0  0
  8  9  1  0  0  0  0
  8 11  1  0  0  0  0
  8 13  1  0  0  0  0
  9 10  2  0  0  0  0
  9 17  1  0  0  0  0
 11 14  1  0  0  0  0
 11 15  1  0  0  0  0
 11 16  1  0  0  0  0
 17 18  1  0  0  0  0
 17 25  1  0  0  0  0
 18 19  1  0  0  0  0
 18 21  1  0  0  0  0
 18 26  1  0  0  0  0
 19 20  2  0  0  0  0
 19 29  1  0  0  0  0
 21 22  1  0  0  0  0
 21 27  1  0  0  0  0
 21 28  1  0  0  0  0
 22 23  1  0  0  0  0
 22 24  2  0  0  0  0
 29 30  1  0  0  0  0
 29 34  1  0  0  0  0
 30 31  1  0  0  0  0
 30 33  1  0  0  0  0
 30 35  1  0  0  0  0
 31 32  2  0  0  0  0
 31 39  1  0  0  0  0
 33 36  1  0  0  0  0
 33 37  1  0  0  0  0
 33 38  1  0  0  0  0
 39 40  1  0  0  0  0
 39 41  1  0  0  0  0
 40 42  1  0  0  0  0
 40 43  1  0  0  0  0
 40 44  1  0  0  0  0
M  CHG  1  23  -1
M  END
$$$$

  -OEChem-05262215553D

 44 43  0     1  0  0  0  0  0999 V2000
   -3.8673   -1.2266   -5.0950 C   0  0  0  0  0  0  0  0  0  0  0  0
   -3.6555   -2.4266   -5.0214 O   0  0  0  0  0  0  0  0  0  0  0  0
   -4.9803   -0.7057   -5.9860 C   0  0  0  0  0  0  0  0  0  0  0  0
   -4.5684   -0.0364   -6.7452 H   0  0  0  0  0  0  0  0  0  0  0  0
   -5.4863   -1.5369   -6.4850 H   0  0  0  0  0  0  0  0  0  0  0  0
   -5.7108   -0.1578   -5.3859 H   0  0  0  0  0  0  0  0  0  0  0  0
   -3.1135   -0.3340   -4.3643 N   0  0  0  0  0  0  0  0  0  0  0  0
   -2.1561   -0.7085   -3.3138 C   0  0  2  0  0  0  0  0  0  0  0  0
   -2.0657    0.3862   -2.2250 C   0  0  0  0  0  0  0  0  0  0  0  0
   -2.7371    1.4033   -2.3565 O   0  0  0  0  0  0  0  0  0  0  0  0
   -0.7866   -0.9484   -3.9599 C   0  0  0  0  0  0  0  0  0  0  0  0
   -3.4316    0.6342   -4.3502 H   0  0  0  0  0  0  0  0  0  0  0  0
   -2.4872   -1.6309   -2.8234 H   0  0  0  0  0  0  0  0  0  0  0  0
   -0.4190   -0.0313   -4.4311 H   0  0  0  0  0  0  0  0  0  0  0  0
   -0.0567   -1.2721   -3.2107 H   0  0  0  0  0  0  0  0  0  0  0  0
   -0.8599   -1.7290   -4.7237 H   0  0  0  0  0  0  0  0  0  0  0  0
   -1.2730    0.1616   -1.1154 N   0  0  0  0  0  0  0  0  0  0  0  0
   -0.9084    0.9800    0.0660 C   0  0  2  0  0  0  0  0  0  0  0  0
   -1.1490    2.5246    0.1047 C   0  0  0  0  0  0  0  0  0  0  0  0
   -0.3498    3.2841    0.6471 O   0  0  0  0  0  0  0  0  0  0  0  0
    0.5892    0.6281    0.2489 C   0  0  0  0  0  0  0  0  0  0  0  0
    0.8000   -0.8126    0.7050 C   0  0  0  0  0  0  0  0  0  0  0  0
   -0.0960   -1.3617    1.3912 O   0  5  0  0  0  0  0  0  0  0  0  0
    1.7768   -1.4151    0.2037 O   0  0  0  0  0  0  0  0  0  0  0  0
   -0.8461   -0.7653   -1.0988 H   0  0  0  0  0  0  0  0  0  0  0  0
   -1.4809    0.6063    0.9211 H   0  0  0  0  0  0  0  0  0  0  0  0
    1.0314    1.2580    1.0243 H   0  0  0  0  0  0  0  0  0  0  0  0
    1.1364    0.8137   -0.6803 H   0  0  0  0  0  0  0  0  0  0  0  0
   -2.3291    3.1072   -0.3165 N   0  0  0  0  0  0  0  0  0  0  0  0
   -2.5676    4.5580   -0.3946 C   0  0  2  0  0  0  0  0  0  0  0  0
   -2.9937    5.1816    0.9591 C   0  0  0  0  0  0  0  0  0  0  0  0
   -3.9799    5.9065    1.0600 O   0  0  0  0  0  0  0  0  0  0  0  0
   -3.6061    4.7768   -1.5016 C   0  0  0  0  0  0  0  0  0  0  0  0
   -2.8871    2.5092   -0.9306 H   0  0  0  0  0  0  0  0  0  0  0  0
   -1.6439    5.0594   -0.7014 H   0  0  0  0  0  0  0  0  0  0  0  0
   -4.5600    4.3141   -1.2289 H   0  0  0  0  0  0  0  0  0  0  0  0
   -3.7704    5.8466   -1.6630 H   0  0  0  0  0  0  0  0  0  0  0  0
   -3.2592    4.3355   -2.4412 H   0  0  0  0  0  0  0  0  0  0  0  0
   -2.2175    4.9572    2.0787 N   0  0  0  0  0  0  0  0  0  0  0  0
   -2.5032    5.4863    3.4034 C   0  0  0  0  0  0  0  0  0  0  0  0
   -1.3946    4.3635    1.9365 H   0  0  0  0  0  0  0  0  0  0  0  0
   -2.5271    6.5806    3.3821 H   0  0  0  0  0  0  0  0  0  0  0  0
   -3.4693    5.1169    3.7623 H   0  0  0  0  0  0  0  0  0  0  0  0
   -1.7278    5.1708    4.1083 H   0  0  0  0  0  0  0  0  0  0  0  0
  1  2  2  0  0  0  0
  1  3  1  0  0  0  0
  1  7  1  0  0  0  0
  3  4  1  0  0  0  0
  3  5  1  0  0  0  0
  3  6  1  0  0  0  0
  7  8  1  0  0  0  0
  7 12  1  0  0  0  0
  8  9  1  0  0  0  0
  8 11  1  0  0  0  0
  8 13  1  0  0  0  0
  9 10  2  0  0  0  0
  9 17  1  0  0  0  0
 11 14  1  0  0  0  0
 11 15  1  0  0  0  0
 11 16  1  0  0  0  0
 17 18  1  0  0  0  0
 17 25  1  0  0  0  0
 18 19  1  0  0  0  0
 18 21  1  0  0  0  0
 18 26  1  0  0  0  0
 19 20  2  0  0  0  0
 19 29  1  0  0  0  0
 21 22  1  0  0  0  0
 21 27  1  0  0  0  0
 21 28  1  0  0  0  0
 22 23  1  0  0  0  0
 22 24  2  0  0  0  0
 29 30  1  0  0  0  0
 29 34  1  0  0  0  0
 30 31  1  0  0  0  0
 30 33  1  0  0  0  0
 30 35  1  0  0  0  0
 31 32  2  0  0  0  0
 31 39  1  0  0  0  0
 33 36  1  0  0  0  0
 33 37  1  0  0  0  0
 33 38  1  0  0  0  0
 39 40  1  0  0  0  0
 39 41  1  0  0  0  0
 40 42  1  0  0  0  0
 40 43  1  0  0  0  0
 40 44  1  0  0  0  0
M  CHG  1  23  -1
M  END
$$$$

  -OEChem-05262215553D

 44 43  0     1  0  0  0  0  0999 V2000
   -4.4410   -0.8283   -4.3935 C   0  0  0  0  0  0  0  0  0  0  0  0
   -4.1899   -2.0004   -4.6260 O   0  0  0  0  0  0  0  0  0  0  0  0
   -5.8043   -0.2612   -4.7436 C   0  0  0  0  0  0  0  0  0  0  0  0
   -5.6972    0.5326   -5.4870 H   0  0  0  0  0  0  0  0  0  0  0  0
   -6.4469   -1.0456   -5.1530 H   0  0  0  0  0  0  0  0  0  0  0  0
   -6.2771    0.1498   -3.8480 H   0  0  0  0  0  0  0  0  0  0  0  0
   -3.5008   -0.0106   -3.8063 N   0  0  0  0  0  0  0  0  0  0  0  0
   -2.2435   -0.4803   -3.2089 C   0  0  2  0  0  0  0  0  0  0  0  0
   -1.8314    0.4092   -2.0142 C   0  0  0  0  0  0  0  0  0  0  0  0
   -2.4955    1.4087   -1.7660 O   0  0  0  0  0  0  0  0  0  0  0  0
   -1.1527   -0.4757   -4.2851 C   0  0  0  0  0  0  0  0  0  0  0  0
   -3.8188    0.9077   -3.4971 H   0  0  0  0  0  0  0  0  0  0  0  0
   -2.3715   -1.5006   -2.8303 H   0  0  0  0  0  0  0  0  0  0  0  0
   -0.9860    0.5400   -4.6574 H   0  0  0  0  0  0  0  0  0  0  0  0
   -0.2104   -0.8571   -3.8787 H   0  0  0  0  0  0  0  0  0  0  0  0
   -1.4458   -1.1125   -5.1256 H   0  0  0  0  0  0  0  0  0  0  0  0
   -0.7637    0.0248   -1.2263 N   0  0  0  0  0  0  0  0  0  0  0  0
   -0.0902    0.6807   -0.0839 C   0  0  2  0  0  0  0  0  0  0  0  0
   -0.3366    2.1957    0.2021 C   0  0  0  0  0  0  0  0  0  0  0  0
    0.5904    2.9940    0.3181 O   0  0  0  0  0  0  0  0  0  0  0  0
    1.4046    0.3697   -0.3389 C   0  0  0  0  0  0  0  0  0  0  0  0
    1.7367   -1.1088   -0.1601 C   0  0  0  0  0  0  0  0  0  0  0  0
    1.0527   -1.7850    0.6467 O   0  5  0  0  0  0  0  0  0  0  0  0
    2.5737   -1.5923   -0.9572 O   0  0  0  0  0  0  0  0  0  0  0  0
   -0.3520   -0.8731   -1.4799 H   0  0  0  0  0  0  0  0  0  0  0  0
   -0.4127    0.1797    0.8346 H   0  0  0  0  0  0  0  0  0  0  0  0
    2.0222    0.9129    0.3808 H   0  0  0  0  0  0  0  0  0  0  0  0
    1.6923    0.7012   -1.3410 H   0  0  0  0  0  0  0  0  0  0  0  0
   -1.6053    2.6744    0.4748 N   0  0  0  0  0  0  0  0  0  0  0  0
   -1.9229    4.0887    0.7120 C   0  0  2  0  0  0  0  0  0  0  0  0
   -3.2040    4.2904    1.5488 C   0  0  0  0  0  0  0  0  0  0  0  0
   -4.1651    3.5358    1.4460 O   0  0  0  0  0  0  0  0  0  0  0  0
   -2.0693    4.7847   -0.6447 C   0  0  0  0  0  0  0  0  0  0  0  0
   -2.3571    2.0930    0.0961 H   0  0  0  0  0  0  0  0  0  0  0  0
   -1.1014    4.5549    1.2649 H   0  0  0  0  0  0  0  0  0  0  0  0
   -2.8820    4.3291   -1.2198 H   0  0  0  0  0  0  0  0  0  0  0  0
   -2.2893    5.8474   -0.5080 H   0  0  0  0  0  0  0  0  0  0  0  0
   -1.1431    4.6942   -1.2208 H   0  0  0  0  0  0  0  0  0  0  0  0
   -3.2987    5.3783    2.3997 N   0  0  0  0  0  0  0  0  0  0  0  0
   -4.4573    5.6393    3.2434 C   0  0  0  0  0  0  0  0  0  0  0  0
   -2.4726    5.9601    2.5015 H   0  0  0  0  0  0  0  0  0  0  0  0
   -5.3593    5.7511    2.6328 H   0  0  0  0  0  0  0  0  0  0  0  0
   -4.6087    4.8168    3.9502 H   0  0  0  0  0  0  0  0  0  0  0  0
   -4.3091    6.5621    3.8118 H   0  0  0  0  0  0  0  0  0  0  0  0
  1  2  2  0  0  0  0
  1  3  1  0  0  0  0
  1  7  1  0  0  0  0
  3  4  1  0  0  0  0
  3  5  1  0  0  0  0
  3  6  1  0  0  0  0
  7  8  1  0  0  0  0
  7 12  1  0  0  0  0
  8  9  1  0  0  0  0
  8 11  1  0  0  0  0
  8 13  1  0  0  0  0
  9 10  2  0  0  0  0
  9 17  1  0  0  0  0
 11 14  1  0  0  0  0
 11 15  1  0  0  0  0
 11 16  1  0  0  0  0
 17 18  1  0  0  0  0
 17 25  1  0  0  0  0
 18 19  1  0  0  0  0
 18 21  1  0  0  0  0
 18 26  1  0  0  0  0
 19 20  2  0  0  0  0
 19 29  1  0  0  0  0
 21 22  1  0  0  0  0
 21 27  1  0  0  0  0
 21 28  1  0  0  0  0
 22 23  1  0  0  0  0
 22 24  2  0  0  0  0
 29 30  1  0  0  0  0
 29 34  1  0  0  0  0
 30 31  1  0  0  0  0
 30 33  1  0  0  0  0
 30 35  1  0  0  0  0
 31 32  2  0  0  0  0
 31 39  1  0  0  0  0
 33 36  1  0  0  0  0
 33 37  1  0  0  0  0
 33 38  1  0  0  0  0
 39 40  1  0  0  0  0
 39 41  1  0  0  0  0
 40 42  1  0  0  0  0
 40 43  1  0  0  0  0
 40 44  1  0  0  0  0
M  CHG  1  23  -1
M  END
$$$$

  -OEChem-05262215553D

 44 43  0     1  0  0  0  0  0999 V2000
   -4.5185   -0.5954   -4.2648 C   0  0  0  0  0  0  0  0  0  0  0  0
   -4.3036   -1.7566   -4.5754 O   0  0  0  0  0  0  0  0  0  0  0  0
   -5.8670    0.0317   -4.5693 C   0  0  0  0  0  0  0  0  0  0  0  0
   -5.7373    0.8929   -5.2292 H   0  0  0  0  0  0  0  0  0  0  0  0
   -6.5189   -0.6950   -5.0619 H   0  0  0  0  0  0  0  0  0  0  0  0
   -6.3426    0.3607   -3.6420 H   0  0  0  0  0  0  0  0  0  0  0  0
   -3.5502    0.1530   -3.6320 N   0  0  0  0  0  0  0  0  0  0  0  0
   -2.2918   -0.3855   -3.0975 C   0  0  2  0  0  0  0  0  0  0  0  0
   -1.8073    0.4378   -1.8826 C   0  0  0  0  0  0  0  0  0  0  0  0
   -2.4519    1.4234   -1.5411 O   0  0  0  0  0  0  0  0  0  0  0  0
   -1.2381   -0.3787   -4.2103 C   0  0  0  0  0  0  0  0  0  0  0  0
   -3.8326    1.0614   -3.2642 H   0  0  0  0  0  0  0  0  0  0  0  0
   -2.4463   -1.4143   -2.7544 H   0  0  0  0  0  0  0  0  0  0  0  0
   -1.0542    0.6430   -4.5574 H   0  0  0  0  0  0  0  0  0  0  0  0
   -0.2941   -0.7997   -3.8500 H   0  0  0  0  0  0  0  0  0  0  0  0
   -1.5783   -0.9804   -5.0586 H   0  0  0  0  0  0  0  0  0  0  0  0
   -0.7080    0.0062   -1.1648 N   0  0  0  0  0  0  0  0  0  0  0  0
    0.0217    0.6468   -0.0519 C   0  0  2  0  0  0  0  0  0  0  0  0
   -0.2250    2.1608    0.2156 C   0  0  0  0  0  0  0  0  0  0  0  0
    0.6414    3.0109    0.0208 O   0  0  0  0  0  0  0  0  0  0  0  0
    1.5085    0.3516   -0.3570 C   0  0  0  0  0  0  0  0  0  0  0  0
    1.8619   -1.1244   -0.2028 C   0  0  0  0  0  0  0  0  0  0  0  0
    1.2110   -1.8145    0.6195 O   0  5  0  0  0  0  0  0  0  0  0  0
    2.6928   -1.5896   -1.0173 O   0  0  0  0  0  0  0  0  0  0  0  0
   -0.3012   -0.8738   -1.4796 H   0  0  0  0  0  0  0  0  0  0  0  0
   -0.2607    0.1467    0.8804 H   0  0  0  0  0  0  0  0  0  0  0  0
    2.1391    0.9021    0.3460 H   0  0  0  0  0  0  0  0  0  0  0  0
    1.7587    0.6918   -1.3664 H   0  0  0  0  0  0  0  0  0  0  0  0
   -1.3992    2.5753    0.8192 N   0  0  0  0  0  0  0  0  0  0  0  0
   -1.7459    3.9805    1.0647 C   0  0  2  0  0  0  0  0  0  0  0  0
   -2.8316    4.1542    2.1478 C   0  0  0  0  0  0  0  0  0  0  0  0
   -3.6585    3.2772    2.3746 O   0  0  0  0  0  0  0  0  0  0  0  0
   -2.2247    4.6056   -0.2505 C   0  0  0  0  0  0  0  0  0  0  0  0
   -2.1745    1.9178    0.7408 H   0  0  0  0  0  0  0  0  0  0  0  0
   -0.8534    4.5113    1.4109 H   0  0  0  0  0  0  0  0  0  0  0  0
   -3.1152    4.0847   -0.6167 H   0  0  0  0  0  0  0  0  0  0  0  0
   -2.4709    5.6614   -0.1061 H   0  0  0  0  0  0  0  0  0  0  0  0
   -1.4444    4.5344   -1.0147 H   0  0  0  0  0  0  0  0  0  0  0  0
   -2.9075    5.3429    2.8530 N   0  0  0  0  0  0  0  0  0  0  0  0
   -3.8982    5.6016    3.8890 C   0  0  0  0  0  0  0  0  0  0  0  0
   -2.1919    6.0390    2.6679 H   0  0  0  0  0  0  0  0  0  0  0  0
   -4.9110    5.4747    3.4920 H   0  0  0  0  0  0  0  0  0  0  0  0
   -3.7591    4.9150    4.7303 H   0  0  0  0  0  0  0  0  0  0  0  0
   -3.7986    6.6270    4.2571 H   0  0  0  0  0  0  0  0  0  0  0  0
  1  2  2  0  0  0  0
  1  3  1  0  0  0  0
  1  7  1  0  0  0  0
  3  4  1  0  0  0  0
  3  5  1  0  0  0  0
  3  6  1  0  0  0  0
  7  8  1  0  0  0  0
  7 12  1  0  0  0  0
  8  9  1  0  0  0  0
  8 11  1  0  0  0  0
  8 13  1  0  0  0  0
  9 10  2  0  0  0  0
  9 17  1  0  0  0  0
 11 14  1  0  0  0  0
 11 15  1  0  0  0  0
 11 16  1  0  0  0  0
 17 18  1  0  0  0  0
 17 25  1  0  0  0  0
 18 19  1  0  0  0  0
 18 21  1  0  0  0  0
 18 26  1  0  0  0  0
 19 20  2  0  0  0  0
 19 29  1  0  0  0  0
 21 22  1  0  0  0  0
 21 27  1  0  0  0  0
 21 28  1  0  0  0  0
 22 23  1  0  0  0  0
 22 24  2  0  0  0  0
 29 30  1  0  0  0  0
 29 34  1  0  0  0  0
 30 31  1  0  0  0  0
 30 33  1  0  0  0  0
 30 35  1  0  0  0  0
 31 32  2  0  0  0  0
 31 39  1  0  0  0  0
 33 36  1  0  0  0  0
 33 37  1  0  0  0  0
 33 38  1  0  0  0  0
 39 40  1  0  0  0  0
 39 41  1  0  0  0  0
 40 42  1  0  0  0  0
 40 43  1  0  0  0  0
 40 44  1  0  0  0  0
M  CHG  1  23  -1
M  END
$$$$

  -OEChem-05262215553D

 44 43  0     1  0  0  0  0  0999 V2000
   -4.5345   -0.4561   -4.2121 C   0  0  0  0  0  0  0  0  0  0  0  0
   -4.3383   -1.6050   -4.5764 O   0  0  0  0  0  0  0  0  0  0  0  0
   -5.8708    0.2087   -4.4881 C   0  0  0  0  0  0  0  0  0  0  0  0
   -5.7232    1.1011   -5.1014 H   0  0  0  0  0  0  0  0  0  0  0  0
   -6.5333   -0.4796   -5.0205 H   0  0  0  0  0  0  0  0  0  0  0  0
   -6.3443    0.4970   -3.5461 H   0  0  0  0  0  0  0  0  0  0  0  0
   -3.5572    0.2457   -3.5418 N   0  0  0  0  0  0  0  0  0  0  0  0
   -2.3058   -0.3332   -3.0348 C   0  0  2  0  0  0  0  0  0  0  0  0
   -1.8184    0.4212   -1.7771 C   0  0  0  0  0  0  0  0  0  0  0  0
   -2.4696    1.3779   -1.3690 O   0  0  0  0  0  0  0  0  0  0  0  0
   -1.2505   -0.2723   -4.1445 C   0  0  0  0  0  0  0  0  0  0  0  0
   -3.8284    1.1373   -3.1276 H   0  0  0  0  0  0  0  0  0  0  0  0
   -2.4693   -1.3778   -2.7485 H   0  0  0  0  0  0  0  0  0  0  0  0
   -1.0520    0.7665   -4.4270 H   0  0  0  0  0  0  0  0  0  0  0  0
   -0.3126   -0.7274   -3.8105 H   0  0  0  0  0  0  0  0  0  0  0  0
   -1.5982   -0.8148   -5.0289 H   0  0  0  0  0  0  0  0  0  0  0  0
   -0.7054   -0.0352   -1.0969 N   0  0  0  0  0  0  0  0  0  0  0  0
    0.0585    0.6160   -0.0162 C   0  0  2  0  0  0  0  0  0  0  0  0
   -0.1844    2.1342    0.2078 C   0  0  0  0  0  0  0  0  0  0  0  0
    0.5290    2.9925   -0.3074 O   0  0  0  0  0  0  0  0  0  0  0  0
    1.5389    0.3270   -0.3485 C   0  0  0  0  0  0  0  0  0  0  0  0
    1.9059   -1.1446   -0.1840 C   0  0  0  0  0  0  0  0  0  0  0  0
    1.2770   -1.8283    0.6605 O   0  5  0  0  0  0  0  0  0  0  0  0
    2.7307   -1.6129   -1.0027 O   0  0  0  0  0  0  0  0  0  0  0  0
   -0.2853   -0.8889   -1.4604 H   0  0  0  0  0  0  0  0  0  0  0  0
   -0.1975    0.1342    0.9331 H   0  0  0  0  0  0  0  0  0  0  0  0
    2.1783    0.8972    0.3301 H   0  0  0  0  0  0  0  0  0  0  0  0
    1.7633    0.6519   -1.3689 H   0  0  0  0  0  0  0  0  0  0  0  0
   -1.1719    2.5517    1.0830 N   0  0  0  0  0  0  0  0  0  0  0  0
   -1.5397    3.9546    1.3081 C   0  0  2  0  0  0  0  0  0  0  0  0
   -2.2795    4.1726    2.6445 C   0  0  0  0  0  0  0  0  0  0  0  0
   -2.8909    3.2608    3.1916 O   0  0  0  0  0  0  0  0  0  0  0  0
   -2.4202    4.4256    0.1451 C   0  0  0  0  0  0  0  0  0  0  0  0
   -1.8315    1.8403    1.3906 H   0  0  0  0  0  0  0  0  0  0  0  0
   -0.6288    4.5608    1.3371 H   0  0  0  0  0  0  0  0  0  0  0  0
   -3.3385    3.8317    0.0986 H   0  0  0  0  0  0  0  0  0  0  0  0
   -2.6895    5.4784    0.2682 H   0  0  0  0  0  0  0  0  0  0  0  0
   -1.8893    4.3147   -0.8056 H   0  0  0  0  0  0  0  0  0  0  0  0
   -2.2827    5.4267    3.2301 N   0  0  0  0  0  0  0  0  0  0  0  0
   -2.9407    5.7197    4.4962 C   0  0  0  0  0  0  0  0  0  0  0  0
   -1.7432    6.1552    2.7725 H   0  0  0  0  0  0  0  0  0  0  0  0
   -4.0099    5.4922    4.4336 H   0  0  0  0  0  0  0  0  0  0  0  0
   -2.4991    5.1256    5.3030 H   0  0  0  0  0  0  0  0  0  0  0  0
   -2.8275    6.7793    4.7439 H   0  0  0  0  0  0  0  0  0  0  0  0
  1  2  2  0  0  0  0
  1  3  1  0  0  0  0
  1  7  1  0  0  0  0
  3  4  1  0  0  0  0
  3  5  1  0  0  0  0
  3  6  1  0  0  0  0
  7  8  1  0  0  0  0
  7 12  1  0  0  0  0
  8  9  1  0  0  0  0
  8 11  1  0  0  0  0
  8 13  1  0  0  0  0
  9 10  2  0  0  0  0
  9 17  1  0  0  0  0
 11 14  1  0  0  0  0
 11 15  1  0  0  0  0
 11 16  1  0  0  0  0
 17 18  1  0  0  0  0
 17 25  1  0  0  0  0
 18 19  1  0  0  0  0
 18 21  1  0  0  0  0
 18 26  1  0  0  0  0
 19 20  2  0  0  0  0
 19 29  1  0  0  0  0
 21 22  1  0  0  0  0
 21 27  1  0  0  0  0
 21 28  1  0  0  0  0
 22 23  1  0  0  0  0
 22 24  2  0  0  0  0
 29 30  1  0  0  0  0
 29 34  1  0  0  0  0
 30 31  1  0  0  0  0
 30 33  1  0  0  0  0
 30 35  1  0  0  0  0
 31 32  2  0  0  0  0
 31 39  1  0  0  0  0
 33 36  1  0  0  0  0
 33 37  1  0  0  0  0
 33 38  1  0  0  0  0
 39 40  1  0  0  0  0
 39 41  1  0  0  0  0
 40 42  1  0  0  0  0
 40 43  1  0  0  0  0
 40 44  1  0  0  0  0
M  CHG  1  23  -1
M  END
$$$$

  -OEChem-05262215553D

 44 43  0     1  0  0  0  0  0999 V2000
   -4.5403   -0.3582   -4.1801 C   0  0  0  0  0  0  0  0  0  0  0  0
   -4.3411   -1.4829   -4.6124 O   0  0  0  0  0  0  0  0  0  0  0  0
   -5.8750    0.3227   -4.4239 C   0  0  0  0  0  0  0  0  0  0  0  0
   -5.7254    1.2385   -5.0012 H   0  0  0  0  0  0  0  0  0  0  0  0
   -6.5428   -0.3407   -4.9809 H   0  0  0  0  0  0  0  0  0  0  0  0
   -6.3436    0.5752   -3.4692 H   0  0  0  0  0  0  0  0  0  0  0  0
   -3.5671    0.3040   -3.4656 N   0  0  0  0  0  0  0  0  0  0  0  0
   -2.3151   -0.2989   -2.9906 C   0  0  2  0  0  0  0  0  0  0  0  0
   -1.8359    0.3864   -1.6909 C   0  0  0  0  0  0  0  0  0  0  0  0
   -2.5117    1.2942   -1.2131 O   0  0  0  0  0  0  0  0  0  0  0  0
   -1.2583   -0.1698   -4.0930 C   0  0  0  0  0  0  0  0  0  0  0  0
   -3.8425    1.1675   -2.9979 H   0  0  0  0  0  0  0  0  0  0  0  0
   -2.4748   -1.3587   -2.7650 H   0  0  0  0  0  0  0  0  0  0  0  0
   -1.0638    0.8845   -4.3144 H   0  0  0  0  0  0  0  0  0  0  0  0
   -0.3189   -0.6391   -3.7842 H   0  0  0  0  0  0  0  0  0  0  0  0
   -1.6023   -0.6619   -5.0079 H   0  0  0  0  0  0  0  0  0  0  0  0
   -0.7127   -0.0870   -1.0385 N   0  0  0  0  0  0  0  0  0  0  0  0
    0.0738    0.5793    0.0156 C   0  0  2  0  0  0  0  0  0  0  0  0
   -0.1690    2.1004    0.2035 C   0  0  0  0  0  0  0  0  0  0  0  0
    0.3444    2.9330   -0.5413 O   0  0  0  0  0  0  0  0  0  0  0  0
    1.5516    0.3057   -0.3332 C   0  0  0  0  0  0  0  0  0  0  0  0
    1.9407   -1.1586   -0.1575 C   0  0  0  0  0  0  0  0  0  0  0  0
    1.3330   -1.8411    0.7031 O   0  5  0  0  0  0  0  0  0  0  0  0
    2.7681   -1.6222   -0.9763 O   0  0  0  0  0  0  0  0  0  0  0  0
   -0.2677   -0.9025   -1.4550 H   0  0  0  0  0  0  0  0  0  0  0  0
   -0.1634    0.1114    0.9765 H   0  0  0  0  0  0  0  0  0  0  0  0
    2.1914    0.8943    0.3295 H   0  0  0  0  0  0  0  0  0  0  0  0
    1.7566    0.6208   -1.3608 H   0  0  0  0  0  0  0  0  0  0  0  0
   -0.9042    2.5552    1.2838 N   0  0  0  0  0  0  0  0  0  0  0  0
   -1.2715    3.9586    1.5024 C   0  0  2  0  0  0  0  0  0  0  0  0
   -1.6248    4.2577    2.9737 C   0  0  0  0  0  0  0  0  0  0  0  0
   -2.0212    3.3731    3.7252 O   0  0  0  0  0  0  0  0  0  0  0  0
   -2.4621    4.2996    0.5994 C   0  0  0  0  0  0  0  0  0  0  0  0
   -1.3740    1.8521    1.8500 H   0  0  0  0  0  0  0  0  0  0  0  0
   -0.4233    4.5963    1.2344 H   0  0  0  0  0  0  0  0  0  0  0  0
   -3.3134    3.6512    0.8303 H   0  0  0  0  0  0  0  0  0  0  0  0
   -2.7662    5.3408    0.7403 H   0  0  0  0  0  0  0  0  0  0  0  0
   -2.1956    4.1573   -0.4528 H   0  0  0  0  0  0  0  0  0  0  0  0
   -1.5187    5.5505    3.4558 N   0  0  0  0  0  0  0  0  0  0  0  0
   -1.8065    5.9180    4.8355 C   0  0  0  0  0  0  0  0  0  0  0  0
   -1.1564    6.2555    2.8209 H   0  0  0  0  0  0  0  0  0  0  0  0
   -2.8429    5.6712    5.0889 H   0  0  0  0  0  0  0  0  0  0  0  0
   -1.1380    5.3858    5.5203 H   0  0  0  0  0  0  0  0  0  0  0  0
   -1.6629    6.9933    4.9770 H   0  0  0  0  0  0  0  0  0  0  0  0
  1  2  2  0  0  0  0
  1  3  1  0  0  0  0
  1  7  1  0  0  0  0
  3  4  1  0  0  0  0
  3  5  1  0  0  0  0
  3  6  1  0  0  0  0
  7  8  1  0  0  0  0
  7 12  1  0  0  0  0
  8  9  1  0  0  0  0
  8 11  1  0  0  0  0
  8 13  1  0  0  0  0
  9 10  2  0  0  0  0
  9 17  1  0  0  0  0
 11 14  1  0  0  0  0
 11 15  1  0  0  0  0
 11 16  1  0  0  0  0
 17 18  1  0  0  0  0
 17 25  1  0  0  0  0
 18 19  1  0  0  0  0
 18 21  1  0  0  0  0
 18 26  1  0  0  0  0
 19 20  2  0  0  0  0
 19 29  1  0  0  0  0
 21 22  1  0  0  0  0
 21 27  1  0  0  0  0
 21 28  1  0  0  0  0
 22 23  1  0  0  0  0
 22 24  2  0  0  0  0
 29 30  1  0  0  0  0
 29 34  1  0  0  0  0
 30 31  1  0  0  0  0
 30 33  1  0  0  0  0
 30 35  1  0  0  0  0
 31 32  2  0  0  0  0
 31 39  1  0  0  0  0
 33 36  1  0  0  0  0
 33 37  1  0  0  0  0
 33 38  1  0  0  0  0
 39 40  1  0  0  0  0
 39 41  1  0  0  0  0
 40 42  1  0  0  0  0
 40 43  1  0  0  0  0
 40 44  1  0  0  0  0
M  CHG  1  23  -1
M  END
$$$$

  -OEChem-05262215553D

 44 43  0     1  0  0  0  0  0999 V2000
   -4.5376   -0.2982   -4.1672 C   0  0  0  0  0  0  0  0  0  0  0  0
   -4.3270   -1.3983   -4.6543 O   0  0  0  0  0  0  0  0  0  0  0  0
   -5.8762    0.3830   -4.3861 C   0  0  0  0  0  0  0  0  0  0  0  0
   -5.7315    1.3208   -4.9283 H   0  0  0  0  0  0  0  0  0  0  0  0
   -6.5386   -0.2636   -4.9682 H   0  0  0  0  0  0  0  0  0  0  0  0
   -6.3481    0.5966   -3.4236 H   0  0  0  0  0  0  0  0  0  0  0  0
   -3.5733    0.3361   -3.4161 N   0  0  0  0  0  0  0  0  0  0  0  0
   -2.3236   -0.2837   -2.9567 C   0  0  2  0  0  0  0  0  0  0  0  0
   -1.8716    0.3291   -1.6119 C   0  0  0  0  0  0  0  0  0  0  0  0
   -2.5839    1.1713   -1.0694 O   0  0  0  0  0  0  0  0  0  0  0  0
   -1.2507   -0.0814   -4.0323 C   0  0  0  0  0  0  0  0  0  0  0  0
   -3.8594    1.1719   -2.9063 H   0  0  0  0  0  0  0  0  0  0  0  0
   -2.4764   -1.3561   -2.7955 H   0  0  0  0  0  0  0  0  0  0  0  0
   -1.0576    0.9855   -4.1822 H   0  0  0  0  0  0  0  0  0  0  0  0
   -0.3142   -0.5666   -3.7398 H   0  0  0  0  0  0  0  0  0  0  0  0
   -1.5785   -0.5146   -4.9825 H   0  0  0  0  0  0  0  0  0  0  0  0
   -0.7346   -0.1449   -0.9844 N   0  0  0  0  0  0  0  0  0  0  0  0
    0.0677    0.5479    0.0396 C   0  0  2  0  0  0  0  0  0  0  0  0
   -0.1812    2.0699    0.1970 C   0  0  0  0  0  0  0  0  0  0  0  0
    0.1116    2.8605   -0.6982 O   0  0  0  0  0  0  0  0  0  0  0  0
    1.5428    0.2937   -0.3298 C   0  0  0  0  0  0  0  0  0  0  0  0
    1.9620   -1.1600   -0.1370 C   0  0  0  0  0  0  0  0  0  0  0  0
    1.3828   -1.8396    0.7450 O   0  5  0  0  0  0  0  0  0  0  0  0
    2.7906   -1.6184   -0.9575 O   0  0  0  0  0  0  0  0  0  0  0  0
   -0.2592   -0.9129   -1.4529 H   0  0  0  0  0  0  0  0  0  0  0  0
   -0.1485    0.0953    1.0125 H   0  0  0  0  0  0  0  0  0  0  0  0
    2.1832    0.9054    0.3109 H   0  0  0  0  0  0  0  0  0  0  0  0
    1.7237    0.5946   -1.3663 H   0  0  0  0  0  0  0  0  0  0  0  0
   -0.6164    2.5825    1.4063 N   0  0  0  0  0  0  0  0  0  0  0  0
   -0.9426    3.9940    1.6359 C   0  0  2  0  0  0  0  0  0  0  0  0
   -0.9002    4.3768    3.1294 C   0  0  0  0  0  0  0  0  0  0  0  0
   -1.0835    3.5363    4.0035 O   0  0  0  0  0  0  0  0  0  0  0  0
   -2.3375    4.2692    1.0630 C   0  0  0  0  0  0  0  0  0  0  0  0
   -0.8577    1.9163    2.1374 H   0  0  0  0  0  0  0  0  0  0  0  0
   -0.2099    4.6201    1.1167 H   0  0  0  0  0  0  0  0  0  0  0  0
   -3.0831    3.6362    1.5548 H   0  0  0  0  0  0  0  0  0  0  0  0
   -2.6141    5.3169    1.2116 H   0  0  0  0  0  0  0  0  0  0  0  0
   -2.3580    4.0561   -0.0107 H   0  0  0  0  0  0  0  0  0  0  0  0
   -0.6771    5.6924    3.4962 N   0  0  0  0  0  0  0  0  0  0  0  0
   -0.5943    6.1361    4.8813 C   0  0  0  0  0  0  0  0  0  0  0  0
   -0.4885    6.3572    2.7519 H   0  0  0  0  0  0  0  0  0  0  0  0
   -1.5221    5.9042    5.4144 H   0  0  0  0  0  0  0  0  0  0  0  0
    0.2394    5.6430    5.3918 H   0  0  0  0  0  0  0  0  0  0  0  0
   -0.4351    7.2177    4.9212 H   0  0  0  0  0  0  0  0  0  0  0  0
  1  2  2  0  0  0  0
  1  3  1  0  0  0  0
  1  7  1  0  0  0  0
  3  4  1  0  0  0  0
  3  5  1  0  0  0  0
  3  6  1  0  0  0  0
  7  8  1  0  0  0  0
  7 12  1  0  0  0  0
  8  9  1  0  0  0  0
  8 11  1  0  0  0  0
  8 13  1  0  0  0  0
  9 10  2  0  0  0  0
  9 17  1  0  0  0  0
 11 14  1  0  0  0  0
 11 15  1  0  0  0  0
 11 16  1  0  0  0  0
 17 18  1  0  0  0  0
 17 25  1  0  0  0  0
 18 19  1  0  0  0  0
 18 21  1  0  0  0  0
 18 26  1  0  0  0  0
 19 20  2  0  0  0  0
 19 29  1  0  0  0  0
 21 22  1  0  0  0  0
 21 27  1  0  0  0  0
 21 28  1  0  0  0  0
 22 23  1  0  0  0  0
 22 24  2  0  0  0  0
 29 30  1  0  0  0  0
 29 34  1  0  0  0  0
 30 31  1  0  0  0  0
 30 33  1  0  0  0  0
 30 35  1  0  0  0  0
 31 32  2  0  0  0  0
 31 39  1  0  0  0  0
 33 36  1  0  0  0  0
 33 37  1  0  0  0  0
 33 38  1  0  0  0  0
 39 40  1  0  0  0  0
 39 41  1  0  0  0  0
 40 42  1  0  0  0  0
 40 43  1  0  0  0  0
 40 44  1  0  0  0  0
M  CHG  1  23  -1
M  END
$$$$

  -OEChem-05262215553D

 44 43  0     1  0  0  0  0  0999 V2000
   -4.5265   -0.3106   -4.1868 C   0  0  0  0  0  0  0  0  0  0  0  0
   -4.2650   -1.3748   -4.7265 O   0  0  0  0  0  0  0  0  0  0  0  0
   -5.8835    0.3341   -4.4036 C   0  0  0  0  0  0  0  0  0  0  0  0
   -5.7583    1.3236   -4.8504 H   0  0  0  0  0  0  0  0  0  0  0  0
   -6.4921   -0.2812   -5.0721 H   0  0  0  0  0  0  0  0  0  0  0  0
   -6.4033    0.4374   -3.4479 H   0  0  0  0  0  0  0  0  0  0  0  0
   -3.6047    0.3134   -3.3757 N   0  0  0  0  0  0  0  0  0  0  0  0
   -2.3395   -0.2826   -2.9282 C   0  0  2  0  0  0  0  0  0  0  0  0
   -1.9172    0.2907   -1.5569 C   0  0  0  0  0  0  0  0  0  0  0  0
   -2.6652    1.0750   -0.9763 O   0  0  0  0  0  0  0  0  0  0  0  0
   -1.2631   -0.0056   -3.9841 C   0  0  0  0  0  0  0  0  0  0  0  0
   -3.9294    1.1123   -2.8310 H   0  0  0  0  0  0  0  0  0  0  0  0
   -2.4601   -1.3646   -2.8089 H   0  0  0  0  0  0  0  0  0  0  0  0
   -1.1024    1.0719   -4.0914 H   0  0  0  0  0  0  0  0  0  0  0  0
   -0.3145   -0.4713   -3.6993 H   0  0  0  0  0  0  0  0  0  0  0  0
   -1.5664   -0.4124   -4.9538 H   0  0  0  0  0  0  0  0  0  0  0  0
   -0.7709   -0.1735   -0.9396 N   0  0  0  0  0  0  0  0  0  0  0  0
    0.0347    0.5431    0.0652 C   0  0  2  0  0  0  0  0  0  0  0  0
   -0.2206    2.0656    0.2058 C   0  0  0  0  0  0  0  0  0  0  0  0
   -0.1294    2.8184   -0.7627 O   0  0  0  0  0  0  0  0  0  0  0  0
    1.5085    0.3114   -0.3226 C   0  0  0  0  0  0  0  0  0  0  0  0
    1.9601   -1.1313   -0.1232 C   0  0  0  0  0  0  0  0  0  0  0  0
    1.4082   -1.8145    0.7732 O   0  5  0  0  0  0  0  0  0  0  0  0
    2.7885   -1.5779   -0.9504 O   0  0  0  0  0  0  0  0  0  0  0  0
   -0.2736   -0.9080   -1.4377 H   0  0  0  0  0  0  0  0  0  0  0  0
   -0.1650    0.0990    1.0456 H   0  0  0  0  0  0  0  0  0  0  0  0
    2.1469    0.9403    0.3034 H   0  0  0  0  0  0  0  0  0  0  0  0
    1.6685    0.6071   -1.3640 H   0  0  0  0  0  0  0  0  0  0  0  0
   -0.3416    2.6373    1.4602 N   0  0  0  0  0  0  0  0  0  0  0  0
   -0.5561    4.0689    1.7000 C   0  0  2  0  0  0  0  0  0  0  0  0
   -0.1365    4.5044    3.1189 C   0  0  0  0  0  0  0  0  0  0  0  0
   -0.0992    3.6981    4.0422 O   0  0  0  0  0  0  0  0  0  0  0  0
   -2.0381    4.3829    1.4698 C   0  0  0  0  0  0  0  0  0  0  0  0
   -0.3404    2.0144    2.2660 H   0  0  0  0  0  0  0  0  0  0  0  0
    0.0479    4.6445    0.9913 H   0  0  0  0  0  0  0  0  0  0  0  0
   -2.6616    3.8169    2.1691 H   0  0  0  0  0  0  0  0  0  0  0  0
   -2.2308    5.4497    1.6131 H   0  0  0  0  0  0  0  0  0  0  0  0
   -2.3304    4.1135    0.4497 H   0  0  0  0  0  0  0  0  0  0  0  0
    0.1863    5.8272    3.3653 N   0  0  0  0  0  0  0  0  0  0  0  0
    0.6401    6.3130    4.6614 C   0  0  0  0  0  0  0  0  0  0  0  0
    0.1940    6.4594    2.5705 H   0  0  0  0  0  0  0  0  0  0  0  0
   -0.1082    6.1038    5.4330 H   0  0  0  0  0  0  0  0  0  0  0  0
    1.5818    5.8299    4.9422 H   0  0  0  0  0  0  0  0  0  0  0  0
    0.8027    7.3941    4.6229 H   0  0  0  0  0  0  0  0  0  0  0  0
  1  2  2  0  0  0  0
  1  3  1  0  0  0  0
  1  7  1  0  0  0  0
  3  4  1  0  0  0  0
  3  5  1  0  0  0  0
  3  6  1  0  0  0  0
  7  8  1  0  0  0  0
  7 12  1  0  0  0  0
  8  9  1  0  0  0  0
  8 11  1  0  0  0  0
  8 13  1  0  0  0  0
  9 10  2  0  0  0  0
  9 17  1  0  0  0  0
 11 14  1  0  0  0  0
 11 15  1  0  0  0  0
 11 16  1  0  0  0  0
 17 18  1  0  0  0  0
 17 25  1  0  0  0  0
 18 19  1  0  0  0  0
 18 21  1  0  0  0  0
 18 26  1  0  0  0  0
 19 20  2  0  0  0  0
 19 29  1  0  0  0  0
 21 22  1  0  0  0  0
 21 27  1  0  0  0  0
 21 28  1  0  0  0  0
 22 23  1  0  0  0  0
 22 24  2  0  0  0  0
 29 30  1  0  0  0  0
 29 34  1  0  0  0  0
 30 31  1  0  0  0  0
 30 33  1  0  0  0  0
 30 35  1  0  0  0  0
 31 32  2  0  0  0  0
 31 39  1  0  0  0  0
 33 36  1  0  0  0  0
 33 37  1  0  0  0  0
 33 38  1  0  0  0  0
 39 40  1  0  0  0  0
 39 41  1  0  0  0  0
 40 42  1  0  0  0  0
 40 43  1  0  0  0  0
 40 44  1  0  0  0  0
M  CHG  1  23  -1
M  END
$$$$

  -OEChem-05262215553D

 44 43  0     1  0  0  0  0  0999 V2000
   -4.5084   -0.3245   -4.2007 C   0  0  0  0  0  0  0  0  0  0  0  0
   -4.2056   -1.3508   -4.7900 O   0  0  0  0  0  0  0  0  0  0  0  0
   -5.8844    0.2847   -4.4018 C   0  0  0  0  0  0  0  0  0  0  0  0
   -5.7880    1.3109   -4.7648 H   0  0  0  0  0  0  0  0  0  0  0  0
   -6.4531   -0.2964   -5.1334 H   0  0  0  0  0  0  0  0  0  0  0  0
   -6.4299    0.2913   -3.4545 H   0  0  0  0  0  0  0  0  0  0  0  0
   -3.6179    0.2854   -3.3450 N   0  0  0  0  0  0  0  0  0  0  0  0
   -2.3437   -0.2966   -2.9031 C   0  0  2  0  0  0  0  0  0  0  0  0
   -1.9630    0.2218   -1.4982 C   0  0  0  0  0  0  0  0  0  0  0  0
   -2.7615    0.9176   -0.8735 O   0  0  0  0  0  0  0  0  0  0  0  0
   -1.2556    0.0600   -3.9228 C   0  0  0  0  0  0  0  0  0  0  0  0
   -3.9767    1.0434   -2.7642 H   0  0  0  0  0  0  0  0  0  0  0  0
   -2.4356   -1.3860   -2.8381 H   0  0  0  0  0  0  0  0  0  0  0  0
   -1.1122    1.1446   -3.9642 H   0  0  0  0  0  0  0  0  0  0  0  0
   -0.3035   -0.4063   -3.6505 H   0  0  0  0  0  0  0  0  0  0  0  0
   -1.5367   -0.2942   -4.9193 H   0  0  0  0  0  0  0  0  0  0  0  0
   -0.7950   -0.2039   -0.8950 N   0  0  0  0  0  0  0  0  0  0  0  0
   -0.0031    0.5551    0.0901 C   0  0  2  0  0  0  0  0  0  0  0  0
   -0.2950    2.0724    0.2260 C   0  0  0  0  0  0  0  0  0  0  0  0
   -0.4145    2.7926   -0.7641 O   0  0  0  0  0  0  0  0  0  0  0  0
    1.4702    0.3743   -0.3262 C   0  0  0  0  0  0  0  0  0  0  0  0
    1.9808   -1.0477   -0.1226 C   0  0  0  0  0  0  0  0  0  0  0  0
    1.4754   -1.7428    0.7913 O   0  5  0  0  0  0  0  0  0  0  0  0
    2.8070   -1.4701   -0.9646 O   0  0  0  0  0  0  0  0  0  0  0  0
   -0.2616   -0.8891   -1.4246 H   0  0  0  0  0  0  0  0  0  0  0  0
   -0.1725    0.1141    1.0779 H   0  0  0  0  0  0  0  0  0  0  0  0
    2.0992    1.0321    0.2794 H   0  0  0  0  0  0  0  0  0  0  0  0
    1.5975    0.6647   -1.3734 H   0  0  0  0  0  0  0  0  0  0  0  0
   -0.1064    2.6978    1.4466 N   0  0  0  0  0  0  0  0  0  0  0  0
   -0.1833    4.1483    1.6601 C   0  0  2  0  0  0  0  0  0  0  0  0
    0.5922    4.6077    2.9118 C   0  0  0  0  0  0  0  0  0  0  0  0
    0.8188    3.8318    3.8337 O   0  0  0  0  0  0  0  0  0  0  0  0
   -1.6592    4.5425    1.7799 C   0  0  0  0  0  0  0  0  0  0  0  0
    0.1370    2.1118    2.2442 H   0  0  0  0  0  0  0  0  0  0  0  0
    0.2578    4.6621    0.7996 H   0  0  0  0  0  0  0  0  0  0  0  0
   -2.1210    4.0365    2.6334 H   0  0  0  0  0  0  0  0  0  0  0  0
   -1.7581    5.6230    1.9181 H   0  0  0  0  0  0  0  0  0  0  0  0
   -2.2031    4.2591    0.8729 H   0  0  0  0  0  0  0  0  0  0  0  0
    1.0267    5.9178    3.0102 N   0  0  0  0  0  0  0  0  0  0  0  0
    1.8004    6.4239    4.1359 C   0  0  0  0  0  0  0  0  0  0  0  0
    0.8665    6.5218    2.2097 H   0  0  0  0  0  0  0  0  0  0  0  0
    1.2539    6.2784    5.0735 H   0  0  0  0  0  0  0  0  0  0  0  0
    2.7623    5.9052    4.2030 H   0  0  0  0  0  0  0  0  0  0  0  0
    1.9911    7.4939    4.0109 H   0  0  0  0  0  0  0  0  0  0  0  0
  1  2  2  0  0  0  0
  1  3  1  0  0  0  0
  1  7  1  0  0  0  0
  3  4  1  0  0  0  0
  3  5  1  0  0  0  0
  3  6  1  0  0  0  0
  7  8  1  0  0  0  0
  7 12  1  0  0  0  0
  8  9  1  0  0  0  0
  8 11  1  0  0  0  0
  8 13  1  0  0  0  0
  9 10  2  0  0  0  0
  9 17  1  0  0  0  0
 11 14  1  0  0  0  0
 11 15  1  0  0  0  0
 11 16  1  0  0  0  0
 17 18  1  0  0  0  0
 17 25  1  0  0  0  0
 18 19  1  0  0  0  0
 18 21  1  0  0  0  0
 18 26  1  0  0  0  0
 19 20  2  0  0  0  0
 19 29  1  0  0  0  0
 21 22  1  0  0  0  0
 21 27  1  0  0  0  0
 21 28  1  0  0  0  0
 22 23  1  0  0  0  0
 22 24  2  0  0  0  0
 29 30  1  0  0  0  0
 29 34  1  0  0  0  0
 30 31  1  0  0  0  0
 30 33  1  0  0  0  0
 30 35  1  0  0  0  0
 31 32  2  0  0  0  0
 31 39  1  0  0  0  0
 33 36  1  0  0  0  0
 33 37  1  0  0  0  0
 33 38  1  0  0  0  0
 39 40  1  0  0  0  0
 39 41  1  0  0  0  0
 40 42  1  0  0  0  0
 40 43  1  0  0  0  0
 40 44  1  0  0  0  0
M  CHG  1  23  -1
M  END
$$$$

  -OEChem-05262215553D

 44 43  0     1  0  0  0  0  0999 V2000
   -4.4859   -0.3604   -4.2031 C   0  0  0  0  0  0  0  0  0  0  0  0
   -4.1229   -1.3310   -4.8500 O   0  0  0  0  0  0  0  0  0  0  0  0
   -5.8941    0.1799   -4.3735 C   0  0  0  0  0  0  0  0  0  0  0  0
   -5.8581    1.2495   -4.5953 H   0  0  0  0  0  0  0  0  0  0  0  0
   -6.4000   -0.3341   -5.1954 H   0  0  0  0  0  0  0  0  0  0  0  0
   -6.4644    0.0253   -3.4541 H   0  0  0  0  0  0  0  0  0  0  0  0
   -3.6342    0.2514   -3.3110 N   0  0  0  0  0  0  0  0  0  0  0  0
   -2.3264   -0.2733   -2.8986 C   0  0  2  0  0  0  0  0  0  0  0  0
   -1.9803    0.1971   -1.4683 C   0  0  0  0  0  0  0  0  0  0  0  0
   -2.8234    0.8050   -0.8112 O   0  0  0  0  0  0  0  0  0  0  0  0
   -1.2653    0.2042   -3.8965 C   0  0  0  0  0  0  0  0  0  0  0  0
   -4.0386    0.9516   -2.6889 H   0  0  0  0  0  0  0  0  0  0  0  0
   -2.3492   -1.3681   -2.8902 H   0  0  0  0  0  0  0  0  0  0  0  0
   -1.2102    1.2977   -3.9002 H   0  0  0  0  0  0  0  0  0  0  0  0
   -0.2800   -0.1925   -3.6324 H   0  0  0  0  0  0  0  0  0  0  0  0
   -1.5120   -0.1377   -4.9065 H   0  0  0  0  0  0  0  0  0  0  0  0
   -0.8002   -0.1991   -0.8689 N   0  0  0  0  0  0  0  0  0  0  0  0
   -0.0275    0.5842    0.1141 C   0  0  2  0  0  0  0  0  0  0  0  0
   -0.3422    2.0978    0.2654 C   0  0  0  0  0  0  0  0  0  0  0  0
   -0.6639    2.7938   -0.6961 O   0  0  0  0  0  0  0  0  0  0  0  0
    1.4468    0.4344   -0.3154 C   0  0  0  0  0  0  0  0  0  0  0  0
    1.9938   -0.9742   -0.1135 C   0  0  0  0  0  0  0  0  0  0  0  0
    1.5151   -1.6793    0.8068 O   0  5  0  0  0  0  0  0  0  0  0  0
    2.8206   -1.3771   -0.9640 O   0  0  0  0  0  0  0  0  0  0  0  0
   -0.2393   -0.8451   -1.4186 H   0  0  0  0  0  0  0  0  0  0  0  0
   -0.1808    0.1377    1.1021 H   0  0  0  0  0  0  0  0  0  0  0  0
    2.0703    1.1056    0.2805 H   0  0  0  0  0  0  0  0  0  0  0  0
    1.5573    0.7249   -1.3646 H   0  0  0  0  0  0  0  0  0  0  0  0
    0.1317    2.7687    1.3807 N   0  0  0  0  0  0  0  0  0  0  0  0
    0.1581    4.2286    1.5348 C   0  0  2  0  0  0  0  0  0  0  0  0
    1.2315    4.6942    2.5392 C   0  0  0  0  0  0  0  0  0  0  0  0
    1.6259    3.9483    3.4288 O   0  0  0  0  0  0  0  0  0  0  0  0
   -1.2280    4.6954    1.9898 C   0  0  0  0  0  0  0  0  0  0  0  0
    0.5806    2.2099    2.1056 H   0  0  0  0  0  0  0  0  0  0  0  0
    0.3949    4.6896    0.5705 H   0  0  0  0  0  0  0  0  0  0  0  0
   -1.4806    4.2523    2.9584 H   0  0  0  0  0  0  0  0  0  0  0  0
   -1.2534    5.7848    2.0856 H   0  0  0  0  0  0  0  0  0  0  0  0
   -1.9879    4.3953    1.2612 H   0  0  0  0  0  0  0  0  0  0  0  0
    1.7507    5.9736    2.4512 N   0  0  0  0  0  0  0  0  0  0  0  0
    2.8106    6.4671    3.3201 C   0  0  0  0  0  0  0  0  0  0  0  0
    1.4482    6.5453    1.6683 H   0  0  0  0  0  0  0  0  0  0  0  0
    2.4964    6.4261    4.3682 H   0  0  0  0  0  0  0  0  0  0  0  0
    3.7164    5.8640    3.1986 H   0  0  0  0  0  0  0  0  0  0  0  0
    3.0496    7.5054    3.0717 H   0  0  0  0  0  0  0  0  0  0  0  0
  1  2  2  0  0  0  0
  1  3  1  0  0  0  0
  1  7  1  0  0  0  0
  3  4  1  0  0  0  0
  3  5  1  0  0  0  0
  3  6  1  0  0  0  0
  7  8  1  0  0  0  0
  7 12  1  0  0  0  0
  8  9  1  0  0  0  0
  8 11  1  0  0  0  0
  8 13  1  0  0  0  0
  9 10  2  0  0  0  0
  9 17  1  0  0  0  0
 11 14  1  0  0  0  0
 11 15  1  0  0  0  0
 11 16  1  0  0  0  0
 17 18  1  0  0  0  0
 17 25  1  0  0  0  0
 18 19  1  0  0  0  0
 18 21  1  0  0  0  0
 18 26  1  0  0  0  0
 19 20  2  0  0  0  0
 19 29  1  0  0  0  0
 21 22  1  0  0  0  0
 21 27  1  0  0  0  0
 21 28  1  0  0  0  0
 22 23  1  0  0  0  0
 22 24  2  0  0  0  0
 29 30  1  0  0  0  0
 29 34  1  0  0  0  0
 30 31  1  0  0  0  0
 30 33  1  0  0  0  0
 30 35  1  0  0  0  0
 31 32  2  0  0  0  0
 31 39  1  0  0  0  0
 33 36  1  0  0  0  0
 33 37  1  0  0  0  0
 33 38  1  0  0  0  0
 39 40  1  0  0  0  0
 39 41  1  0  0  0  0
 40 42  1  0  0  0  0
 40 43  1  0  0  0  0
 40 44  1  0  0  0  0
M  CHG  1  23  -1
M  END
$$$$

  -OEChem-05262215553D

 44 43  0     1  0  0  0  0  0999 V2000
   -4.7058   -0.1402   -3.9411 C   0  0  0  0  0  0  0  0  0  0  0  0
   -4.9402   -1.3135   -3.6940 O   0  0  0  0  0  0  0  0  0  0  0  0
   -5.8015    0.7468   -4.5042 C   0  0  0  0  0  0  0  0  0  0  0  0
   -5.5013    1.1353   -5.4804 H   0  0  0  0  0  0  0  0  0  0  0  0
   -6.7275    0.1768   -4.6201 H   0  0  0  0  0  0  0  0  0  0  0  0
   -5.9856    1.5851   -3.8278 H   0  0  0  0  0  0  0  0  0  0  0  0
   -3.4551    0.3892   -3.7134 N   0  0  0  0  0  0  0  0  0  0  0  0
   -2.3743   -0.2927   -2.9911 C   0  0  2  0  0  0  0  0  0  0  0  0
   -1.4960    0.7255   -2.2291 C   0  0  0  0  0  0  0  0  0  0  0  0
   -1.6003    1.9139   -2.5132 O   0  0  0  0  0  0  0  0  0  0  0  0
   -1.5400   -1.0879   -4.0015 C   0  0  0  0  0  0  0  0  0  0  0  0
   -3.3532    1.4011   -3.7965 H   0  0  0  0  0  0  0  0  0  0  0  0
   -2.7977   -0.9785   -2.2495 H   0  0  0  0  0  0  0  0  0  0  0  0
   -1.0931   -0.4150   -4.7404 H   0  0  0  0  0  0  0  0  0  0  0  0
   -0.7362   -1.6325   -3.4964 H   0  0  0  0  0  0  0  0  0  0  0  0
   -2.1693   -1.8143   -4.5253 H   0  0  0  0  0  0  0  0  0  0  0  0
   -0.4874    0.2621   -1.4045 N   0  0  0  0  0  0  0  0  0  0  0  0
    0.1208    0.8709   -0.2030 C   0  0  2  0  0  0  0  0  0  0  0  0
   -0.3437    2.2482    0.3536 C   0  0  0  0  0  0  0  0  0  0  0  0
   -1.4674    2.7007    0.1684 O   0  0  0  0  0  0  0  0  0  0  0  0
    1.6346    0.8861   -0.5201 C   0  0  0  0  0  0  0  0  0  0  0  0
    2.2293   -0.5204   -0.5501 C   0  0  0  0  0  0  0  0  0  0  0  0
    1.6999   -1.4056    0.1685 O   0  5  0  0  0  0  0  0  0  0  0  0
    3.2015   -0.7145   -1.3155 O   0  0  0  0  0  0  0  0  0  0  0  0
   -0.3565   -0.7469   -1.4403 H   0  0  0  0  0  0  0  0  0  0  0  0
   -0.0692    0.1917    0.6344 H   0  0  0  0  0  0  0  0  0  0  0  0
    2.1819    1.4438    0.2424 H   0  0  0  0  0  0  0  0  0  0  0  0
    1.8067    1.3807   -1.4808 H   0  0  0  0  0  0  0  0  0  0  0  0
    0.2921    2.7399    1.4835 N   0  0  0  0  0  0  0  0  0  0  0  0
   -0.0980    3.9595    2.2052 C   0  0  2  0  0  0  0  0  0  0  0  0
    1.1133    4.8459    2.5577 C   0  0  0  0  0  0  0  0  0  0  0  0
    2.2001    4.3448    2.8234 O   0  0  0  0  0  0  0  0  0  0  0  0
   -0.8401    3.5428    3.4769 C   0  0  0  0  0  0  0  0  0  0  0  0
    1.2141    2.3554    1.6856 H   0  0  0  0  0  0  0  0  0  0  0  0
   -0.7677    4.5636    1.5848 H   0  0  0  0  0  0  0  0  0  0  0  0
   -0.1875    2.9460    4.1222 H   0  0  0  0  0  0  0  0  0  0  0  0
   -1.1704    4.4248    4.0330 H   0  0  0  0  0  0  0  0  0  0  0  0
   -1.7201    2.9440    3.2211 H   0  0  0  0  0  0  0  0  0  0  0  0
    0.9707    6.2210    2.6153 N   0  0  0  0  0  0  0  0  0  0  0  0
    2.0723    7.1275    2.9092 C   0  0  0  0  0  0  0  0  0  0  0  0
    0.0776    6.6078    2.3251 H   0  0  0  0  0  0  0  0  0  0  0  0
    2.4792    6.9240    3.9051 H   0  0  0  0  0  0  0  0  0  0  0  0
    2.8716    7.0119    2.1697 H   0  0  0  0  0  0  0  0  0  0  0  0
    1.7242    8.1645    2.8836 H   0  0  0  0  0  0  0  0  0  0  0  0
  1  2  2  0  0  0  0
  1  3  1  0  0  0  0
  1  7  1  0  0  0  0
  3  4  1  0  0  0  0
  3  5  1  0  0  0  0
  3  6  1  0  0  0  0
  7  8  1  0  0  0  0
  7 12  1  0  0  0  0
  8  9  1  0  0  0  0
  8 11  1  0  0  0  0
  8 13  1  0  0  0  0
  9 10  2  0  0  0  0
  9 17  1  0  0  0  0
 11 14  1  0  0  0  0
 11 15  1  0  0  0  0
 11 16  1  0  0  0  0
 17 18  1  0  0  0  0
 17 25  1  0  0  0  0
 18 19  1  0  0  0  0
 18 21  1  0  0  0  0
 18 26  1  0  0  0  0
 19 20  2  0  0  0  0
 19 29  1  0  0  0  0
 21 22  1  0  0  0  0
 21 27  1  0  0  0  0
 21 28  1  0  0  0  0
 22 23  1  0  0  0  0
 22 24  2  0  0  0  0
 29 30  1  0  0  0  0
 29 34  1  0  0  0  0
 30 31  1  0  0  0  0
 30 33  1  0  0  0  0
 30 35  1  0  0  0  0
 31 32  2  0  0  0  0
 31 39  1  0  0  0  0
 33 36  1  0  0  0  0
 33 37  1  0  0  0  0
 33 38  1  0  0  0  0
 39 40  1  0  0  0  0
 39 41  1  0  0  0  0
 40 42  1  0  0  0  0
 40 43  1  0  0  0  0
 40 44  1  0  0  0  0
M  CHG  1  23  -1
M  END
$$$$

  -OEChem-05262215553D

 44 43  0     1  0  0  0  0  0999 V2000
   -4.6781    0.0309   -3.8489 C   0  0  0  0  0  0  0  0  0  0  0  0
   -4.9874   -1.1264   -3.6082 O   0  0  0  0  0  0  0  0  0  0  0  0
   -5.7236    1.0034   -4.3637 C   0  0  0  0  0  0  0  0  0  0  0  0
   -5.4430    1.3589   -5.3583 H   0  0  0  0  0  0  0  0  0  0  0  0
   -6.6989    0.5131   -4.4251 H   0  0  0  0  0  0  0  0  0  0  0  0
   -5.8014    1.8586   -3.6875 H   0  0  0  0  0  0  0  0  0  0  0  0
   -3.3860    0.4680   -3.6596 N   0  0  0  0  0  0  0  0  0  0  0  0
   -2.3387   -0.2896   -2.9640 C   0  0  2  0  0  0  0  0  0  0  0  0
   -1.3867    0.6659   -2.2106 C   0  0  0  0  0  0  0  0  0  0  0  0
   -1.4184    1.8638   -2.4784 O   0  0  0  0  0  0  0  0  0  0  0  0
   -1.5727   -1.1259   -3.9945 C   0  0  0  0  0  0  0  0  0  0  0  0
   -3.2206    1.4726   -3.7297 H   0  0  0  0  0  0  0  0  0  0  0  0
   -2.7911   -0.9544   -2.2205 H   0  0  0  0  0  0  0  0  0  0  0  0
   -1.0995   -0.4759   -4.7373 H   0  0  0  0  0  0  0  0  0  0  0  0
   -0.7945   -1.7213   -3.5068 H   0  0  0  0  0  0  0  0  0  0  0  0
   -2.2546   -1.8086   -4.5109 H   0  0  0  0  0  0  0  0  0  0  0  0
   -0.3991    0.1440   -1.3963 N   0  0  0  0  0  0  0  0  0  0  0  0
    0.2202    0.7363   -0.1937 C   0  0  2  0  0  0  0  0  0  0  0  0
   -0.2455    2.1353    0.3037 C   0  0  0  0  0  0  0  0  0  0  0  0
   -1.4360    2.4359    0.3086 O   0  0  0  0  0  0  0  0  0  0  0  0
    1.7371    0.6939   -0.4965 C   0  0  0  0  0  0  0  0  0  0  0  0
    2.2776   -0.7349   -0.5132 C   0  0  0  0  0  0  0  0  0  0  0  0
    1.7094   -1.5966    0.2042 O   0  5  0  0  0  0  0  0  0  0  0  0
    3.2498   -0.9681   -1.2679 O   0  0  0  0  0  0  0  0  0  0  0  0
   -0.3291   -0.8712   -1.4198 H   0  0  0  0  0  0  0  0  0  0  0  0
    0.0025    0.0810    0.6557 H   0  0  0  0  0  0  0  0  0  0  0  0
    2.2992    1.2283    0.2711 H   0  0  0  0  0  0  0  0  0  0  0  0
    1.9380    1.1775   -1.4574 H   0  0  0  0  0  0  0  0  0  0  0  0
    0.5300    2.8301    1.2188 N   0  0  0  0  0  0  0  0  0  0  0  0
    0.1404    4.0967    1.8542 C   0  0  2  0  0  0  0  0  0  0  0  0
    1.2775    5.1378    1.8357 C   0  0  0  0  0  0  0  0  0  0  0  0
    2.4509    4.7873    1.8929 O   0  0  0  0  0  0  0  0  0  0  0  0
   -0.2840    3.7956    3.2933 C   0  0  0  0  0  0  0  0  0  0  0  0
    1.5167    2.5784    1.2531 H   0  0  0  0  0  0  0  0  0  0  0  0
   -0.7065    4.5387    1.3194 H   0  0  0  0  0  0  0  0  0  0  0  0
    0.5515    3.3690    3.8574 H   0  0  0  0  0  0  0  0  0  0  0  0
   -0.6132    4.7108    3.7938 H   0  0  0  0  0  0  0  0  0  0  0  0
   -1.1118    3.0792    3.3007 H   0  0  0  0  0  0  0  0  0  0  0  0
    0.9770    6.4875    1.7869 N   0  0  0  0  0  0  0  0  0  0  0  0
    1.9923    7.5292    1.7118 C   0  0  0  0  0  0  0  0  0  0  0  0
    0.0011    6.7404    1.6631 H   0  0  0  0  0  0  0  0  0  0  0  0
    2.6469    7.4896    2.5887 H   0  0  0  0  0  0  0  0  0  0  0  0
    2.6014    7.4061    0.8100 H   0  0  0  0  0  0  0  0  0  0  0  0
    1.5188    8.5150    1.6791 H   0  0  0  0  0  0  0  0  0  0  0  0
  1  2  2  0  0  0  0
  1  3  1  0  0  0  0
  1  7  1  0  0  0  0
  3  4  1  0  0  0  0
  3  5  1  0  0  0  0
  3  6  1  0  0  0  0
  7  8  1  0  0  0  0
  7 12  1  0  0  0  0
  8  9  1  0  0  0  0
  8 11  1  0  0  0  0
  8 13  1  0  0  0  0
  9 10  2  0  0  0  0
  9 17  1  0  0  0  0
 11 14  1  0  0  0  0
 11 15  1  0  0  0  0
 11 16  1  0  0  0  0
 17 18  1  0  0  0  0
 17 25  1  0  0  0  0
 18 19  1  0  0  0  0
 18 21  1  0  0  0  0
 18 26  1  0  0  0  0
 19 20  2  0  0  0  0
 19 29  1  0  0  0  0
 21 22  1  0  0  0  0
 21 27  1  0  0  0  0
 21 28  1  0  0  0  0
 22 23  1  0  0  0  0
 22 24  2  0  0  0  0
 29 30  1  0  0  0  0
 29 34  1  0  0  0  0
 30 31  1  0  0  0  0
 30 33  1  0  0  0  0
 30 35  1  0  0  0  0
 31 32  2  0  0  0  0
 31 39  1  0  0  0  0
 33 36  1  0  0  0  0
 33 37  1  0  0  0  0
 33 38  1  0  0  0  0
 39 40  1  0  0  0  0
 39 41  1  0  0  0  0
 40 42  1  0  0  0  0
 40 43  1  0  0  0  0
 40 44  1  0  0  0  0
M  CHG  1  23  -1
M  END
$$$$

  -OEChem-05262215553D

 44 43  0     1  0  0  0  0  0999 V2000
   -4.6522    0.0001   -3.8475 C   0  0  0  0  0  0  0  0  0  0  0  0
   -4.9130   -1.1820   -3.6824 O   0  0  0  0  0  0  0  0  0  0  0  0
   -5.7406    0.9612   -4.2890 C   0  0  0  0  0  0  0  0  0  0  0  0
   -5.4689    1.4169   -5.2442 H   0  0  0  0  0  0  0  0  0  0  0  0
   -6.6893    0.4303   -4.4068 H   0  0  0  0  0  0  0  0  0  0  0  0
   -5.8678    1.7478   -3.5412 H   0  0  0  0  0  0  0  0  0  0  0  0
   -3.3775    0.4755   -3.6343 N   0  0  0  0  0  0  0  0  0  0  0  0
   -2.2973   -0.2857   -2.9951 C   0  0  2  0  0  0  0  0  0  0  0  0
   -1.3931    0.6475   -2.1603 C   0  0  0  0  0  0  0  0  0  0  0  0
   -1.4595    1.8585   -2.3526 O   0  0  0  0  0  0  0  0  0  0  0  0
   -1.4881   -0.9928   -4.0865 C   0  0  0  0  0  0  0  0  0  0  0  0
   -3.2515    1.4879   -3.6421 H   0  0  0  0  0  0  0  0  0  0  0  0
   -2.7187   -1.0317   -2.3126 H   0  0  0  0  0  0  0  0  0  0  0  0
   -1.0446   -0.2594   -4.7677 H   0  0  0  0  0  0  0  0  0  0  0  0
   -0.6831   -1.5885   -3.6449 H   0  0  0  0  0  0  0  0  0  0  0  0
   -2.1340   -1.6611   -4.6642 H   0  0  0  0  0  0  0  0  0  0  0  0
   -0.4230    0.1000   -1.3410 N   0  0  0  0  0  0  0  0  0  0  0  0
    0.2180    0.6807   -0.1449 C   0  0  2  0  0  0  0  0  0  0  0  0
   -0.2217    2.1011    0.3112 C   0  0  0  0  0  0  0  0  0  0  0  0
   -1.4127    2.3401    0.4964 O   0  0  0  0  0  0  0  0  0  0  0  0
    1.7336    0.5858   -0.4427 C   0  0  0  0  0  0  0  0  0  0  0  0
    2.2276   -0.8593   -0.4466 C   0  0  0  0  0  0  0  0  0  0  0  0
    1.6316   -1.6982    0.2748 O   0  5  0  0  0  0  0  0  0  0  0  0
    3.1880   -1.1288   -1.2045 O   0  0  0  0  0  0  0  0  0  0  0  0
   -0.3514   -0.9147   -1.3845 H   0  0  0  0  0  0  0  0  0  0  0  0
   -0.0213    0.0470    0.7156 H   0  0  0  0  0  0  0  0  0  0  0  0
    2.3081    1.1006    0.3293 H   0  0  0  0  0  0  0  0  0  0  0  0
    1.9565    1.0590   -1.4038 H   0  0  0  0  0  0  0  0  0  0  0  0
    0.6649    2.9475    0.9573 N   0  0  0  0  0  0  0  0  0  0  0  0
    0.3129    4.2731    1.4817 C   0  0  2  0  0  0  0  0  0  0  0  0
    1.3630    5.3427    1.1206 C   0  0  0  0  0  0  0  0  0  0  0  0
    2.5517    5.0533    1.0408 O   0  0  0  0  0  0  0  0  0  0  0  0
    0.1650    4.1593    3.0001 C   0  0  0  0  0  0  0  0  0  0  0  0
    1.6548    2.7537    0.8132 H   0  0  0  0  0  0  0  0  0  0  0  0
   -0.6404    4.6018    1.0554 H   0  0  0  0  0  0  0  0  0  0  0  0
    1.1098    3.8433    3.4539 H   0  0  0  0  0  0  0  0  0  0  0  0
   -0.1246    5.1231    3.4291 H   0  0  0  0  0  0  0  0  0  0  0  0
   -0.6055    3.4226    3.2488 H   0  0  0  0  0  0  0  0  0  0  0  0
    0.9710    6.6531    0.9124 N   0  0  0  0  0  0  0  0  0  0  0  0
    1.8922    7.7051    0.5045 C   0  0  0  0  0  0  0  0  0  0  0  0
   -0.0273    6.8393    0.8962 H   0  0  0  0  0  0  0  0  0  0  0  0
    2.6879    7.8263    1.2469 H   0  0  0  0  0  0  0  0  0  0  0  0
    2.3450    7.4634   -0.4627 H   0  0  0  0  0  0  0  0  0  0  0  0
    1.3602    8.6564    0.4109 H   0  0  0  0  0  0  0  0  0  0  0  0
  1  2  2  0  0  0  0
  1  3  1  0  0  0  0
  1  7  1  0  0  0  0
  3  4  1  0  0  0  0
  3  5  1  0  0  0  0
  3  6  1  0  0  0  0
  7  8  1  0  0  0  0
  7 12  1  0  0  0  0
  8  9  1  0  0  0  0
  8 11  1  0  0  0  0
  8 13  1  0  0  0  0
  9 10  2  0  0  0  0
  9 17  1  0  0  0  0
 11 14  1  0  0  0  0
 11 15  1  0  0  0  0
 11 16  1  0  0  0  0
 17 18  1  0  0  0  0
 17 25  1  0  0  0  0
 18 19  1  0  0  0  0
 18 21  1  0  0  0  0
 18 26  1  0  0  0  0
 19 20  2  0  0  0  0
 19 29  1  0  0  0  0
 21 22  1  0  0  0  0
 21 27  1  0  0  0  0
 21 28  1  0  0  0  0
 22 23  1  0  0  0  0
 22 24  2  0  0  0  0
 29 30  1  0  0  0  0
 29 34  1  0  0  0  0
 30 31  1  0  0  0  0
 30 33  1  0  0  0  0
 30 35  1  0  0  0  0
 31 32  2  0  0  0  0
 31 39  1  0  0  0  0
 33 36  1  0  0  0  0
 33 37  1  0  0  0  0
 33 38  1  0  0  0  0
 39 40  1  0  0  0  0
 39 41  1  0  0  0  0
 40 42  1  0  0  0  0
 40 43  1  0  0  0  0
 40 44  1  0  0  0  0
M  CHG  1  23  -1
M  END
$$$$

  -OEChem-05262215553D

 44 43  0     1  0  0  0  0  0999 V2000
   -4.6314   -0.0261   -3.8863 C   0  0  0  0  0  0  0  0  0  0  0  0
   -4.8543   -1.2235   -3.7916 O   0  0  0  0  0  0  0  0  0  0  0  0
   -5.7409    0.9205   -4.3064 C   0  0  0  0  0  0  0  0  0  0  0  0
   -5.4679    1.4245   -5.2367 H   0  0  0  0  0  0  0  0  0  0  0  0
   -6.6710    0.3672   -4.4632 H   0  0  0  0  0  0  0  0  0  0  0  0
   -5.9037    1.6709   -3.5287 H   0  0  0  0  0  0  0  0  0  0  0  0
   -3.3803    0.4798   -3.6125 N   0  0  0  0  0  0  0  0  0  0  0  0
   -2.2902   -0.2789   -2.9867 C   0  0  2  0  0  0  0  0  0  0  0  0
   -1.4284    0.6396   -2.0918 C   0  0  0  0  0  0  0  0  0  0  0  0
   -1.5558    1.8559   -2.2028 O   0  0  0  0  0  0  0  0  0  0  0  0
   -1.4412   -0.9153   -4.0919 C   0  0  0  0  0  0  0  0  0  0  0  0
   -3.2905    1.4947   -3.5615 H   0  0  0  0  0  0  0  0  0  0  0  0
   -2.7034   -1.0666   -2.3476 H   0  0  0  0  0  0  0  0  0  0  0  0
   -0.9965   -0.1414   -4.7255 H   0  0  0  0  0  0  0  0  0  0  0  0
   -0.6352   -1.5171   -3.6604 H   0  0  0  0  0  0  0  0  0  0  0  0
   -2.0600   -1.5668   -4.7169 H   0  0  0  0  0  0  0  0  0  0  0  0
   -0.4502    0.0805   -1.2890 N   0  0  0  0  0  0  0  0  0  0  0  0
    0.2222    0.6507   -0.1056 C   0  0  2  0  0  0  0  0  0  0  0  0
   -0.2009    2.0775    0.3416 C   0  0  0  0  0  0  0  0  0  0  0  0
   -1.3545    2.2744    0.7167 O   0  0  0  0  0  0  0  0  0  0  0  0
    1.7321    0.5423   -0.4230 C   0  0  0  0  0  0  0  0  0  0  0  0
    2.2156   -0.9059   -0.4369 C   0  0  0  0  0  0  0  0  0  0  0  0
    1.6242   -1.7431    0.2895 O   0  5  0  0  0  0  0  0  0  0  0  0
    3.1570   -1.1809   -1.2162 O   0  0  0  0  0  0  0  0  0  0  0  0
   -0.3558   -0.9306   -1.3653 H   0  0  0  0  0  0  0  0  0  0  0  0
   -0.0100    0.0226    0.7610 H   0  0  0  0  0  0  0  0  0  0  0  0
    2.3161    1.0497    0.3480 H   0  0  0  0  0  0  0  0  0  0  0  0
    1.9488    1.0172   -1.3844 H   0  0  0  0  0  0  0  0  0  0  0  0
    0.7351    3.0398    0.6831 N   0  0  0  0  0  0  0  0  0  0  0  0
    0.3966    4.4086    1.0915 C   0  0  2  0  0  0  0  0  0  0  0  0
    1.2823    5.4597    0.3923 C   0  0  0  0  0  0  0  0  0  0  0  0
    2.4601    5.2230    0.1475 O   0  0  0  0  0  0  0  0  0  0  0  0
    0.5503    4.5039    2.6107 C   0  0  0  0  0  0  0  0  0  0  0  0
    1.6830    2.8772    0.3458 H   0  0  0  0  0  0  0  0  0  0  0  0
   -0.6414    4.6316    0.8237 H   0  0  0  0  0  0  0  0  0  0  0  0
    1.5833    4.2918    2.9045 H   0  0  0  0  0  0  0  0  0  0  0  0
    0.2861    5.5065    2.9598 H   0  0  0  0  0  0  0  0  0  0  0  0
   -0.1079    3.7801    3.1016 H   0  0  0  0  0  0  0  0  0  0  0  0
    0.7608    6.6989    0.0645 N   0  0  0  0  0  0  0  0  0  0  0  0
    1.5155    7.7139   -0.6591 C   0  0  0  0  0  0  0  0  0  0  0  0
   -0.2389    6.8262    0.1905 H   0  0  0  0  0  0  0  0  0  0  0  0
    2.4171    7.9899   -0.1026 H   0  0  0  0  0  0  0  0  0  0  0  0
    1.8095    7.3410   -1.6457 H   0  0  0  0  0  0  0  0  0  0  0  0
    0.9061    8.6122   -0.7952 H   0  0  0  0  0  0  0  0  0  0  0  0
  1  2  2  0  0  0  0
  1  3  1  0  0  0  0
  1  7  1  0  0  0  0
  3  4  1  0  0  0  0
  3  5  1  0  0  0  0
  3  6  1  0  0  0  0
  7  8  1  0  0  0  0
  7 12  1  0  0  0  0
  8  9  1  0  0  0  0
  8 11  1  0  0  0  0
  8 13  1  0  0  0  0
  9 10  2  0  0  0  0
  9 17  1  0  0  0  0
 11 14  1  0  0  0  0
 11 15  1  0  0  0  0
 11 16  1  0  0  0  0
 17 18  1  0  0  0  0
 17 25  1  0  0  0  0
 18 19  1  0  0  0  0
 18 21  1  0  0  0  0
 18 26  1  0  0  0  0
 19 20  2  0  0  0  0
 19 29  1  0  0  0  0
 21 22  1  0  0  0  0
 21 27  1  0  0  0  0
 21 28  1  0  0  0  0
 22 23  1  0  0  0  0
 22 24  2  0  0  0  0
 29 30  1  0  0  0  0
 29 34  1  0  0  0  0
 30 31  1  0  0  0  0
 30 33  1  0  0  0  0
 30 35  1  0  0  0  0
 31 32  2  0  0  0  0
 31 39  1  0  0  0  0
 33 36  1  0  0  0  0
 33 37  1  0  0  0  0
 33 38  1  0  0  0  0
 39 40  1  0  0  0  0
 39 41  1  0  0  0  0
 40 42  1  0  0  0  0
 40 43  1  0  0  0  0
 40 44  1  0  0  0  0
M  CHG  1  23  -1
M  END
$$$$

  -OEChem-05262215553D

 44 43  0     1  0  0  0  0  0999 V2000
   -4.6054   -0.0174   -3.9324 C   0  0  0  0  0  0  0  0  0  0  0  0
   -4.8103   -1.2204   -3.8779 O   0  0  0  0  0  0  0  0  0  0  0  0
   -5.7162    0.9202   -4.3695 C   0  0  0  0  0  0  0  0  0  0  0  0
   -5.4333    1.4245   -5.2967 H   0  0  0  0  0  0  0  0  0  0  0  0
   -6.6397    0.3593   -4.5389 H   0  0  0  0  0  0  0  0  0  0  0  0
   -5.8961    1.6704   -3.5952 H   0  0  0  0  0  0  0  0  0  0  0  0
   -3.3746    0.5023   -3.5975 N   0  0  0  0  0  0  0  0  0  0  0  0
   -2.2891   -0.2572   -2.9640 C   0  0  2  0  0  0  0  0  0  0  0  0
   -1.4560    0.6492   -2.0299 C   0  0  0  0  0  0  0  0  0  0  0  0
   -1.6303    1.8637   -2.0777 O   0  0  0  0  0  0  0  0  0  0  0  0
   -1.4097   -0.8626   -4.0631 C   0  0  0  0  0  0  0  0  0  0  0  0
   -3.3057    1.5166   -3.5137 H   0  0  0  0  0  0  0  0  0  0  0  0
   -2.7070   -1.0630   -2.3510 H   0  0  0  0  0  0  0  0  0  0  0  0
   -0.9697   -0.0726   -4.6799 H   0  0  0  0  0  0  0  0  0  0  0  0
   -0.5989   -1.4542   -3.6266 H   0  0  0  0  0  0  0  0  0  0  0  0
   -2.0049   -1.5183   -4.7063 H   0  0  0  0  0  0  0  0  0  0  0  0
   -0.4741    0.0809   -1.2378 N   0  0  0  0  0  0  0  0  0  0  0  0
    0.2281    0.6433   -0.0689 C   0  0  2  0  0  0  0  0  0  0  0  0
   -0.1668    2.0784    0.3711 C   0  0  0  0  0  0  0  0  0  0  0  0
   -1.2500    2.2640    0.9206 O   0  0  0  0  0  0  0  0  0  0  0  0
    1.7300    0.5209   -0.4148 C   0  0  0  0  0  0  0  0  0  0  0  0
    2.2003   -0.9314   -0.4387 C   0  0  0  0  0  0  0  0  0  0  0  0
    1.6166   -1.7650    0.2977 O   0  5  0  0  0  0  0  0  0  0  0  0
    3.1127   -1.2152   -1.2487 O   0  0  0  0  0  0  0  0  0  0  0  0
   -0.3586   -0.9257   -1.3431 H   0  0  0  0  0  0  0  0  0  0  0  0
    0.0059    0.0209    0.8046 H   0  0  0  0  0  0  0  0  0  0  0  0
    2.3278    1.0276    0.3467 H   0  0  0  0  0  0  0  0  0  0  0  0
    1.9343    0.9929   -1.3805 H   0  0  0  0  0  0  0  0  0  0  0  0
    0.7522    3.1141    0.3987 N   0  0  0  0  0  0  0  0  0  0  0  0
    0.4099    4.5051    0.7168 C   0  0  2  0  0  0  0  0  0  0  0  0
    1.0339    5.4973   -0.2847 C   0  0  0  0  0  0  0  0  0  0  0  0
    2.1844    5.3462   -0.6813 O   0  0  0  0  0  0  0  0  0  0  0  0
    0.8860    4.8028    2.1402 C   0  0  0  0  0  0  0  0  0  0  0  0
    1.6212    2.9510   -0.1079 H   0  0  0  0  0  0  0  0  0  0  0  0
   -0.6754    4.6416    0.6724 H   0  0  0  0  0  0  0  0  0  0  0  0
    1.9701    4.6717    2.2171 H   0  0  0  0  0  0  0  0  0  0  0  0
    0.6372    5.8311    2.4189 H   0  0  0  0  0  0  0  0  0  0  0  0
    0.4011    4.1239    2.8489 H   0  0  0  0  0  0  0  0  0  0  0  0
    0.3092    6.5950   -0.7138 N   0  0  0  0  0  0  0  0  0  0  0  0
    0.8008    7.5277   -1.7190 C   0  0  0  0  0  0  0  0  0  0  0  0
   -0.6740    6.6213   -0.4599 H   0  0  0  0  0  0  0  0  0  0  0  0
    1.7585    7.9578   -1.4070 H   0  0  0  0  0  0  0  0  0  0  0  0
    0.9375    7.0182   -2.6787 H   0  0  0  0  0  0  0  0  0  0  0  0
    0.0859    8.3444   -1.8568 H   0  0  0  0  0  0  0  0  0  0  0  0
  1  2  2  0  0  0  0
  1  3  1  0  0  0  0
  1  7  1  0  0  0  0
  3  4  1  0  0  0  0
  3  5  1  0  0  0  0
  3  6  1  0  0  0  0
  7  8  1  0  0  0  0
  7 12  1  0  0  0  0
  8  9  1  0  0  0  0
  8 11  1  0  0  0  0
  8 13  1  0  0  0  0
  9 10  2  0  0  0  0
  9 17  1  0  0  0  0
 11 14  1  0  0  0  0
 11 15  1  0  0  0  0
 11 16  1  0  0  0  0
 17 18  1  0  0  0  0
 17 25  1  0  0  0  0
 18 19  1  0  0  0  0
 18 21  1  0  0  0  0
 18 26  1  0  0  0  0
 19 20  2  0  0  0  0
 19 29  1  0  0  0  0
 21 22  1  0  0  0  0
 21 27  1  0  0  0  0
 21 28  1  0  0  0  0
 22 23  1  0  0  0  0
 22 24  2  0  0  0  0
 29 30  1  0  0  0  0
 29 34  1  0  0  0  0
 30 31  1  0  0  0  0
 30 33  1  0  0  0  0
 30 35  1  0  0  0  0
 31 32  2  0  0  0  0
 31 39  1  0  0  0  0
 33 36  1  0  0  0  0
 33 37  1  0  0  0  0
 33 38  1  0  0  0  0
 39 40  1  0  0  0  0
 39 41  1  0  0  0  0
 40 42  1  0  0  0  0
 40 43  1  0  0  0  0
 40 44  1  0  0  0  0
M  CHG  1  23  -1
M  END
$$$$

  -OEChem-05262215553D

 44 43  0     1  0  0  0  0  0999 V2000
   -4.3008    0.6003   -4.3010 C   0  0  0  0  0  0  0  0  0  0  0  0
   -4.6653   -0.5643   -4.2571 O   0  0  0  0  0  0  0  0  0  0  0  0
   -5.2021    1.6559   -4.9150 C   0  0  0  0  0  0  0  0  0  0  0  0
   -4.7064    2.1147   -5.7739 H   0  0  0  0  0  0  0  0  0  0  0  0
   -6.1410    1.2049   -5.2479 H   0  0  0  0  0  0  0  0  0  0  0  0
   -5.4253    2.4297   -4.1763 H   0  0  0  0  0  0  0  0  0  0  0  0
   -3.0759    0.9712   -3.7917 N   0  0  0  0  0  0  0  0  0  0  0  0
   -2.2024    0.1005   -2.9938 C   0  0  2  0  0  0  0  0  0  0  0  0
   -1.3935    0.9223   -1.9652 C   0  0  0  0  0  0  0  0  0  0  0  0
   -1.4325    2.1484   -2.0230 O   0  0  0  0  0  0  0  0  0  0  0  0
   -1.2662   -0.6557   -3.9430 C   0  0  0  0  0  0  0  0  0  0  0  0
   -2.8871    1.9708   -3.7211 H   0  0  0  0  0  0  0  0  0  0  0  0
   -2.8084   -0.6201   -2.4338 H   0  0  0  0  0  0  0  0  0  0  0  0
   -0.6352    0.0458   -4.4980 H   0  0  0  0  0  0  0  0  0  0  0  0
   -0.6183   -1.3385   -3.3842 H   0  0  0  0  0  0  0  0  0  0  0  0
   -1.8474   -1.2449   -4.6591 H   0  0  0  0  0  0  0  0  0  0  0  0
   -0.5725    0.2686   -1.0644 N   0  0  0  0  0  0  0  0  0  0  0  0
    0.0992    0.7922    0.1394 C   0  0  2  0  0  0  0  0  0  0  0  0
   -0.1271    2.2880    0.4791 C   0  0  0  0  0  0  0  0  0  0  0  0
   -1.1505    2.6410    1.0541 O   0  0  0  0  0  0  0  0  0  0  0  0
    1.5972    0.4829   -0.0740 C   0  0  0  0  0  0  0  0  0  0  0  0
    1.8966   -1.0111   -0.0128 C   0  0  0  0  0  0  0  0  0  0  0  0
    1.1645   -1.7434    0.6966 O   0  5  0  0  0  0  0  0  0  0  0  0
    2.8335   -1.4236   -0.7343 O   0  0  0  0  0  0  0  0  0  0  0  0
   -0.5624   -0.7479   -1.1382 H   0  0  0  0  0  0  0  0  0  0  0  0
   -0.2686    0.2454    1.0147 H   0  0  0  0  0  0  0  0  0  0  0  0
    2.1850    0.9554    0.7173 H   0  0  0  0  0  0  0  0  0  0  0  0
    1.9314    0.8840   -1.0356 H   0  0  0  0  0  0  0  0  0  0  0  0
    0.8548    3.2363    0.2513 N   0  0  0  0  0  0  0  0  0  0  0  0
    0.7411    4.6596    0.6053 C   0  0  2  0  0  0  0  0  0  0  0  0
    0.0304    5.5222   -0.4686 C   0  0  0  0  0  0  0  0  0  0  0  0
    0.1982    6.7383   -0.4977 O   0  0  0  0  0  0  0  0  0  0  0  0
    2.1642    5.1551    0.8883 C   0  0  0  0  0  0  0  0  0  0  0  0
    1.6672    2.9205   -0.2708 H   0  0  0  0  0  0  0  0  0  0  0  0
    0.1584    4.7582    1.5271 H   0  0  0  0  0  0  0  0  0  0  0  0
    2.7694    5.1218   -0.0230 H   0  0  0  0  0  0  0  0  0  0  0  0
    2.1437    6.1862    1.2549 H   0  0  0  0  0  0  0  0  0  0  0  0
    2.6406    4.5306    1.6502 H   0  0  0  0  0  0  0  0  0  0  0  0
   -0.7787    4.9461   -1.4305 N   0  0  0  0  0  0  0  0  0  0  0  0
   -1.5104    5.6996   -2.4362 C   0  0  0  0  0  0  0  0  0  0  0  0
   -0.9513    3.9379   -1.3539 H   0  0  0  0  0  0  0  0  0  0  0  0
   -0.8190    6.2567   -3.0765 H   0  0  0  0  0  0  0  0  0  0  0  0
   -2.0902    5.0166   -3.0641 H   0  0  0  0  0  0  0  0  0  0  0  0
   -2.2001    6.4036   -1.9598 H   0  0  0  0  0  0  0  0  0  0  0  0
  1  2  2  0  0  0  0
  1  3  1  0  0  0  0
  1  7  1  0  0  0  0
  3  4  1  0  0  0  0
  3  5  1  0  0  0  0
  3  6  1  0  0  0  0
  7  8  1  0  0  0  0
  7 12  1  0  0  0  0
  8  9  1  0  0  0  0
  8 11  1  0  0  0  0
  8 13  1  0  0  0  0
  9 10  2  0  0  0  0
  9 17  1  0  0  0  0
 11 14  1  0  0  0  0
 11 15  1  0  0  0  0
 11 16  1  0  0  0  0
 17 18  1  0  0  0  0
 17 25  1  0  0  0  0
 18 19  1  0  0  0  0
 18 21  1  0  0  0  0
 18 26  1  0  0  0  0
 19 20  2  0  0  0  0
 19 29  1  0  0  0  0
 21 22  1  0  0  0  0
 21 27  1  0  0  0  0
 21 28  1  0  0  0  0
 22 23  1  0  0  0  0
 22 24  2  0  0  0  0
 29 30  1  0  0  0  0
 29 34  1  0  0  0  0
 30 31  1  0  0  0  0
 30 33  1  0  0  0  0
 30 35  1  0  0  0  0
 31 32  2  0  0  0  0
 31 39  1  0  0  0  0
 33 36  1  0  0  0  0
 33 37  1  0  0  0  0
 33 38  1  0  0  0  0
 39 40  1  0  0  0  0
 39 41  1  0  0  0  0
 40 42  1  0  0  0  0
 40 43  1  0  0  0  0
 40 44  1  0  0  0  0
M  CHG  1  23  -1
M  END
$$$$

  -OEChem-05262215553D

 44 43  0     1  0  0  0  0  0999 V2000
   -4.3316    0.3312   -4.4073 C   0  0  0  0  0  0  0  0  0  0  0  0
   -4.5854   -0.8630   -4.3893 O   0  0  0  0  0  0  0  0  0  0  0  0
   -5.3101    1.3060   -5.0367 C   0  0  0  0  0  0  0  0  0  0  0  0
   -4.8160    1.8684   -5.8328 H   0  0  0  0  0  0  0  0  0  0  0  0
   -6.1613    0.7666   -5.4614 H   0  0  0  0  0  0  0  0  0  0  0  0
   -5.6767    2.0049   -4.2808 H   0  0  0  0  0  0  0  0  0  0  0  0
   -3.1630    0.8074   -3.8546 N   0  0  0  0  0  0  0  0  0  0  0  0
   -2.2252    0.0064   -3.0564 C   0  0  2  0  0  0  0  0  0  0  0  0
   -1.5044    0.8786   -2.0045 C   0  0  0  0  0  0  0  0  0  0  0  0
   -1.6227    2.0988   -2.0630 O   0  0  0  0  0  0  0  0  0  0  0  0
   -1.2110   -0.6465   -4.0020 C   0  0  0  0  0  0  0  0  0  0  0  0
   -3.0636    1.8189   -3.7765 H   0  0  0  0  0  0  0  0  0  0  0  0
   -2.7712   -0.7750   -2.5165 H   0  0  0  0  0  0  0  0  0  0  0  0
   -0.6457    0.1182   -4.5436 H   0  0  0  0  0  0  0  0  0  0  0  0
   -0.5058   -1.2685   -3.4418 H   0  0  0  0  0  0  0  0  0  0  0  0
   -1.7245   -1.2821   -4.7302 H   0  0  0  0  0  0  0  0  0  0  0  0
   -0.6961    0.2739   -1.0599 N   0  0  0  0  0  0  0  0  0  0  0  0
   -0.0176    0.8554    0.1131 C   0  0  2  0  0  0  0  0  0  0  0  0
   -0.2071    2.3713    0.3757 C   0  0  0  0  0  0  0  0  0  0  0  0
   -1.0840    2.7651    1.1358 O   0  0  0  0  0  0  0  0  0  0  0  0
    1.4763    0.5254   -0.0926 C   0  0  0  0  0  0  0  0  0  0  0  0
    1.7676   -0.9651    0.0433 C   0  0  0  0  0  0  0  0  0  0  0  0
    1.0367   -1.6568    0.7930 O   0  5  0  0  0  0  0  0  0  0  0  0
    2.6831   -1.4216   -0.6791 O   0  0  0  0  0  0  0  0  0  0  0  0
   -0.6405   -0.7428   -1.1136 H   0  0  0  0  0  0  0  0  0  0  0  0
   -0.3875    0.3581    1.0169 H   0  0  0  0  0  0  0  0  0  0  0  0
    2.0702    1.0403    0.6673 H   0  0  0  0  0  0  0  0  0  0  0  0
    1.8075    0.8718   -1.0762 H   0  0  0  0  0  0  0  0  0  0  0  0
    0.6583    3.3024   -0.1726 N   0  0  0  0  0  0  0  0  0  0  0  0
    0.6362    4.7435    0.1224 C   0  0  2  0  0  0  0  0  0  0  0  0
   -0.3073    5.5664   -0.7895 C   0  0  0  0  0  0  0  0  0  0  0  0
   -0.2287    6.7915   -0.8148 O   0  0  0  0  0  0  0  0  0  0  0  0
    2.0852    5.2333    0.0227 C   0  0  0  0  0  0  0  0  0  0  0  0
    1.3454    2.9422   -0.8283 H   0  0  0  0  0  0  0  0  0  0  0  0
    0.2951    4.8968    1.1515 H   0  0  0  0  0  0  0  0  0  0  0  0
    2.4512    5.1408   -1.0046 H   0  0  0  0  0  0  0  0  0  0  0  0
    2.1547    6.2833    0.3241 H   0  0  0  0  0  0  0  0  0  0  0  0
    2.7319    4.6446    0.6807 H   0  0  0  0  0  0  0  0  0  0  0  0
   -1.2180    4.9460   -1.6234 N   0  0  0  0  0  0  0  0  0  0  0  0
   -2.1727    5.6576   -2.4577 C   0  0  0  0  0  0  0  0  0  0  0  0
   -1.2977    3.9265   -1.5450 H   0  0  0  0  0  0  0  0  0  0  0  0
   -1.6516    6.3099   -3.1655 H   0  0  0  0  0  0  0  0  0  0  0  0
   -2.7774    4.9437   -3.0247 H   0  0  0  0  0  0  0  0  0  0  0  0
   -2.8412    6.2652   -1.8394 H   0  0  0  0  0  0  0  0  0  0  0  0
  1  2  2  0  0  0  0
  1  3  1  0  0  0  0
  1  7  1  0  0  0  0
  3  4  1  0  0  0  0
  3  5  1  0  0  0  0
  3  6  1  0  0  0  0
  7  8  1  0  0  0  0
  7 12  1  0  0  0  0
  8  9  1  0  0  0  0
  8 11  1  0  0  0  0
  8 13  1  0  0  0  0
  9 10  2  0  0  0  0
  9 17  1  0  0  0  0
 11 14  1  0  0  0  0
 11 15  1  0  0  0  0
 11 16  1  0  0  0  0
 17 18  1  0  0  0  0
 17 25  1  0  0  0  0
 18 19  1  0  0  0  0
 18 21  1  0  0  0  0
 18 26  1  0  0  0  0
 19 20  2  0  0  0  0
 19 29  1  0  0  0  0
 21 22  1  0  0  0  0
 21 27  1  0  0  0  0
 21 28  1  0  0  0  0
 22 23  1  0  0  0  0
 22 24  2  0  0  0  0
 29 30  1  0  0  0  0
 29 34  1  0  0  0  0
 30 31  1  0  0  0  0
 30 33  1  0  0  0  0
 30 35  1  0  0  0  0
 31 32  2  0  0  0  0
 31 39  1  0  0  0  0
 33 36  1  0  0  0  0
 33 37  1  0  0  0  0
 33 38  1  0  0  0  0
 39 40  1  0  0  0  0
 39 41  1  0  0  0  0
 40 42  1  0  0  0  0
 40 43  1  0  0  0  0
 40 44  1  0  0  0  0
M  CHG  1  23  -1
M  END
$$$$

  -OEChem-05262215553D

 44 43  0     1  0  0  0  0  0999 V2000
   -4.3837    0.1099   -4.4248 C   0  0  0  0  0  0  0  0  0  0  0  0
   -4.6393   -1.0800   -4.3264 O   0  0  0  0  0  0  0  0  0  0  0  0
   -5.3613    1.0407   -5.1185 C   0  0  0  0  0  0  0  0  0  0  0  0
   -4.8732    1.5311   -5.9643 H   0  0  0  0  0  0  0  0  0  0  0  0
   -6.2234    0.4772   -5.4863 H   0  0  0  0  0  0  0  0  0  0  0  0
   -5.7115    1.8023   -4.4174 H   0  0  0  0  0  0  0  0  0  0  0  0
   -3.2166    0.6218   -3.9012 N   0  0  0  0  0  0  0  0  0  0  0  0
   -2.2930   -0.1230   -3.0345 C   0  0  2  0  0  0  0  0  0  0  0  0
   -1.6084    0.8134   -2.0138 C   0  0  0  0  0  0  0  0  0  0  0  0
   -1.7785    2.0243   -2.1100 O   0  0  0  0  0  0  0  0  0  0  0  0
   -1.2508   -0.8207   -3.9157 C   0  0  0  0  0  0  0  0  0  0  0  0
   -3.1246    1.6367   -3.8816 H   0  0  0  0  0  0  0  0  0  0  0  0
   -2.8458   -0.8780   -2.4649 H   0  0  0  0  0  0  0  0  0  0  0  0
   -0.6707   -0.0837   -4.4800 H   0  0  0  0  0  0  0  0  0  0  0  0
   -0.5610   -1.4118   -3.3046 H   0  0  0  0  0  0  0  0  0  0  0  0
   -1.7431   -1.4944   -4.6241 H   0  0  0  0  0  0  0  0  0  0  0  0
   -0.7926    0.2742   -1.0379 N   0  0  0  0  0  0  0  0  0  0  0  0
   -0.0993    0.9196    0.0936 C   0  0  2  0  0  0  0  0  0  0  0  0
   -0.2639    2.4489    0.2872 C   0  0  0  0  0  0  0  0  0  0  0  0
   -0.9214    2.8891    1.2225 O   0  0  0  0  0  0  0  0  0  0  0  0
    1.3908    0.5887   -0.1297 C   0  0  0  0  0  0  0  0  0  0  0  0
    1.6959   -0.8916    0.0711 C   0  0  0  0  0  0  0  0  0  0  0  0
    0.9877   -1.5514    0.8694 O   0  5  0  0  0  0  0  0  0  0  0  0
    2.5802   -1.3815   -0.6685 O   0  0  0  0  0  0  0  0  0  0  0  0
   -0.7006   -0.7415   -1.0557 H   0  0  0  0  0  0  0  0  0  0  0  0
   -0.4492    0.4658    1.0278 H   0  0  0  0  0  0  0  0  0  0  0  0
    1.9960    1.1446    0.5918 H   0  0  0  0  0  0  0  0  0  0  0  0
    1.7000    0.8912   -1.1345 H   0  0  0  0  0  0  0  0  0  0  0  0
    0.3948    3.3450   -0.5373 N   0  0  0  0  0  0  0  0  0  0  0  0
    0.4207    4.8032   -0.3406 C   0  0  2  0  0  0  0  0  0  0  0  0
   -0.7384    5.5639   -1.0287 C   0  0  0  0  0  0  0  0  0  0  0  0
   -0.7536    6.7914   -1.0322 O   0  0  0  0  0  0  0  0  0  0  0  0
    1.7813    5.2909   -0.8487 C   0  0  0  0  0  0  0  0  0  0  0  0
    0.8583    2.9458   -1.3479 H   0  0  0  0  0  0  0  0  0  0  0  0
    0.3561    5.0252    0.7299 H   0  0  0  0  0  0  0  0  0  0  0  0
    1.8702    5.1230   -1.9266 H   0  0  0  0  0  0  0  0  0  0  0  0
    1.9005    6.3612   -0.6525 H   0  0  0  0  0  0  0  0  0  0  0  0
    2.5907    4.7566   -0.3412 H   0  0  0  0  0  0  0  0  0  0  0  0
   -1.7308    4.8880   -1.7125 N   0  0  0  0  0  0  0  0  0  0  0  0
   -2.8648    5.5339   -2.3537 C   0  0  0  0  0  0  0  0  0  0  0  0
   -1.7070    3.8642   -1.6635 H   0  0  0  0  0  0  0  0  0  0  0  0
   -3.4564    6.0859   -1.6163 H   0  0  0  0  0  0  0  0  0  0  0  0
   -2.5222    6.2283   -3.1275 H   0  0  0  0  0  0  0  0  0  0  0  0
   -3.5071    4.7825   -2.8225 H   0  0  0  0  0  0  0  0  0  0  0  0
  1  2  2  0  0  0  0
  1  3  1  0  0  0  0
  1  7  1  0  0  0  0
  3  4  1  0  0  0  0
  3  5  1  0  0  0  0
  3  6  1  0  0  0  0
  7  8  1  0  0  0  0
  7 12  1  0  0  0  0
  8  9  1  0  0  0  0
  8 11  1  0  0  0  0
  8 13  1  0  0  0  0
  9 10  2  0  0  0  0
  9 17  1  0  0  0  0
 11 14  1  0  0  0  0
 11 15  1  0  0  0  0
 11 16  1  0  0  0  0
 17 18  1  0  0  0  0
 17 25  1  0  0  0  0
 18 19  1  0  0  0  0
 18 21  1  0  0  0  0
 18 26  1  0  0  0  0
 19 20  2  0  0  0  0
 19 29  1  0  0  0  0
 21 22  1  0  0  0  0
 21 27  1  0  0  0  0
 21 28  1  0  0  0  0
 22 23  1  0  0  0  0
 22 24  2  0  0  0  0
 29 30  1  0  0  0  0
 29 34  1  0  0  0  0
 30 31  1  0  0  0  0
 30 33  1  0  0  0  0
 30 35  1  0  0  0  0
 31 32  2  0  0  0  0
 31 39  1  0  0  0  0
 33 36  1  0  0  0  0
 33 37  1  0  0  0  0
 33 38  1  0  0  0  0
 39 40  1  0  0  0  0
 39 41  1  0  0  0  0
 40 42  1  0  0  0  0
 40 43  1  0  0  0  0
 40 44  1  0  0  0  0
M  CHG  1  23  -1
M  END
$$$$

  -OEChem-05262215553D

 44 43  0     1  0  0  0  0  0999 V2000
   -4.4458   -0.1546   -4.3881 C   0  0  0  0  0  0  0  0  0  0  0  0
   -4.6657   -1.3427   -4.2140 O   0  0  0  0  0  0  0  0  0  0  0  0
   -5.4531    0.7023   -5.1329 C   0  0  0  0  0  0  0  0  0  0  0  0
   -4.9886    1.1351   -6.0222 H   0  0  0  0  0  0  0  0  0  0  0  0
   -6.3099    0.0969   -5.4419 H   0  0  0  0  0  0  0  0  0  0  0  0
   -5.8067    1.5089   -4.4859 H   0  0  0  0  0  0  0  0  0  0  0  0
   -3.2900    0.4212   -3.9073 N   0  0  0  0  0  0  0  0  0  0  0  0
   -2.3314   -0.2475   -3.0164 C   0  0  2  0  0  0  0  0  0  0  0  0
   -1.6833    0.7557   -2.0369 C   0  0  0  0  0  0  0  0  0  0  0  0
   -1.8780    1.9552   -2.1993 O   0  0  0  0  0  0  0  0  0  0  0  0
   -1.2619   -0.9294   -3.8759 C   0  0  0  0  0  0  0  0  0  0  0  0
   -3.2251    1.4371   -3.9538 H   0  0  0  0  0  0  0  0  0  0  0  0
   -2.8468   -1.0050   -2.4156 H   0  0  0  0  0  0  0  0  0  0  0  0
   -0.7236   -0.1896   -4.4768 H   0  0  0  0  0  0  0  0  0  0  0  0
   -0.5394   -1.4577   -3.2454 H   0  0  0  0  0  0  0  0  0  0  0  0
   -1.7246   -1.6571   -4.5499 H   0  0  0  0  0  0  0  0  0  0  0  0
   -0.8797    0.2867   -1.0168 N   0  0  0  0  0  0  0  0  0  0  0  0
   -0.1827    0.9916    0.0785 C   0  0  2  0  0  0  0  0  0  0  0  0
   -0.3012    2.5334    0.2074 C   0  0  0  0  0  0  0  0  0  0  0  0
   -0.6941    3.0334    1.2543 O   0  0  0  0  0  0  0  0  0  0  0  0
    1.3011    0.6313   -0.1354 C   0  0  0  0  0  0  0  0  0  0  0  0
    1.5892   -0.8398    0.1451 C   0  0  0  0  0  0  0  0  0  0  0  0
    0.8778   -1.4446    0.9833 O   0  5  0  0  0  0  0  0  0  0  0  0
    2.4453   -1.3872   -0.5876 O   0  0  0  0  0  0  0  0  0  0  0  0
   -0.7715   -0.7275   -0.9818 H   0  0  0  0  0  0  0  0  0  0  0  0
   -0.5361    0.5889    1.0348 H   0  0  0  0  0  0  0  0  0  0  0  0
    1.9172    1.2182    0.5514 H   0  0  0  0  0  0  0  0  0  0  0  0
    1.6083    0.8790   -1.1558 H   0  0  0  0  0  0  0  0  0  0  0  0
    0.1194    3.3787   -0.8049 N   0  0  0  0  0  0  0  0  0  0  0  0
    0.1233    4.8491   -0.7188 C   0  0  2  0  0  0  0  0  0  0  0  0
   -1.1950    5.5210   -1.1709 C   0  0  0  0  0  0  0  0  0  0  0  0
   -1.2978    6.7440   -1.1659 O   0  0  0  0  0  0  0  0  0  0  0  0
    1.3052    5.3374   -1.5611 C   0  0  0  0  0  0  0  0  0  0  0  0
    0.2228    2.9393   -1.7160 H   0  0  0  0  0  0  0  0  0  0  0  0
    0.2961    5.1530    0.3191 H   0  0  0  0  0  0  0  0  0  0  0  0
    1.1570    5.0823   -2.6150 H   0  0  0  0  0  0  0  0  0  0  0  0
    1.4101    6.4236   -1.4770 H   0  0  0  0  0  0  0  0  0  0  0  0
    2.2342    4.8743   -1.2147 H   0  0  0  0  0  0  0  0  0  0  0  0
   -2.2423    4.7702   -1.6699 N   0  0  0  0  0  0  0  0  0  0  0  0
   -3.5146    5.3253   -2.1027 C   0  0  0  0  0  0  0  0  0  0  0  0
   -2.1175    3.7537   -1.6712 H   0  0  0  0  0  0  0  0  0  0  0  0
   -4.0013    5.8543   -1.2772 H   0  0  0  0  0  0  0  0  0  0  0  0
   -3.3661    6.0225   -2.9333 H   0  0  0  0  0  0  0  0  0  0  0  0
   -4.1770    4.5219   -2.4381 H   0  0  0  0  0  0  0  0  0  0  0  0
  1  2  2  0  0  0  0
  1  3  1  0  0  0  0
  1  7  1  0  0  0  0
  3  4  1  0  0  0  0
  3  5  1  0  0  0  0
  3  6  1  0  0  0  0
  7  8  1  0  0  0  0
  7 12  1  0  0  0  0
  8  9  1  0  0  0  0
  8 11  1  0  0  0  0
  8 13  1  0  0  0  0
  9 10  2  0  0  0  0
  9 17  1  0  0  0  0
 11 14  1  0  0  0  0
 11 15  1  0  0  0  0
 11 16  1  0  0  0  0
 17 18  1  0  0  0  0
 17 25  1  0  0  0  0
 18 19  1  0  0  0  0
 18 21  1  0  0  0  0
 18 26  1  0  0  0  0
 19 20  2  0  0  0  0
 19 29  1  0  0  0  0
 21 22  1  0  0  0  0
 21 27  1  0  0  0  0
 21 28  1  0  0  0  0
 22 23  1  0  0  0  0
 22 24  2  0  0  0  0
 29 30  1  0  0  0  0
 29 34  1  0  0  0  0
 30 31  1  0  0  0  0
 30 33  1  0  0  0  0
 30 35  1  0  0  0  0
 31 32  2  0  0  0  0
 31 39  1  0  0  0  0
 33 36  1  0  0  0  0
 33 37  1  0  0  0  0
 33 38  1  0  0  0  0
 39 40  1  0  0  0  0
 39 41  1  0  0  0  0
 40 42  1  0  0  0  0
 40 43  1  0  0  0  0
 40 44  1  0  0  0  0
M  CHG  1  23  -1
M  END
$$$$

  -OEChem-05262215553D

 44 43  0     1  0  0  0  0  0999 V2000
   -4.3650   -0.3870   -4.5172 C   0  0  0  0  0  0  0  0  0  0  0  0
   -4.6075   -1.5571   -4.2673 O   0  0  0  0  0  0  0  0  0  0  0  0
   -5.2984    0.4075   -5.4122 C   0  0  0  0  0  0  0  0  0  0  0  0
   -4.7497    0.7937   -6.2747 H   0  0  0  0  0  0  0  0  0  0  0  0
   -6.1131   -0.2289   -5.7688 H   0  0  0  0  0  0  0  0  0  0  0  0
   -5.7234    1.2461   -4.8548 H   0  0  0  0  0  0  0  0  0  0  0  0
   -3.2544    0.2285   -3.9821 N   0  0  0  0  0  0  0  0  0  0  0  0
   -2.3799   -0.3663   -2.9612 C   0  0  2  0  0  0  0  0  0  0  0  0
   -1.7919    0.7140   -2.0254 C   0  0  0  0  0  0  0  0  0  0  0  0
   -2.0459    1.8939   -2.2446 O   0  0  0  0  0  0  0  0  0  0  0  0
   -1.2613   -1.1412   -3.6677 C   0  0  0  0  0  0  0  0  0  0  0  0
   -3.1830    1.2377   -4.1028 H   0  0  0  0  0  0  0  0  0  0  0  0
   -2.9561   -1.0586   -2.3376 H   0  0  0  0  0  0  0  0  0  0  0  0
   -0.6508   -0.4658   -4.2753 H   0  0  0  0  0  0  0  0  0  0  0  0
   -0.6115   -1.6349   -2.9377 H   0  0  0  0  0  0  0  0  0  0  0  0
   -1.6862   -1.9102   -4.3204 H   0  0  0  0  0  0  0  0  0  0  0  0
   -0.9818    0.3280   -0.9759 N   0  0  0  0  0  0  0  0  0  0  0  0
   -0.2532    1.0904    0.0618 C   0  0  2  0  0  0  0  0  0  0  0  0
   -0.3103    2.6417    0.1164 C   0  0  0  0  0  0  0  0  0  0  0  0
   -0.4257    3.2051    1.1978 O   0  0  0  0  0  0  0  0  0  0  0  0
    1.2144    0.6766   -0.1650 C   0  0  0  0  0  0  0  0  0  0  0  0
    1.4713   -0.7815    0.2019 C   0  0  0  0  0  0  0  0  0  0  0  0
    0.7664   -1.3116    1.0942 O   0  5  0  0  0  0  0  0  0  0  0  0
    2.2757   -1.4033   -0.5300 O   0  0  0  0  0  0  0  0  0  0  0  0
   -0.8404   -0.6802   -0.9000 H   0  0  0  0  0  0  0  0  0  0  0  0
   -0.5979    0.7530    1.0463 H   0  0  0  0  0  0  0  0  0  0  0  0
    1.8637    1.2866    0.4691 H   0  0  0  0  0  0  0  0  0  0  0  0
    1.5017    0.8541   -1.2057 H   0  0  0  0  0  0  0  0  0  0  0  0
   -0.1708    3.4301   -1.0116 N   0  0  0  0  0  0  0  0  0  0  0  0
   -0.2779    4.8985   -1.0050 C   0  0  2  0  0  0  0  0  0  0  0  0
   -1.7313    5.4239   -1.0687 C   0  0  0  0  0  0  0  0  0  0  0  0
   -1.9565    6.6273   -0.9860 O   0  0  0  0  0  0  0  0  0  0  0  0
    0.5332    5.4103   -2.1979 C   0  0  0  0  0  0  0  0  0  0  0  0
   -0.3727    2.9391   -1.8822 H   0  0  0  0  0  0  0  0  0  0  0  0
    0.1712    5.2948   -0.0881 H   0  0  0  0  0  0  0  0  0  0  0  0
    0.0986    5.0549   -3.1375 H   0  0  0  0  0  0  0  0  0  0  0  0
    0.5419    6.5047   -2.2098 H   0  0  0  0  0  0  0  0  0  0  0  0
    1.5671    5.0574   -2.1336 H   0  0  0  0  0  0  0  0  0  0  0  0
   -2.7843    4.5658   -1.3268 N   0  0  0  0  0  0  0  0  0  0  0  0
   -4.1748    4.9818   -1.4146 C   0  0  0  0  0  0  0  0  0  0  0  0
   -2.5511    3.5773   -1.4500 H   0  0  0  0  0  0  0  0  0  0  0  0
   -4.3106    5.6919   -2.2366 H   0  0  0  0  0  0  0  0  0  0  0  0
   -4.8144    4.1132   -1.5964 H   0  0  0  0  0  0  0  0  0  0  0  0
   -4.4910    5.4555   -0.4796 H   0  0  0  0  0  0  0  0  0  0  0  0
  1  2  2  0  0  0  0
  1  3  1  0  0  0  0
  1  7  1  0  0  0  0
  3  4  1  0  0  0  0
  3  5  1  0  0  0  0
  3  6  1  0  0  0  0
  7  8  1  0  0  0  0
  7 12  1  0  0  0  0
  8  9  1  0  0  0  0
  8 11  1  0  0  0  0
  8 13  1  0  0  0  0
  9 10  2  0  0  0  0
  9 17  1  0  0  0  0
 11 14  1  0  0  0  0
 11 15  1  0  0  0  0
 11 16  1  0  0  0  0
 17 18  1  0  0  0  0
 17 25  1  0  0  0  0
 18 19  1  0  0  0  0
 18 21  1  0  0  0  0
 18 26  1  0  0  0  0
 19 20  2  0  0  0  0
 19 29  1  0  0  0  0
 21 22  1  0  0  0  0
 21 27  1  0  0  0  0
 21 28  1  0  0  0  0
 22 23  1  0  0  0  0
 22 24  2  0  0  0  0
 29 30  1  0  0  0  0
 29 34  1  0  0  0  0
 30 31  1  0  0  0  0
 30 33  1  0  0  0  0
 30 35  1  0  0  0  0
 31 32  2  0  0  0  0
 31 39  1  0  0  0  0
 33 36  1  0  0  0  0
 33 37  1  0  0  0  0
 33 38  1  0  0  0  0
 39 40  1  0  0  0  0
 39 41  1  0  0  0  0
 40 42  1  0  0  0  0
 40 43  1  0  0  0  0
 40 44  1  0  0  0  0
M  CHG  1  23  -1
M  END
$$$$

  -OEChem-05262215553D

 44 43  0     1  0  0  0  0  0999 V2000
   -4.1883    0.2028   -4.2207 C   0  0  0  0  0  0  0  0  0  0  0  0
   -4.4710   -0.9560   -4.4893 O   0  0  0  0  0  0  0  0  0  0  0  0
   -5.0551    1.3362   -4.7378 C   0  0  0  0  0  0  0  0  0  0  0  0
   -4.4560    2.0083   -5.3571 H   0  0  0  0  0  0  0  0  0  0  0  0
   -5.8798    0.9412   -5.3370 H   0  0  0  0  0  0  0  0  0  0  0  0
   -5.4657    1.9020   -3.8976 H   0  0  0  0  0  0  0  0  0  0  0  0
   -3.0923    0.5008   -3.4435 N   0  0  0  0  0  0  0  0  0  0  0  0
   -2.3267   -0.4932   -2.6710 C   0  0  2  0  0  0  0  0  0  0  0  0
   -1.9488    0.0787   -1.2861 C   0  0  0  0  0  0  0  0  0  0  0  0
   -2.6995    0.8880   -0.7562 O   0  0  0  0  0  0  0  0  0  0  0  0
   -1.0977   -0.8923   -3.4983 C   0  0  0  0  0  0  0  0  0  0  0  0
   -3.0298    1.4786   -3.1397 H   0  0  0  0  0  0  0  0  0  0  0  0
   -2.9357   -1.3855   -2.4909 H   0  0  0  0  0  0  0  0  0  0  0  0
   -0.4487   -0.0270   -3.6669 H   0  0  0  0  0  0  0  0  0  0  0  0
   -0.5189   -1.6688   -2.9882 H   0  0  0  0  0  0  0  0  0  0  0  0
   -1.4105   -1.2857   -4.4705 H   0  0  0  0  0  0  0  0  0  0  0  0
   -0.7520   -0.2194   -0.6629 N   0  0  0  0  0  0  0  0  0  0  0  0
    0.2006    0.7219   -0.0205 C   0  0  2  0  0  0  0  0  0  0  0  0
   -0.0957    2.2510   -0.0029 C   0  0  0  0  0  0  0  0  0  0  0  0
    0.2902    2.9564    0.9234 O   0  0  0  0  0  0  0  0  0  0  0  0
    1.5032    0.5258   -0.8222 C   0  0  0  0  0  0  0  0  0  0  0  0
    2.1485   -0.8366   -0.5953 C   0  0  0  0  0  0  0  0  0  0  0  0
    1.9789   -1.4139    0.5043 O   0  5  0  0  0  0  0  0  0  0  0  0
    2.6634   -1.3698   -1.6054 O   0  0  0  0  0  0  0  0  0  0  0  0
   -0.2890   -1.0464   -1.0381 H   0  0  0  0  0  0  0  0  0  0  0  0
    0.3413    0.4244    1.0247 H   0  0  0  0  0  0  0  0  0  0  0  0
    2.2328    1.2779   -0.5087 H   0  0  0  0  0  0  0  0  0  0  0  0
    1.3145    0.6732   -1.8898 H   0  0  0  0  0  0  0  0  0  0  0  0
   -0.8154    2.8520   -1.0184 N   0  0  0  0  0  0  0  0  0  0  0  0
   -1.4809    4.1491   -0.9238 C   0  0  2  0  0  0  0  0  0  0  0  0
   -2.7927    4.1328   -1.7433 C   0  0  0  0  0  0  0  0  0  0  0  0
   -2.9133    3.4117   -2.7348 O   0  0  0  0  0  0  0  0  0  0  0  0
   -0.5320    5.2328   -1.4401 C   0  0  0  0  0  0  0  0  0  0  0  0
   -1.2896    2.1826   -1.6203 H   0  0  0  0  0  0  0  0  0  0  0  0
   -1.7363    4.3550    0.1208 H   0  0  0  0  0  0  0  0  0  0  0  0
   -0.2599    5.0365   -2.4820 H   0  0  0  0  0  0  0  0  0  0  0  0
   -1.0063    6.2168   -1.3807 H   0  0  0  0  0  0  0  0  0  0  0  0
    0.3827    5.2514   -0.8388 H   0  0  0  0  0  0  0  0  0  0  0  0
   -3.8526    4.9396   -1.3708 N   0  0  0  0  0  0  0  0  0  0  0  0
   -5.1598    4.8758   -2.0106 C   0  0  0  0  0  0  0  0  0  0  0  0
   -3.7671    5.4251   -0.4828 H   0  0  0  0  0  0  0  0  0  0  0  0
   -5.0730    5.0820   -3.0824 H   0  0  0  0  0  0  0  0  0  0  0  0
   -5.6024    3.8833   -1.8758 H   0  0  0  0  0  0  0  0  0  0  0  0
   -5.8316    5.6188   -1.5706 H   0  0  0  0  0  0  0  0  0  0  0  0
  1  2  2  0  0  0  0
  1  3  1  0  0  0  0
  1  7  1  0  0  0  0
  3  4  1  0  0  0  0
  3  5  1  0  0  0  0
  3  6  1  0  0  0  0
  7  8  1  0  0  0  0
  7 12  1  0  0  0  0
  8  9  1  0  0  0  0
  8 11  1  0  0  0  0
  8 13  1  0  0  0  0
  9 10  2  0  0  0  0
  9 17  1  0  0  0  0
 11 14  1  0  0  0  0
 11 15  1  0  0  0  0
 11 16  1  0  0  0  0
 17 18  1  0  0  0  0
 17 25  1  0  0  0  0
 18 19  1  0  0  0  0
 18 21  1  0  0  0  0
 18 26  1  0  0  0  0
 19 20  2  0  0  0  0
 19 29  1  0  0  0  0
 21 22  1  0  0  0  0
 21 27  1  0  0  0  0
 21 28  1  0  0  0  0
 22 23  1  0  0  0  0
 22 24  2  0  0  0  0
 29 30  1  0  0  0  0
 29 34  1  0  0  0  0
 30 31  1  0  0  0  0
 30 33  1  0  0  0  0
 30 35  1  0  0  0  0
 31 32  2  0  0  0  0
 31 39  1  0  0  0  0
 33 36  1  0  0  0  0
 33 37  1  0  0  0  0
 33 38  1  0  0  0  0
 39 40  1  0  0  0  0
 39 41  1  0  0  0  0
 40 42  1  0  0  0  0
 40 43  1  0  0  0  0
 40 44  1  0  0  0  0
M  CHG  1  23  -1
M  END
$$$$

  -OEChem-05262215553D

 44 43  0     1  0  0  0  0  0999 V2000
   -4.3364    0.0303   -4.1285 C   0  0  0  0  0  0  0  0  0  0  0  0
   -4.4577   -1.1004   -4.5778 O   0  0  0  0  0  0  0  0  0  0  0  0
   -5.3825    1.0857   -4.4360 C   0  0  0  0  0  0  0  0  0  0  0  0
   -4.9210    1.9227   -4.9659 H   0  0  0  0  0  0  0  0  0  0  0  0
   -6.1763    0.6647   -5.0584 H   0  0  0  0  0  0  0  0  0  0  0  0
   -5.8202    1.4549   -3.5049 H   0  0  0  0  0  0  0  0  0  0  0  0
   -3.2590    0.3664   -3.3405 N   0  0  0  0  0  0  0  0  0  0  0  0
   -2.3161   -0.6081   -2.7620 C   0  0  2  0  0  0  0  0  0  0  0  0
   -2.0175   -0.2641   -1.2849 C   0  0  0  0  0  0  0  0  0  0  0  0
   -2.8759    0.3058   -0.6215 O   0  0  0  0  0  0  0  0  0  0  0  0
   -1.0541   -0.6073   -3.6336 C   0  0  0  0  0  0  0  0  0  0  0  0
   -3.3208    1.2866   -2.8926 H   0  0  0  0  0  0  0  0  0  0  0  0
   -2.7508   -1.6132   -2.7711 H   0  0  0  0  0  0  0  0  0  0  0  0
   -0.5843    0.3814   -3.6281 H   0  0  0  0  0  0  0  0  0  0  0  0
   -0.3280   -1.3425   -3.2718 H   0  0  0  0  0  0  0  0  0  0  0  0
   -1.3109   -0.8629   -4.6663 H   0  0  0  0  0  0  0  0  0  0  0  0
   -0.7822   -0.4721   -0.7033 N   0  0  0  0  0  0  0  0  0  0  0  0
    0.0828    0.5307   -0.0261 C   0  0  2  0  0  0  0  0  0  0  0  0
   -0.3520    2.0262    0.0952 C   0  0  0  0  0  0  0  0  0  0  0  0
    0.2616    2.7973    0.8254 O   0  0  0  0  0  0  0  0  0  0  0  0
    1.3848    0.4936   -0.8546 C   0  0  0  0  0  0  0  0  0  0  0  0
    2.1619   -0.8086   -0.6987 C   0  0  0  0  0  0  0  0  0  0  0  0
    2.0703   -1.4476    0.3759 O   0  5  0  0  0  0  0  0  0  0  0  0
    2.6988   -1.2475   -1.7425 O   0  0  0  0  0  0  0  0  0  0  0  0
   -0.2306   -1.1823   -1.1829 H   0  0  0  0  0  0  0  0  0  0  0  0
    0.2707    0.1916    0.9986 H   0  0  0  0  0  0  0  0  0  0  0  0
    2.0491    1.2941   -0.5176 H   0  0  0  0  0  0  0  0  0  0  0  0
    1.1652    0.6724   -1.9108 H   0  0  0  0  0  0  0  0  0  0  0  0
   -1.3762    2.5603   -0.6606 N   0  0  0  0  0  0  0  0  0  0  0  0
   -1.8534    3.9412   -0.6755 C   0  0  2  0  0  0  0  0  0  0  0  0
   -3.2301    4.0135   -1.3759 C   0  0  0  0  0  0  0  0  0  0  0  0
   -3.5457    3.1966   -2.2417 O   0  0  0  0  0  0  0  0  0  0  0  0
   -0.8479    4.8280   -1.4194 C   0  0  0  0  0  0  0  0  0  0  0  0
   -2.0297    1.8657   -1.0237 H   0  0  0  0  0  0  0  0  0  0  0  0
   -1.9651    4.2950    0.3543 H   0  0  0  0  0  0  0  0  0  0  0  0
   -0.7051    4.4661   -2.4426 H   0  0  0  0  0  0  0  0  0  0  0  0
   -1.2059    5.8609   -1.4601 H   0  0  0  0  0  0  0  0  0  0  0  0
    0.1211    4.8203   -0.9111 H   0  0  0  0  0  0  0  0  0  0  0  0
   -4.1249    5.0136   -1.0401 N   0  0  0  0  0  0  0  0  0  0  0  0
   -5.4702    5.1002   -1.5923 C   0  0  0  0  0  0  0  0  0  0  0  0
   -3.8658    5.6303   -0.2757 H   0  0  0  0  0  0  0  0  0  0  0  0
   -5.4317    5.1976   -2.6823 H   0  0  0  0  0  0  0  0  0  0  0  0
   -6.0465    4.2046   -1.3370 H   0  0  0  0  0  0  0  0  0  0  0  0
   -5.9890    5.9738   -1.1862 H   0  0  0  0  0  0  0  0  0  0  0  0
  1  2  2  0  0  0  0
  1  3  1  0  0  0  0
  1  7  1  0  0  0  0
  3  4  1  0  0  0  0
  3  5  1  0  0  0  0
  3  6  1  0  0  0  0
  7  8  1  0  0  0  0
  7 12  1  0  0  0  0
  8  9  1  0  0  0  0
  8 11  1  0  0  0  0
  8 13  1  0  0  0  0
  9 10  2  0  0  0  0
  9 17  1  0  0  0  0
 11 14  1  0  0  0  0
 11 15  1  0  0  0  0
 11 16  1  0  0  0  0
 17 18  1  0  0  0  0
 17 25  1  0  0  0  0
 18 19  1  0  0  0  0
 18 21  1  0  0  0  0
 18 26  1  0  0  0  0
 19 20  2  0  0  0  0
 19 29  1  0  0  0  0
 21 22  1  0  0  0  0
 21 27  1  0  0  0  0
 21 28  1  0  0  0  0
 22 23  1  0  0  0  0
 22 24  2  0  0  0  0
 29 30  1  0  0  0  0
 29 34  1  0  0  0  0
 30 31  1  0  0  0  0
 30 33  1  0  0  0  0
 30 35  1  0  0  0  0
 31 32  2  0  0  0  0
 31 39  1  0  0  0  0
 33 36  1  0  0  0  0
 33 37  1  0  0  0  0
 33 38  1  0  0  0  0
 39 40  1  0  0  0  0
 39 41  1  0  0  0  0
 40 42  1  0  0  0  0
 40 43  1  0  0  0  0
 40 44  1  0  0  0  0
M  CHG  1  23  -1
M  END
$$$$

  -OEChem-05262215553D

 44 43  0     1  0  0  0  0  0999 V2000
   -4.0379   -0.8011   -5.4801 C   0  0  0  0  0  0  0  0  0  0  0  0
   -4.0618   -2.0171   -5.3732 O   0  0  0  0  0  0  0  0  0  0  0  0
   -5.0502   -0.0984   -6.3665 C   0  0  0  0  0  0  0  0  0  0  0  0
   -4.5346    0.5046   -7.1177 H   0  0  0  0  0  0  0  0  0  0  0  0
   -5.6808   -0.8324   -6.8758 H   0  0  0  0  0  0  0  0  0  0  0  0
   -5.6857    0.5532   -5.7616 H   0  0  0  0  0  0  0  0  0  0  0  0
   -3.1107   -0.0538   -4.7868 N   0  0  0  0  0  0  0  0  0  0  0  0
   -2.2394   -0.5806   -3.7264 C   0  0  2  0  0  0  0  0  0  0  0  0
   -1.9954    0.4767   -2.6250 C   0  0  0  0  0  0  0  0  0  0  0  0
   -2.4226    1.6109   -2.8023 O   0  0  0  0  0  0  0  0  0  0  0  0
   -0.9144   -1.0246   -4.3555 C   0  0  0  0  0  0  0  0  0  0  0  0
   -3.2367    0.9577   -4.7952 H   0  0  0  0  0  0  0  0  0  0  0  0
   -2.7160   -1.4443   -3.2495 H   0  0  0  0  0  0  0  0  0  0  0  0
   -0.4062   -0.1744   -4.8211 H   0  0  0  0  0  0  0  0  0  0  0  0
   -0.2507   -1.4530   -3.5973 H   0  0  0  0  0  0  0  0  0  0  0  0
   -1.0950   -1.7854   -5.1211 H   0  0  0  0  0  0  0  0  0  0  0  0
   -1.3186    0.0954   -1.4808 N   0  0  0  0  0  0  0  0  0  0  0  0
   -0.8827    0.7808   -0.2391 C   0  0  2  0  0  0  0  0  0  0  0  0
   -1.1289    2.2873    0.0867 C   0  0  0  0  0  0  0  0  0  0  0  0
   -0.8034    2.7122    1.1921 O   0  0  0  0  0  0  0  0  0  0  0  0
    0.6420    0.5237   -0.2571 C   0  0  0  0  0  0  0  0  0  0  0  0
    0.9882   -0.9446   -0.0266 C   0  0  0  0  0  0  0  0  0  0  0  0
    0.2074   -1.6453    0.6626 O   0  5  0  0  0  0  0  0  0  0  0  0
    1.9563   -1.3969   -0.6804 O   0  0  0  0  0  0  0  0  0  0  0  0
   -1.0308   -0.8843   -1.4932 H   0  0  0  0  0  0  0  0  0  0  0  0
   -1.3451    0.2553    0.6034 H   0  0  0  0  0  0  0  0  0  0  0  0
    1.1243    1.0895    0.5444 H   0  0  0  0  0  0  0  0  0  0  0  0
    1.0699    0.8637   -1.2050 H   0  0  0  0  0  0  0  0  0  0  0  0
   -1.7801    3.1957   -0.7229 N   0  0  0  0  0  0  0  0  0  0  0  0
   -1.9897    4.6217   -0.4275 C   0  0  2  0  0  0  0  0  0  0  0  0
   -3.1791    4.8741    0.5337 C   0  0  0  0  0  0  0  0  0  0  0  0
   -4.0500    5.7043    0.2884 O   0  0  0  0  0  0  0  0  0  0  0  0
   -2.1529    5.3332   -1.7759 C   0  0  0  0  0  0  0  0  0  0  0  0
   -2.1118    2.8337   -1.6179 H   0  0  0  0  0  0  0  0  0  0  0  0
   -1.0944    5.0239    0.0575 H   0  0  0  0  0  0  0  0  0  0  0  0
   -3.0451    4.9688   -2.2953 H   0  0  0  0  0  0  0  0  0  0  0  0
   -2.2526    6.4129   -1.6275 H   0  0  0  0  0  0  0  0  0  0  0  0
   -1.2801    5.1509   -2.4103 H   0  0  0  0  0  0  0  0  0  0  0  0
   -3.2412    4.1764    1.7237 N   0  0  0  0  0  0  0  0  0  0  0  0
   -4.2894    4.3322    2.7199 C   0  0  0  0  0  0  0  0  0  0  0  0
   -2.4665    3.5294    1.8991 H   0  0  0  0  0  0  0  0  0  0  0  0
   -4.2874    5.3506    3.1209 H   0  0  0  0  0  0  0  0  0  0  0  0
   -5.2701    4.1266    2.2788 H   0  0  0  0  0  0  0  0  0  0  0  0
   -4.1279    3.6329    3.5458 H   0  0  0  0  0  0  0  0  0  0  0  0
  1  2  2  0  0  0  0
  1  3  1  0  0  0  0
  1  7  1  0  0  0  0
  3  4  1  0  0  0  0
  3  5  1  0  0  0  0
  3  6  1  0  0  0  0
  7  8  1  0  0  0  0
  7 12  1  0  0  0  0
  8  9  1  0  0  0  0
  8 11  1  0  0  0  0
  8 13  1  0  0  0  0
  9 10  2  0  0  0  0
  9 17  1  0  0  0  0
 11 14  1  0  0  0  0
 11 15  1  0  0  0  0
 11 16  1  0  0  0  0
 17 18  1  0  0  0  0
 17 25  1  0  0  0  0
 18 19  1  0  0  0  0
 18 21  1  0  0  0  0
 18 26  1  0  0  0  0
 19 20  2  0  0  0  0
 19 29  1  0  0  0  0
 21 22  1  0  0  0  0
 21 27  1  0  0  0  0
 21 28  1  0  0  0  0
 22 23  1  0  0  0  0
 22 24  2  0  0  0  0
 29 30  1  0  0  0  0
 29 34  1  0  0  0  0
 30 31  1  0  0  0  0
 30 33  1  0  0  0  0
 30 35  1  0  0  0  0
 31 32  2  0  0  0  0
 31 39  1  0  0  0  0
 33 36  1  0  0  0  0
 33 37  1  0  0  0  0
 33 38  1  0  0  0  0
 39 40  1  0  0  0  0
 39 41  1  0  0  0  0
 40 42  1  0  0  0  0
 40 43  1  0  0  0  0
 40 44  1  0  0  0  0
M  CHG  1  23  -1
M  END
$$$$

  -OEChem-05262215553D

 44 43  0     1  0  0  0  0  0999 V2000
   -3.7108   -1.1703   -5.4092 C   0  0  0  0  0  0  0  0  0  0  0  0
   -3.5870   -2.3779   -5.2792 O   0  0  0  0  0  0  0  0  0  0  0  0
   -4.7313   -0.6134   -6.3850 C   0  0  0  0  0  0  0  0  0  0  0  0
   -4.2393    0.0507   -7.0999 H   0  0  0  0  0  0  0  0  0  0  0  0
   -5.2133   -1.4273   -6.9338 H   0  0  0  0  0  0  0  0  0  0  0  0
   -5.4959   -0.0513   -5.8428 H   0  0  0  0  0  0  0  0  0  0  0  0
   -2.9417   -0.3017   -4.6657 N   0  0  0  0  0  0  0  0  0  0  0  0
   -2.0625   -0.7007   -3.5577 C   0  0  2  0  0  0  0  0  0  0  0  0
   -1.9880    0.3998   -2.4736 C   0  0  0  0  0  0  0  0  0  0  0  0
   -2.5810    1.4539   -2.6688 O   0  0  0  0  0  0  0  0  0  0  0  0
   -0.6702   -1.0026   -4.1252 C   0  0  0  0  0  0  0  0  0  0  0  0
   -3.1926    0.6854   -4.7021 H   0  0  0  0  0  0  0  0  0  0  0  0
   -2.4571   -1.6037   -3.0787 H   0  0  0  0  0  0  0  0  0  0  0  0
   -0.2407   -0.1067   -4.5845 H   0  0  0  0  0  0  0  0  0  0  0  0
    0.0054   -1.3455   -3.3346 H   0  0  0  0  0  0  0  0  0  0  0  0
   -0.7325   -1.7886   -4.8844 H   0  0  0  0  0  0  0  0  0  0  0  0
   -1.2487    0.1514   -1.3321 N   0  0  0  0  0  0  0  0  0  0  0  0
   -0.9141    0.9183   -0.1071 C   0  0  2  0  0  0  0  0  0  0  0  0
   -1.4018    2.3740    0.1844 C   0  0  0  0  0  0  0  0  0  0  0  0
   -0.9448    2.9816    1.1490 O   0  0  0  0  0  0  0  0  0  0  0  0
    0.6335    0.8750   -0.1373 C   0  0  0  0  0  0  0  0  0  0  0  0
    1.1798   -0.5273    0.1179 C   0  0  0  0  0  0  0  0  0  0  0  0
    0.5074   -1.3134    0.8295 O   0  5  0  0  0  0  0  0  0  0  0  0
    2.1891   -0.8601   -0.5453 O   0  0  0  0  0  0  0  0  0  0  0  0
   -0.8125   -0.7720   -1.3313 H   0  0  0  0  0  0  0  0  0  0  0  0
   -1.2890    0.3493    0.7503 H   0  0  0  0  0  0  0  0  0  0  0  0
    1.0432    1.5130    0.6496 H   0  0  0  0  0  0  0  0  0  0  0  0
    1.0038    1.2541   -1.0948 H   0  0  0  0  0  0  0  0  0  0  0  0
   -2.4201    3.0223   -0.4868 N   0  0  0  0  0  0  0  0  0  0  0  0
   -2.8021    4.4323   -0.3034 C   0  0  2  0  0  0  0  0  0  0  0  0
   -3.7274    4.6683    0.9179 C   0  0  0  0  0  0  0  0  0  0  0  0
   -4.7458    5.3498    0.8391 O   0  0  0  0  0  0  0  0  0  0  0  0
   -3.4358    4.8911   -1.6225 C   0  0  0  0  0  0  0  0  0  0  0  0
   -2.7592    2.5441   -1.3230 H   0  0  0  0  0  0  0  0  0  0  0  0
   -1.8989    5.0291   -0.1401 H   0  0  0  0  0  0  0  0  0  0  0  0
   -4.3614    4.3392   -1.8152 H   0  0  0  0  0  0  0  0  0  0  0  0
   -3.6689    5.9595   -1.5812 H   0  0  0  0  0  0  0  0  0  0  0  0
   -2.7471    4.7200   -2.4555 H   0  0  0  0  0  0  0  0  0  0  0  0
   -3.3731    4.1440    2.1448 N   0  0  0  0  0  0  0  0  0  0  0  0
   -4.1234    4.3381    3.3753 C   0  0  0  0  0  0  0  0  0  0  0  0
   -2.4838    3.6357    2.1679 H   0  0  0  0  0  0  0  0  0  0  0  0
   -4.1651    5.4007    3.6344 H   0  0  0  0  0  0  0  0  0  0  0  0
   -5.1442    3.9590    3.2639 H   0  0  0  0  0  0  0  0  0  0  0  0
   -3.6419    3.7988    4.1964 H   0  0  0  0  0  0  0  0  0  0  0  0
  1  2  2  0  0  0  0
  1  3  1  0  0  0  0
  1  7  1  0  0  0  0
  3  4  1  0  0  0  0
  3  5  1  0  0  0  0
  3  6  1  0  0  0  0
  7  8  1  0  0  0  0
  7 12  1  0  0  0  0
  8  9  1  0  0  0  0
  8 11  1  0  0  0  0
  8 13  1  0  0  0  0
  9 10  2  0  0  0  0
  9 17  1  0  0  0  0
 11 14  1  0  0  0  0
 11 15  1  0  0  0  0
 11 16  1  0  0  0  0
 17 18  1  0  0  0  0
 17 25  1  0  0  0  0
 18 19  1  0  0  0  0
 18 21  1  0  0  0  0
 18 26  1  0  0  0  0
 19 20  2  0  0  0  0
 19 29  1  0  0  0  0
 21 22  1  0  0  0  0
 21 27  1  0  0  0  0
 21 28  1  0  0  0  0
 22 23  1  0  0  0  0
 22 24  2  0  0  0  0
 29 30  1  0  0  0  0
 29 34  1  0  0  0  0
 30 31  1  0  0  0  0
 30 33  1  0  0  0  0
 30 35  1  0  0  0  0
 31 32  2  0  0  0  0
 31 39  1  0  0  0  0
 33 36  1  0  0  0  0
 33 37  1  0  0  0  0
 33 38  1  0  0  0  0
 39 40  1  0  0  0  0
 39 41  1  0  0  0  0
 40 42  1  0  0  0  0
 40 43  1  0  0  0  0
 40 44  1  0  0  0  0
M  CHG  1  23  -1
M  END
$$$$

  -OEChem-05262215553D

 44 43  0     1  0  0  0  0  0999 V2000
   -4.2950   -1.0440   -4.5906 C   0  0  0  0  0  0  0  0  0  0  0  0
   -4.0567   -2.2373   -4.6922 O   0  0  0  0  0  0  0  0  0  0  0  0
   -5.6446   -0.5003   -5.0222 C   0  0  0  0  0  0  0  0  0  0  0  0
   -5.5088    0.2835   -5.7713 H   0  0  0  0  0  0  0  0  0  0  0  0
   -6.2540   -1.2994   -5.4534 H   0  0  0  0  0  0  0  0  0  0  0  0
   -6.1692   -0.0818   -4.1593 H   0  0  0  0  0  0  0  0  0  0  0  0
   -3.3539   -0.1810   -4.0744 N   0  0  0  0  0  0  0  0  0  0  0  0
   -2.1145   -0.5988   -3.4053 C   0  0  2  0  0  0  0  0  0  0  0  0
   -1.7501    0.3761   -2.2633 C   0  0  0  0  0  0  0  0  0  0  0  0
   -2.3505    1.4408   -2.1927 O   0  0  0  0  0  0  0  0  0  0  0  0
   -0.9898   -0.6566   -4.4440 C   0  0  0  0  0  0  0  0  0  0  0  0
   -3.6616    0.7709   -3.8759 H   0  0  0  0  0  0  0  0  0  0  0  0
   -2.2470   -1.5918   -2.9614 H   0  0  0  0  0  0  0  0  0  0  0  0
   -0.8278    0.3303   -4.8891 H   0  0  0  0  0  0  0  0  0  0  0  0
   -0.0544   -0.9867   -3.9804 H   0  0  0  0  0  0  0  0  0  0  0  0
   -1.2455   -1.3617   -5.2411 H   0  0  0  0  0  0  0  0  0  0  0  0
   -0.7526    0.0215   -1.3748 N   0  0  0  0  0  0  0  0  0  0  0  0
   -0.1902    0.6493   -0.1551 C   0  0  2  0  0  0  0  0  0  0  0  0
   -0.7064    2.0115    0.4140 C   0  0  0  0  0  0  0  0  0  0  0  0
    0.0103    2.6938    1.1418 O   0  0  0  0  0  0  0  0  0  0  0  0
    1.3185    0.7119   -0.5024 C   0  0  0  0  0  0  0  0  0  0  0  0
    1.9599   -0.6726   -0.5546 C   0  0  0  0  0  0  0  0  0  0  0  0
    1.4815   -1.5844    0.1649 O   0  5  0  0  0  0  0  0  0  0  0  0
    2.8390   -0.8503   -1.4298 O   0  0  0  0  0  0  0  0  0  0  0  0
   -0.3214   -0.8804   -1.5804 H   0  0  0  0  0  0  0  0  0  0  0  0
   -0.3486   -0.0436    0.6777 H   0  0  0  0  0  0  0  0  0  0  0  0
    1.8587    1.2711    0.2647 H   0  0  0  0  0  0  0  0  0  0  0  0
    1.4653    1.2308   -1.4544 H   0  0  0  0  0  0  0  0  0  0  0  0
   -2.0090    2.4520    0.2720 N   0  0  0  0  0  0  0  0  0  0  0  0
   -2.5234    3.7399    0.7561 C   0  0  2  0  0  0  0  0  0  0  0  0
   -4.0320    3.7145    1.0849 C   0  0  0  0  0  0  0  0  0  0  0  0
   -4.8064    2.9525    0.5161 O   0  0  0  0  0  0  0  0  0  0  0  0
   -2.2364    4.7954   -0.3157 C   0  0  0  0  0  0  0  0  0  0  0  0
   -2.5413    1.9891   -0.4695 H   0  0  0  0  0  0  0  0  0  0  0  0
   -2.0033    4.0166    1.6787 H   0  0  0  0  0  0  0  0  0  0  0  0
   -2.7325    4.5285   -1.2546 H   0  0  0  0  0  0  0  0  0  0  0  0
   -2.5979    5.7768    0.0052 H   0  0  0  0  0  0  0  0  0  0  0  0
   -1.1595    4.8662   -0.4992 H   0  0  0  0  0  0  0  0  0  0  0  0
   -4.5374    4.6035    2.0185 N   0  0  0  0  0  0  0  0  0  0  0  0
   -5.9384    4.6433    2.4160 C   0  0  0  0  0  0  0  0  0  0  0  0
   -3.8688    5.1910    2.5074 H   0  0  0  0  0  0  0  0  0  0  0  0
   -6.5814    4.7966    1.5428 H   0  0  0  0  0  0  0  0  0  0  0  0
   -6.2235    3.7062    2.9054 H   0  0  0  0  0  0  0  0  0  0  0  0
   -6.1076    5.4666    3.1163 H   0  0  0  0  0  0  0  0  0  0  0  0
  1  2  2  0  0  0  0
  1  3  1  0  0  0  0
  1  7  1  0  0  0  0
  3  4  1  0  0  0  0
  3  5  1  0  0  0  0
  3  6  1  0  0  0  0
  7  8  1  0  0  0  0
  7 12  1  0  0  0  0
  8  9  1  0  0  0  0
  8 11  1  0  0  0  0
  8 13  1  0  0  0  0
  9 10  2  0  0  0  0
  9 17  1  0  0  0  0
 11 14  1  0  0  0  0
 11 15  1  0  0  0  0
 11 16  1  0  0  0  0
 17 18  1  0  0  0  0
 17 25  1  0  0  0  0
 18 19  1  0  0  0  0
 18 21  1  0  0  0  0
 18 26  1  0  0  0  0
 19 20  2  0  0  0  0
 19 29  1  0  0  0  0
 21 22  1  0  0  0  0
 21 27  1  0  0  0  0
 21 28  1  0  0  0  0
 22 23  1  0  0  0  0
 22 24  2  0  0  0  0
 29 30  1  0  0  0  0
 29 34  1  0  0  0  0
 30 31  1  0  0  0  0
 30 33  1  0  0  0  0
 30 35  1  0  0  0  0
 31 32  2  0  0  0  0
 31 39  1  0  0  0  0
 33 36  1  0  0  0  0
 33 37  1  0  0  0  0
 33 38  1  0  0  0  0
 39 40  1  0  0  0  0
 39 41  1  0  0  0  0
 40 42  1  0  0  0  0
 40 43  1  0  0  0  0
 40 44  1  0  0  0  0
M  CHG  1  23  -1
M  END
$$$$

  -OEChem-05262215553D

 44 43  0     1  0  0  0  0  0999 V2000
   -4.3587   -0.8459   -4.5131 C   0  0  0  0  0  0  0  0  0  0  0  0
   -4.1014   -2.0224   -4.7144 O   0  0  0  0  0  0  0  0  0  0  0  0
   -5.7193   -0.2925   -4.8949 C   0  0  0  0  0  0  0  0  0  0  0  0
   -5.6034    0.5086   -5.6288 H   0  0  0  0  0  0  0  0  0  0  0  0
   -6.3407   -1.0812   -5.3279 H   0  0  0  0  0  0  0  0  0  0  0  0
   -6.2210    0.1051   -4.0091 H   0  0  0  0  0  0  0  0  0  0  0  0
   -3.4273   -0.0129   -3.9331 N   0  0  0  0  0  0  0  0  0  0  0  0
   -2.1675   -0.4619   -3.3247 C   0  0  2  0  0  0  0  0  0  0  0  0
   -1.7802    0.4316   -2.1249 C   0  0  0  0  0  0  0  0  0  0  0  0
   -2.4140    1.4620   -1.9322 O   0  0  0  0  0  0  0  0  0  0  0  0
   -1.0700   -0.4350   -4.3930 C   0  0  0  0  0  0  0  0  0  0  0  0
   -3.7453    0.9160   -3.6570 H   0  0  0  0  0  0  0  0  0  0  0  0
   -2.2802   -1.4850   -2.9498 H   0  0  0  0  0  0  0  0  0  0  0  0
   -0.9309    0.5820   -4.7732 H   0  0  0  0  0  0  0  0  0  0  0  0
   -0.1190   -0.7841   -3.9777 H   0  0  0  0  0  0  0  0  0  0  0  0
   -1.3391   -1.0876   -5.2294 H   0  0  0  0  0  0  0  0  0  0  0  0
   -0.7480    0.0320   -1.2969 N   0  0  0  0  0  0  0  0  0  0  0  0
   -0.1241    0.6397   -0.0988 C   0  0  2  0  0  0  0  0  0  0  0  0
   -0.6237    2.0067    0.4672 C   0  0  0  0  0  0  0  0  0  0  0  0
    0.1541    2.8207    0.9591 O   0  0  0  0  0  0  0  0  0  0  0  0
    1.3743    0.6798   -0.4882 C   0  0  0  0  0  0  0  0  0  0  0  0
    1.9920   -0.7137   -0.5679 C   0  0  0  0  0  0  0  0  0  0  0  0
    1.5197   -1.6222    0.1592 O   0  5  0  0  0  0  0  0  0  0  0  0
    2.8425   -0.8995   -1.4691 O   0  0  0  0  0  0  0  0  0  0  0  0
   -0.3098   -0.8483   -1.5692 H   0  0  0  0  0  0  0  0  0  0  0  0
   -0.2656   -0.0499    0.7395 H   0  0  0  0  0  0  0  0  0  0  0  0
    1.9431    1.2241    0.2694 H   0  0  0  0  0  0  0  0  0  0  0  0
    1.5023    1.2037   -1.4402 H   0  0  0  0  0  0  0  0  0  0  0  0
   -1.9713    2.2819    0.6128 N   0  0  0  0  0  0  0  0  0  0  0  0
   -2.5086    3.5516    1.1184 C   0  0  2  0  0  0  0  0  0  0  0  0
   -3.9389    3.4217    1.6842 C   0  0  0  0  0  0  0  0  0  0  0  0
   -4.7343    2.5987    1.2435 O   0  0  0  0  0  0  0  0  0  0  0  0
   -2.4890    4.5744   -0.0224 C   0  0  0  0  0  0  0  0  0  0  0  0
   -2.5745    1.7510   -0.0201 H   0  0  0  0  0  0  0  0  0  0  0  0
   -1.8724    3.9121    1.9328 H   0  0  0  0  0  0  0  0  0  0  0  0
   -3.1085    4.2271   -0.8556 H   0  0  0  0  0  0  0  0  0  0  0  0
   -2.8723    5.5394    0.3213 H   0  0  0  0  0  0  0  0  0  0  0  0
   -1.4670    4.7184   -0.3868 H   0  0  0  0  0  0  0  0  0  0  0  0
   -4.3562    4.2803    2.6869 N   0  0  0  0  0  0  0  0  0  0  0  0
   -5.6773    4.2191    3.2978 C   0  0  0  0  0  0  0  0  0  0  0  0
   -3.6665    4.9235    3.0635 H   0  0  0  0  0  0  0  0  0  0  0  0
   -6.4559    4.3661    2.5419 H   0  0  0  0  0  0  0  0  0  0  0  0
   -5.8311    3.2478    3.7797 H   0  0  0  0  0  0  0  0  0  0  0  0
   -5.7793    5.0021    4.0552 H   0  0  0  0  0  0  0  0  0  0  0  0
  1  2  2  0  0  0  0
  1  3  1  0  0  0  0
  1  7  1  0  0  0  0
  3  4  1  0  0  0  0
  3  5  1  0  0  0  0
  3  6  1  0  0  0  0
  7  8  1  0  0  0  0
  7 12  1  0  0  0  0
  8  9  1  0  0  0  0
  8 11  1  0  0  0  0
  8 13  1  0  0  0  0
  9 10  2  0  0  0  0
  9 17  1  0  0  0  0
 11 14  1  0  0  0  0
 11 15  1  0  0  0  0
 11 16  1  0  0  0  0
 17 18  1  0  0  0  0
 17 25  1  0  0  0  0
 18 19  1  0  0  0  0
 18 21  1  0  0  0  0
 18 26  1  0  0  0  0
 19 20  2  0  0  0  0
 19 29  1  0  0  0  0
 21 22  1  0  0  0  0
 21 27  1  0  0  0  0
 21 28  1  0  0  0  0
 22 23  1  0  0  0  0
 22 24  2  0  0  0  0
 29 30  1  0  0  0  0
 29 34  1  0  0  0  0
 30 31  1  0  0  0  0
 30 33  1  0  0  0  0
 30 35  1  0  0  0  0
 31 32  2  0  0  0  0
 31 39  1  0  0  0  0
 33 36  1  0  0  0  0
 33 37  1  0  0  0  0
 33 38  1  0  0  0  0
 39 40  1  0  0  0  0
 39 41  1  0  0  0  0
 40 42  1  0  0  0  0
 40 43  1  0  0  0  0
 40 44  1  0  0  0  0
M  CHG  1  23  -1
M  END
$$$$

  -OEChem-05262215553D

 44 43  0     1  0  0  0  0  0999 V2000
   -4.4255   -0.6607   -4.4082 C   0  0  0  0  0  0  0  0  0  0  0  0
   -4.1974   -1.8320   -4.6669 O   0  0  0  0  0  0  0  0  0  0  0  0
   -5.7753   -0.0584   -4.7523 C   0  0  0  0  0  0  0  0  0  0  0  0
   -5.6460    0.7597   -5.4648 H   0  0  0  0  0  0  0  0  0  0  0  0
   -6.4248   -0.8168   -5.1981 H   0  0  0  0  0  0  0  0  0  0  0  0
   -6.2530    0.3274   -3.8481 H   0  0  0  0  0  0  0  0  0  0  0  0
   -3.4712    0.1233   -3.7977 N   0  0  0  0  0  0  0  0  0  0  0  0
   -2.2195   -0.3836   -3.2184 C   0  0  2  0  0  0  0  0  0  0  0  0
   -1.8034    0.4461   -1.9826 C   0  0  0  0  0  0  0  0  0  0  0  0
   -2.4571    1.4415   -1.6932 O   0  0  0  0  0  0  0  0  0  0  0  0
   -1.1273   -0.3393   -4.2923 C   0  0  0  0  0  0  0  0  0  0  0  0
   -3.7703    1.0402   -3.4665 H   0  0  0  0  0  0  0  0  0  0  0  0
   -2.3560   -1.4188   -2.8872 H   0  0  0  0  0  0  0  0  0  0  0  0
   -0.9567    0.6900   -4.6236 H   0  0  0  0  0  0  0  0  0  0  0  0
   -0.1859   -0.7394   -3.9018 H   0  0  0  0  0  0  0  0  0  0  0  0
   -1.4224   -0.9410   -5.1574 H   0  0  0  0  0  0  0  0  0  0  0  0
   -0.7342    0.0228   -1.2161 N   0  0  0  0  0  0  0  0  0  0  0  0
   -0.0490    0.6424   -0.0615 C   0  0  2  0  0  0  0  0  0  0  0  0
   -0.5413    2.0230    0.4691 C   0  0  0  0  0  0  0  0  0  0  0  0
    0.2265    2.9628    0.6621 O   0  0  0  0  0  0  0  0  0  0  0  0
    1.4316    0.6755   -0.5103 C   0  0  0  0  0  0  0  0  0  0  0  0
    2.0454   -0.7190   -0.5967 C   0  0  0  0  0  0  0  0  0  0  0  0
    1.6020   -1.6172    0.1608 O   0  5  0  0  0  0  0  0  0  0  0  0
    2.8562   -0.9181   -1.5310 O   0  0  0  0  0  0  0  0  0  0  0  0
   -0.2871   -0.8343   -1.5420 H   0  0  0  0  0  0  0  0  0  0  0  0
   -0.1532   -0.0262    0.7994 H   0  0  0  0  0  0  0  0  0  0  0  0
    2.0269    1.2320    0.2181 H   0  0  0  0  0  0  0  0  0  0  0  0
    1.5215    1.1867   -1.4736 H   0  0  0  0  0  0  0  0  0  0  0  0
   -1.8386    2.1659    0.9291 N   0  0  0  0  0  0  0  0  0  0  0  0
   -2.3995    3.4236    1.4390 C   0  0  2  0  0  0  0  0  0  0  0  0
   -3.6544    3.2119    2.3119 C   0  0  0  0  0  0  0  0  0  0  0  0
   -4.4083    2.2616    2.1310 O   0  0  0  0  0  0  0  0  0  0  0  0
   -2.7452    4.3274    0.2502 C   0  0  0  0  0  0  0  0  0  0  0  0
   -2.4997    1.4992    0.5301 H   0  0  0  0  0  0  0  0  0  0  0  0
   -1.6497    3.9216    2.0621 H   0  0  0  0  0  0  0  0  0  0  0  0
   -3.4874    3.8436   -0.3929 H   0  0  0  0  0  0  0  0  0  0  0  0
   -3.1524    5.2805    0.5992 H   0  0  0  0  0  0  0  0  0  0  0  0
   -1.8512    4.5324   -0.3467 H   0  0  0  0  0  0  0  0  0  0  0  0
   -3.9688    4.1362    3.2933 N   0  0  0  0  0  0  0  0  0  0  0  0
   -5.1353    4.0227    4.1584 C   0  0  0  0  0  0  0  0  0  0  0  0
   -3.3146    4.8987    3.4414 H   0  0  0  0  0  0  0  0  0  0  0  0
   -6.0539    4.0221    3.5626 H   0  0  0  0  0  0  0  0  0  0  0  0
   -5.0908    3.0967    4.7410 H   0  0  0  0  0  0  0  0  0  0  0  0
   -5.1745    4.8674    4.8526 H   0  0  0  0  0  0  0  0  0  0  0  0
  1  2  2  0  0  0  0
  1  3  1  0  0  0  0
  1  7  1  0  0  0  0
  3  4  1  0  0  0  0
  3  5  1  0  0  0  0
  3  6  1  0  0  0  0
  7  8  1  0  0  0  0
  7 12  1  0  0  0  0
  8  9  1  0  0  0  0
  8 11  1  0  0  0  0
  8 13  1  0  0  0  0
  9 10  2  0  0  0  0
  9 17  1  0  0  0  0
 11 14  1  0  0  0  0
 11 15  1  0  0  0  0
 11 16  1  0  0  0  0
 17 18  1  0  0  0  0
 17 25  1  0  0  0  0
 18 19  1  0  0  0  0
 18 21  1  0  0  0  0
 18 26  1  0  0  0  0
 19 20  2  0  0  0  0
 19 29  1  0  0  0  0
 21 22  1  0  0  0  0
 21 27  1  0  0  0  0
 21 28  1  0  0  0  0
 22 23  1  0  0  0  0
 22 24  2  0  0  0  0
 29 30  1  0  0  0  0
 29 34  1  0  0  0  0
 30 31  1  0  0  0  0
 30 33  1  0  0  0  0
 30 35  1  0  0  0  0
 31 32  2  0  0  0  0
 31 39  1  0  0  0  0
 33 36  1  0  0  0  0
 33 37  1  0  0  0  0
 33 38  1  0  0  0  0
 39 40  1  0  0  0  0
 39 41  1  0  0  0  0
 40 42  1  0  0  0  0
 40 43  1  0  0  0  0
 40 44  1  0  0  0  0
M  CHG  1  23  -1
M  END
$$$$

  -OEChem-05262215553D

 44 43  0     1  0  0  0  0  0999 V2000
   -4.4913   -0.5132   -4.2729 C   0  0  0  0  0  0  0  0  0  0  0  0
   -4.3195   -1.6935   -4.5351 O   0  0  0  0  0  0  0  0  0  0  0  0
   -5.8290    0.1406   -4.5676 C   0  0  0  0  0  0  0  0  0  0  0  0
   -5.7030    0.9231   -5.3200 H   0  0  0  0  0  0  0  0  0  0  0  0
   -6.5383   -0.6018   -4.9442 H   0  0  0  0  0  0  0  0  0  0  0  0
   -6.2356    0.5847   -3.6553 H   0  0  0  0  0  0  0  0  0  0  0  0
   -3.4855    0.2347   -3.7016 N   0  0  0  0  0  0  0  0  0  0  0  0
   -2.2449   -0.3231   -3.1466 C   0  0  2  0  0  0  0  0  0  0  0  0
   -1.7929    0.4683   -1.8983 C   0  0  0  0  0  0  0  0  0  0  0  0
   -2.4363    1.4560   -1.5602 O   0  0  0  0  0  0  0  0  0  0  0  0
   -1.1638   -0.2881   -4.2312 C   0  0  0  0  0  0  0  0  0  0  0  0
   -3.7413    1.1594   -3.3557 H   0  0  0  0  0  0  0  0  0  0  0  0
   -2.4083   -1.3605   -2.8353 H   0  0  0  0  0  0  0  0  0  0  0  0
   -0.9618    0.7434   -4.5364 H   0  0  0  0  0  0  0  0  0  0  0  0
   -0.2326   -0.7303   -3.8621 H   0  0  0  0  0  0  0  0  0  0  0  0
   -1.4886   -0.8557   -5.1086 H   0  0  0  0  0  0  0  0  0  0  0  0
   -0.7088    0.0163   -1.1691 N   0  0  0  0  0  0  0  0  0  0  0  0
    0.0111    0.6372   -0.0398 C   0  0  2  0  0  0  0  0  0  0  0  0
   -0.4753    2.0261    0.4630 C   0  0  0  0  0  0  0  0  0  0  0  0
    0.2024    3.0456    0.3512 O   0  0  0  0  0  0  0  0  0  0  0  0
    1.4835    0.6696   -0.5086 C   0  0  0  0  0  0  0  0  0  0  0  0
    2.0980   -0.7241   -0.5981 C   0  0  0  0  0  0  0  0  0  0  0  0
    1.6652   -1.6190    0.1696 O   0  5  0  0  0  0  0  0  0  0  0  0
    2.9059   -0.9248   -1.5346 O   0  0  0  0  0  0  0  0  0  0  0  0
   -0.2694   -0.8325   -1.5240 H   0  0  0  0  0  0  0  0  0  0  0  0
   -0.0756   -0.0199    0.8316 H   0  0  0  0  0  0  0  0  0  0  0  0
    2.0813    1.2353    0.2106 H   0  0  0  0  0  0  0  0  0  0  0  0
    1.5592    1.1747   -1.4763 H   0  0  0  0  0  0  0  0  0  0  0  0
   -1.6354    2.1066    1.2139 N   0  0  0  0  0  0  0  0  0  0  0  0
   -2.2125    3.3602    1.7128 C   0  0  2  0  0  0  0  0  0  0  0  0
   -3.2077    3.1380    2.8707 C   0  0  0  0  0  0  0  0  0  0  0  0
   -3.8049    2.0747    3.0032 O   0  0  0  0  0  0  0  0  0  0  0  0
   -2.9162    4.0770    0.5543 C   0  0  0  0  0  0  0  0  0  0  0  0
   -2.2499    1.2962    1.1716 H   0  0  0  0  0  0  0  0  0  0  0  0
   -1.4058    3.9956    2.0922 H   0  0  0  0  0  0  0  0  0  0  0  0
   -3.7232    3.4537    0.1562 H   0  0  0  0  0  0  0  0  0  0  0  0
   -3.3398    5.0275    0.8909 H   0  0  0  0  0  0  0  0  0  0  0  0
   -2.2087    4.2832   -0.2550 H   0  0  0  0  0  0  0  0  0  0  0  0
   -3.4605    4.1642    3.7645 N   0  0  0  0  0  0  0  0  0  0  0  0
   -4.3762    4.0406    4.8907 C   0  0  0  0  0  0  0  0  0  0  0  0
   -2.9273    5.0212    3.6516 H   0  0  0  0  0  0  0  0  0  0  0  0
   -5.3763    3.7617    4.5428 H   0  0  0  0  0  0  0  0  0  0  0  0
   -4.0198    3.2777    5.5906 H   0  0  0  0  0  0  0  0  0  0  0  0
   -4.4500    4.9935    5.4230 H   0  0  0  0  0  0  0  0  0  0  0  0
  1  2  2  0  0  0  0
  1  3  1  0  0  0  0
  1  7  1  0  0  0  0
  3  4  1  0  0  0  0
  3  5  1  0  0  0  0
  3  6  1  0  0  0  0
  7  8  1  0  0  0  0
  7 12  1  0  0  0  0
  8  9  1  0  0  0  0
  8 11  1  0  0  0  0
  8 13  1  0  0  0  0
  9 10  2  0  0  0  0
  9 17  1  0  0  0  0
 11 14  1  0  0  0  0
 11 15  1  0  0  0  0
 11 16  1  0  0  0  0
 17 18  1  0  0  0  0
 17 25  1  0  0  0  0
 18 19  1  0  0  0  0
 18 21  1  0  0  0  0
 18 26  1  0  0  0  0
 19 20  2  0  0  0  0
 19 29  1  0  0  0  0
 21 22  1  0  0  0  0
 21 27  1  0  0  0  0
 21 28  1  0  0  0  0
 22 23  1  0  0  0  0
 22 24  2  0  0  0  0
 29 30  1  0  0  0  0
 29 34  1  0  0  0  0
 30 31  1  0  0  0  0
 30 33  1  0  0  0  0
 30 35  1  0  0  0  0
 31 32  2  0  0  0  0
 31 39  1  0  0  0  0
 33 36  1  0  0  0  0
 33 37  1  0  0  0  0
 33 38  1  0  0  0  0
 39 40  1  0  0  0  0
 39 41  1  0  0  0  0
 40 42  1  0  0  0  0
 40 43  1  0  0  0  0
 40 44  1  0  0  0  0
M  CHG  1  23  -1
M  END
$$$$

  -OEChem-05262215553D

 44 43  0     1  0  0  0  0  0999 V2000
   -4.5005   -0.4260   -4.2522 C   0  0  0  0  0  0  0  0  0  0  0  0
   -4.3110   -1.5824   -4.5957 O   0  0  0  0  0  0  0  0  0  0  0  0
   -5.8439    0.2306   -4.5130 C   0  0  0  0  0  0  0  0  0  0  0  0
   -5.7179    1.0830   -5.1849 H   0  0  0  0  0  0  0  0  0  0  0  0
   -6.5318   -0.4841   -4.9736 H   0  0  0  0  0  0  0  0  0  0  0  0
   -6.2765    0.5791   -3.5720 H   0  0  0  0  0  0  0  0  0  0  0  0
   -3.5110    0.2903   -3.6160 N   0  0  0  0  0  0  0  0  0  0  0  0
   -2.2674   -0.2892   -3.0904 C   0  0  2  0  0  0  0  0  0  0  0  0
   -1.8251    0.4369   -1.7997 C   0  0  0  0  0  0  0  0  0  0  0  0
   -2.5089    1.3662   -1.3818 O   0  0  0  0  0  0  0  0  0  0  0  0
   -1.1841   -0.1900   -4.1697 C   0  0  0  0  0  0  0  0  0  0  0  0
   -3.7835    1.1828   -3.2043 H   0  0  0  0  0  0  0  0  0  0  0  0
   -2.4249   -1.3426   -2.8349 H   0  0  0  0  0  0  0  0  0  0  0  0
   -0.9868    0.8574   -4.4190 H   0  0  0  0  0  0  0  0  0  0  0  0
   -0.2509   -0.6462   -3.8238 H   0  0  0  0  0  0  0  0  0  0  0  0
   -1.5047   -0.7115   -5.0771 H   0  0  0  0  0  0  0  0  0  0  0  0
   -0.7232   -0.0263   -1.1040 N   0  0  0  0  0  0  0  0  0  0  0  0
    0.0298    0.6159   -0.0096 C   0  0  2  0  0  0  0  0  0  0  0  0
   -0.4478    2.0163    0.4604 C   0  0  0  0  0  0  0  0  0  0  0  0
    0.0659    3.0574    0.0562 O   0  0  0  0  0  0  0  0  0  0  0  0
    1.4919    0.6499   -0.5051 C   0  0  0  0  0  0  0  0  0  0  0  0
    2.1160   -0.7401   -0.5820 C   0  0  0  0  0  0  0  0  0  0  0  0
    1.7043   -1.6244    0.2091 O   0  5  0  0  0  0  0  0  0  0  0  0
    2.9160   -0.9486   -1.5236 O   0  0  0  0  0  0  0  0  0  0  0  0
   -0.2594   -0.8376   -1.5107 H   0  0  0  0  0  0  0  0  0  0  0  0
   -0.0339   -0.0223    0.8776 H   0  0  0  0  0  0  0  0  0  0  0  0
    2.0951    1.2380    0.1914 H   0  0  0  0  0  0  0  0  0  0  0  0
    1.5441    1.1356   -1.4843 H   0  0  0  0  0  0  0  0  0  0  0  0
   -1.3875    2.1063    1.4720 N   0  0  0  0  0  0  0  0  0  0  0  0
   -1.9753    3.3641    1.9461 C   0  0  2  0  0  0  0  0  0  0  0  0
   -2.6148    3.2288    3.3436 C   0  0  0  0  0  0  0  0  0  0  0  0
   -3.0118    2.1449    3.7591 O   0  0  0  0  0  0  0  0  0  0  0  0
   -3.0283    3.8277    0.9326 C   0  0  0  0  0  0  0  0  0  0  0  0
   -1.8535    1.2424    1.7400 H   0  0  0  0  0  0  0  0  0  0  0  0
   -1.1877    4.1212    2.0183 H   0  0  0  0  0  0  0  0  0  0  0  0
   -3.8157    3.0743    0.8291 H   0  0  0  0  0  0  0  0  0  0  0  0
   -3.4832    4.7693    1.2531 H   0  0  0  0  0  0  0  0  0  0  0  0
   -2.5694    3.9837   -0.0490 H   0  0  0  0  0  0  0  0  0  0  0  0
   -2.7671    4.3495    4.1411 N   0  0  0  0  0  0  0  0  0  0  0  0
   -3.3379    4.3093    5.4807 C   0  0  0  0  0  0  0  0  0  0  0  0
   -2.4033    5.2277    3.7839 H   0  0  0  0  0  0  0  0  0  0  0  0
   -4.3607    3.9196    5.4493 H   0  0  0  0  0  0  0  0  0  0  0  0
   -2.7357    3.6695    6.1342 H   0  0  0  0  0  0  0  0  0  0  0  0
   -3.3647    5.3154    5.9097 H   0  0  0  0  0  0  0  0  0  0  0  0
  1  2  2  0  0  0  0
  1  3  1  0  0  0  0
  1  7  1  0  0  0  0
  3  4  1  0  0  0  0
  3  5  1  0  0  0  0
  3  6  1  0  0  0  0
  7  8  1  0  0  0  0
  7 12  1  0  0  0  0
  8  9  1  0  0  0  0
  8 11  1  0  0  0  0
  8 13  1  0  0  0  0
  9 10  2  0  0  0  0
  9 17  1  0  0  0  0
 11 14  1  0  0  0  0
 11 15  1  0  0  0  0
 11 16  1  0  0  0  0
 17 18  1  0  0  0  0
 17 25  1  0  0  0  0
 18 19  1  0  0  0  0
 18 21  1  0  0  0  0
 18 26  1  0  0  0  0
 19 20  2  0  0  0  0
 19 29  1  0  0  0  0
 21 22  1  0  0  0  0
 21 27  1  0  0  0  0
 21 28  1  0  0  0  0
 22 23  1  0  0  0  0
 22 24  2  0  0  0  0
 29 30  1  0  0  0  0
 29 34  1  0  0  0  0
 30 31  1  0  0  0  0
 30 33  1  0  0  0  0
 30 35  1  0  0  0  0
 31 32  2  0  0  0  0
 31 39  1  0  0  0  0
 33 36  1  0  0  0  0
 33 37  1  0  0  0  0
 33 38  1  0  0  0  0
 39 40  1  0  0  0  0
 39 41  1  0  0  0  0
 40 42  1  0  0  0  0
 40 43  1  0  0  0  0
 40 44  1  0  0  0  0
M  CHG  1  23  -1
M  END
$$$$

  -OEChem-05262215553D

 44 43  0     1  0  0  0  0  0999 V2000
   -4.4943   -0.3857   -4.2681 C   0  0  0  0  0  0  0  0  0  0  0  0
   -4.2686   -1.5082   -4.6930 O   0  0  0  0  0  0  0  0  0  0  0  0
   -5.8444    0.2610   -4.5191 C   0  0  0  0  0  0  0  0  0  0  0  0
   -5.7201    1.1520   -5.1393 H   0  0  0  0  0  0  0  0  0  0  0  0
   -6.5093   -0.4381   -5.0340 H   0  0  0  0  0  0  0  0  0  0  0  0
   -6.3028    0.5483   -3.5693 H   0  0  0  0  0  0  0  0  0  0  0  0
   -3.5396    0.3021   -3.5520 N   0  0  0  0  0  0  0  0  0  0  0  0
   -2.2901   -0.2821   -3.0460 C   0  0  2  0  0  0  0  0  0  0  0  0
   -1.8804    0.3715   -1.7068 C   0  0  0  0  0  0  0  0  0  0  0  0
   -2.6148    1.2233   -1.2139 O   0  0  0  0  0  0  0  0  0  0  0  0
   -1.1951   -0.0904   -4.1009 C   0  0  0  0  0  0  0  0  0  0  0  0
   -3.8440    1.1542   -3.0811 H   0  0  0  0  0  0  0  0  0  0  0  0
   -2.4274   -1.3526   -2.8595 H   0  0  0  0  0  0  0  0  0  0  0  0
   -1.0164    0.9751   -4.2775 H   0  0  0  0  0  0  0  0  0  0  0  0
   -0.2574   -0.5503   -3.7727 H   0  0  0  0  0  0  0  0  0  0  0  0
   -1.4919   -0.5565   -5.0455 H   0  0  0  0  0  0  0  0  0  0  0  0
   -0.7593   -0.0877   -1.0396 N   0  0  0  0  0  0  0  0  0  0  0  0
    0.0192    0.5856    0.0170 C   0  0  2  0  0  0  0  0  0  0  0  0
   -0.4533    1.9958    0.4585 C   0  0  0  0  0  0  0  0  0  0  0  0
   -0.1423    3.0092   -0.1644 O   0  0  0  0  0  0  0  0  0  0  0  0
    1.4673    0.6357   -0.5144 C   0  0  0  0  0  0  0  0  0  0  0  0
    2.1177   -0.7420   -0.5833 C   0  0  0  0  0  0  0  0  0  0  0  0
    1.7444   -1.6205    0.2324 O   0  5  0  0  0  0  0  0  0  0  0  0
    2.9007   -0.9487   -1.5390 O   0  0  0  0  0  0  0  0  0  0  0  0
   -0.2670   -0.8538   -1.4956 H   0  0  0  0  0  0  0  0  0  0  0  0
   -0.0127   -0.0347    0.9183 H   0  0  0  0  0  0  0  0  0  0  0  0
    2.0747    1.2488    0.1562 H   0  0  0  0  0  0  0  0  0  0  0  0
    1.4866    1.1035   -1.5034 H   0  0  0  0  0  0  0  0  0  0  0  0
   -1.1111    2.1517    1.6659 N   0  0  0  0  0  0  0  0  0  0  0  0
   -1.6698    3.4210    2.1443 C   0  0  2  0  0  0  0  0  0  0  0  0
   -1.9247    3.4186    3.6657 C   0  0  0  0  0  0  0  0  0  0  0  0
   -2.1079    2.3704    4.2761 O   0  0  0  0  0  0  0  0  0  0  0  0
   -2.9801    3.6909    1.3951 C   0  0  0  0  0  0  0  0  0  0  0  0
   -1.3792    1.3038    2.1608 H   0  0  0  0  0  0  0  0  0  0  0  0
   -0.9602    4.2272    1.9318 H   0  0  0  0  0  0  0  0  0  0  0  0
   -3.6983    2.8859    1.5814 H   0  0  0  0  0  0  0  0  0  0  0  0
   -3.4215    4.6373    1.7205 H   0  0  0  0  0  0  0  0  0  0  0  0
   -2.7988    3.7482    0.3169 H   0  0  0  0  0  0  0  0  0  0  0  0
   -1.9724    4.6163    4.3573 N   0  0  0  0  0  0  0  0  0  0  0  0
   -2.1788    4.7054    5.7966 C   0  0  0  0  0  0  0  0  0  0  0  0
   -1.7815    5.4640    3.8318 H   0  0  0  0  0  0  0  0  0  0  0  0
   -3.1272    4.2359    6.0779 H   0  0  0  0  0  0  0  0  0  0  0  0
   -1.3643    4.2058    6.3314 H   0  0  0  0  0  0  0  0  0  0  0  0
   -2.2071    5.7537    6.1089 H   0  0  0  0  0  0  0  0  0  0  0  0
  1  2  2  0  0  0  0
  1  3  1  0  0  0  0
  1  7  1  0  0  0  0
  3  4  1  0  0  0  0
  3  5  1  0  0  0  0
  3  6  1  0  0  0  0
  7  8  1  0  0  0  0
  7 12  1  0  0  0  0
  8  9  1  0  0  0  0
  8 11  1  0  0  0  0
  8 13  1  0  0  0  0
  9 10  2  0  0  0  0
  9 17  1  0  0  0  0
 11 14  1  0  0  0  0
 11 15  1  0  0  0  0
 11 16  1  0  0  0  0
 17 18  1  0  0  0  0
 17 25  1  0  0  0  0
 18 19  1  0  0  0  0
 18 21  1  0  0  0  0
 18 26  1  0  0  0  0
 19 20  2  0  0  0  0
 19 29  1  0  0  0  0
 21 22  1  0  0  0  0
 21 27  1  0  0  0  0
 21 28  1  0  0  0  0
 22 23  1  0  0  0  0
 22 24  2  0  0  0  0
 29 30  1  0  0  0  0
 29 34  1  0  0  0  0
 30 31  1  0  0  0  0
 30 33  1  0  0  0  0
 30 35  1  0  0  0  0
 31 32  2  0  0  0  0
 31 39  1  0  0  0  0
 33 36  1  0  0  0  0
 33 37  1  0  0  0  0
 33 38  1  0  0  0  0
 39 40  1  0  0  0  0
 39 41  1  0  0  0  0
 40 42  1  0  0  0  0
 40 43  1  0  0  0  0
 40 44  1  0  0  0  0
M  CHG  1  23  -1
M  END
$$$$

  -OEChem-05262215553D

 44 43  0     1  0  0  0  0  0999 V2000
   -4.4754   -0.3611   -4.2881 C   0  0  0  0  0  0  0  0  0  0  0  0
   -4.2012   -1.4378   -4.7955 O   0  0  0  0  0  0  0  0  0  0  0  0
   -5.8368    0.2650   -4.5301 C   0  0  0  0  0  0  0  0  0  0  0  0
   -5.7207    1.2126   -5.0621 H   0  0  0  0  0  0  0  0  0  0  0  0
   -6.4602   -0.4037   -5.1302 H   0  0  0  0  0  0  0  0  0  0  0  0
   -6.3360    0.4502   -3.5756 H   0  0  0  0  0  0  0  0  0  0  0  0
   -3.5654    0.2936   -3.4885 N   0  0  0  0  0  0  0  0  0  0  0  0
   -2.3062   -0.2864   -3.0036 C   0  0  2  0  0  0  0  0  0  0  0  0
   -1.9376    0.2859   -1.6167 C   0  0  0  0  0  0  0  0  0  0  0  0
   -2.7257    1.0427   -1.0551 O   0  0  0  0  0  0  0  0  0  0  0  0
   -1.2031    0.0112   -4.0251 C   0  0  0  0  0  0  0  0  0  0  0  0
   -3.9085    1.0958   -2.9600 H   0  0  0  0  0  0  0  0  0  0  0  0
   -2.4125   -1.3709   -2.8935 H   0  0  0  0  0  0  0  0  0  0  0  0
   -1.0557    1.0914   -4.1241 H   0  0  0  0  0  0  0  0  0  0  0  0
   -0.2559   -0.4416   -3.7153 H   0  0  0  0  0  0  0  0  0  0  0  0
   -1.4733   -0.3969   -5.0039 H   0  0  0  0  0  0  0  0  0  0  0  0
   -0.7970   -0.1584   -0.9744 N   0  0  0  0  0  0  0  0  0  0  0  0
   -0.0055    0.5544    0.0457 C   0  0  2  0  0  0  0  0  0  0  0  0
   -0.4843    1.9699    0.4604 C   0  0  0  0  0  0  0  0  0  0  0  0
   -0.3913    2.9280   -0.3049 O   0  0  0  0  0  0  0  0  0  0  0  0
    1.4271    0.6296   -0.5214 C   0  0  0  0  0  0  0  0  0  0  0  0
    2.1117   -0.7315   -0.5794 C   0  0  0  0  0  0  0  0  0  0  0  0
    1.7821   -1.6028    0.2616 O   0  5  0  0  0  0  0  0  0  0  0  0
    2.8761   -0.9355   -1.5505 O   0  0  0  0  0  0  0  0  0  0  0  0
   -0.2748   -0.8746   -1.4755 H   0  0  0  0  0  0  0  0  0  0  0  0
   -0.0054   -0.0466    0.9605 H   0  0  0  0  0  0  0  0  0  0  0  0
    2.0343    1.2728    0.1209 H   0  0  0  0  0  0  0  0  0  0  0  0
    1.4100    1.0772   -1.5199 H   0  0  0  0  0  0  0  0  0  0  0  0
   -0.8287    2.2255    1.7762 N   0  0  0  0  0  0  0  0  0  0  0  0
   -1.3235    3.5181    2.2631 C   0  0  2  0  0  0  0  0  0  0  0  0
   -1.1885    3.6660    3.7924 C   0  0  0  0  0  0  0  0  0  0  0  0
   -1.1434    2.6808    4.5219 O   0  0  0  0  0  0  0  0  0  0  0  0
   -2.7930    3.6643    1.8506 C   0  0  0  0  0  0  0  0  0  0  0  0
   -0.8610    1.4340    2.4160 H   0  0  0  0  0  0  0  0  0  0  0  0
   -0.7384    4.3212    1.8031 H   0  0  0  0  0  0  0  0  0  0  0  0
   -3.3953    2.8665    2.2965 H   0  0  0  0  0  0  0  0  0  0  0  0
   -3.1896    4.6289    2.1797 H   0  0  0  0  0  0  0  0  0  0  0  0
   -2.8923    3.6045    0.7618 H   0  0  0  0  0  0  0  0  0  0  0  0
   -1.1416    4.9275    4.3591 N   0  0  0  0  0  0  0  0  0  0  0  0
   -0.9823    5.1592    5.7883 C   0  0  0  0  0  0  0  0  0  0  0  0
   -1.1372    5.7215    3.7258 H   0  0  0  0  0  0  0  0  0  0  0  0
   -1.7813    4.6627    6.3490 H   0  0  0  0  0  0  0  0  0  0  0  0
   -0.0167    4.7745    6.1325 H   0  0  0  0  0  0  0  0  0  0  0  0
   -1.0254    6.2312    6.0031 H   0  0  0  0  0  0  0  0  0  0  0  0
  1  2  2  0  0  0  0
  1  3  1  0  0  0  0
  1  7  1  0  0  0  0
  3  4  1  0  0  0  0
  3  5  1  0  0  0  0
  3  6  1  0  0  0  0
  7  8  1  0  0  0  0
  7 12  1  0  0  0  0
  8  9  1  0  0  0  0
  8 11  1  0  0  0  0
  8 13  1  0  0  0  0
  9 10  2  0  0  0  0
  9 17  1  0  0  0  0
 11 14  1  0  0  0  0
 11 15  1  0  0  0  0
 11 16  1  0  0  0  0
 17 18  1  0  0  0  0
 17 25  1  0  0  0  0
 18 19  1  0  0  0  0
 18 21  1  0  0  0  0
 18 26  1  0  0  0  0
 19 20  2  0  0  0  0
 19 29  1  0  0  0  0
 21 22  1  0  0  0  0
 21 27  1  0  0  0  0
 21 28  1  0  0  0  0
 22 23  1  0  0  0  0
 22 24  2  0  0  0  0
 29 30  1  0  0  0  0
 29 34  1  0  0  0  0
 30 31  1  0  0  0  0
 30 33  1  0  0  0  0
 30 35  1  0  0  0  0
 31 32  2  0  0  0  0
 31 39  1  0  0  0  0
 33 36  1  0  0  0  0
 33 37  1  0  0  0  0
 33 38  1  0  0  0  0
 39 40  1  0  0  0  0
 39 41  1  0  0  0  0
 40 42  1  0  0  0  0
 40 43  1  0  0  0  0
 40 44  1  0  0  0  0
M  CHG  1  23  -1
M  END
$$$$

  -OEChem-05262215553D

 44 43  0     1  0  0  0  0  0999 V2000
   -4.4415   -0.3905   -4.3291 C   0  0  0  0  0  0  0  0  0  0  0  0
   -4.0948   -1.4082   -4.9089 O   0  0  0  0  0  0  0  0  0  0  0  0
   -5.8250    0.1850   -4.5731 C   0  0  0  0  0  0  0  0  0  0  0  0
   -5.7413    1.2052   -4.9558 H   0  0  0  0  0  0  0  0  0  0  0  0
   -6.3651   -0.4231   -5.3041 H   0  0  0  0  0  0  0  0  0  0  0  0
   -6.3920    0.1999   -3.6390 H   0  0  0  0  0  0  0  0  0  0  0  0
   -3.5931    0.2413   -3.4473 N   0  0  0  0  0  0  0  0  0  0  0  0
   -2.3131   -0.3032   -2.9753 C   0  0  2  0  0  0  0  0  0  0  0  0
   -1.9992    0.1941   -1.5462 C   0  0  0  0  0  0  0  0  0  0  0  0
   -2.8460    0.8426   -0.9360 O   0  0  0  0  0  0  0  0  0  0  0  0
   -1.2092    0.1210   -3.9515 C   0  0  0  0  0  0  0  0  0  0  0  0
   -3.9907    0.9850   -2.8734 H   0  0  0  0  0  0  0  0  0  0  0  0
   -2.3636   -1.3967   -2.9391 H   0  0  0  0  0  0  0  0  0  0  0  0
   -1.1194    1.2119   -3.9758 H   0  0  0  0  0  0  0  0  0  0  0  0
   -0.2441   -0.2999   -3.6518 H   0  0  0  0  0  0  0  0  0  0  0  0
   -1.4381   -0.2338   -4.9611 H   0  0  0  0  0  0  0  0  0  0  0  0
   -0.8413   -0.2159   -0.9131 N   0  0  0  0  0  0  0  0  0  0  0  0
   -0.0642    0.5454    0.0831 C   0  0  2  0  0  0  0  0  0  0  0  0
   -0.5709    1.9574    0.4775 C   0  0  0  0  0  0  0  0  0  0  0  0
   -0.6857    2.8521   -0.3584 O   0  0  0  0  0  0  0  0  0  0  0  0
    1.3553    0.6634   -0.5078 C   0  0  0  0  0  0  0  0  0  0  0  0
    2.0932   -0.6700   -0.5534 C   0  0  0  0  0  0  0  0  0  0  0  0
    1.8128   -1.5385    0.3078 O   0  5  0  0  0  0  0  0  0  0  0  0
    2.8477   -0.8602   -1.5352 O   0  0  0  0  0  0  0  0  0  0  0  0
   -0.2818   -0.8797   -1.4450 H   0  0  0  0  0  0  0  0  0  0  0  0
   -0.0338   -0.0378    1.0088 H   0  0  0  0  0  0  0  0  0  0  0  0
    1.9477    1.3414    0.1124 H   0  0  0  0  0  0  0  0  0  0  0  0
    1.3052    1.0917   -1.5135 H   0  0  0  0  0  0  0  0  0  0  0  0
   -0.6088    2.3257    1.8113 N   0  0  0  0  0  0  0  0  0  0  0  0
   -0.9654    3.6646    2.2960 C   0  0  2  0  0  0  0  0  0  0  0  0
   -0.4534    3.9347    3.7260 C   0  0  0  0  0  0  0  0  0  0  0  0
   -0.2028    3.0104    4.4921 O   0  0  0  0  0  0  0  0  0  0  0  0
   -2.4907    3.8094    2.2499 C   0  0  0  0  0  0  0  0  0  0  0  0
   -0.3969    1.6106    2.5050 H   0  0  0  0  0  0  0  0  0  0  0  0
   -0.5119    4.4154    1.6408 H   0  0  0  0  0  0  0  0  0  0  0  0
   -2.9642    3.0634    2.8961 H   0  0  0  0  0  0  0  0  0  0  0  0
   -2.7926    4.8057    2.5860 H   0  0  0  0  0  0  0  0  0  0  0  0
   -2.8570    3.6651    1.2282 H   0  0  0  0  0  0  0  0  0  0  0  0
   -0.2915    5.2371    4.1650 N   0  0  0  0  0  0  0  0  0  0  0  0
    0.2313    5.5813    5.4804 C   0  0  0  0  0  0  0  0  0  0  0  0
   -0.4615    5.9784    3.4920 H   0  0  0  0  0  0  0  0  0  0  0  0
   -0.3726    5.1177    6.2675 H   0  0  0  0  0  0  0  0  0  0  0  0
    1.2665    5.2394    5.5812 H   0  0  0  0  0  0  0  0  0  0  0  0
    0.2080    6.6658    5.6229 H   0  0  0  0  0  0  0  0  0  0  0  0
  1  2  2  0  0  0  0
  1  3  1  0  0  0  0
  1  7  1  0  0  0  0
  3  4  1  0  0  0  0
  3  5  1  0  0  0  0
  3  6  1  0  0  0  0
  7  8  1  0  0  0  0
  7 12  1  0  0  0  0
  8  9  1  0  0  0  0
  8 11  1  0  0  0  0
  8 13  1  0  0  0  0
  9 10  2  0  0  0  0
  9 17  1  0  0  0  0
 11 14  1  0  0  0  0
 11 15  1  0  0  0  0
 11 16  1  0  0  0  0
 17 18  1  0  0  0  0
 17 25  1  0  0  0  0
 18 19  1  0  0  0  0
 18 21  1  0  0  0  0
 18 26  1  0  0  0  0
 19 20  2  0  0  0  0
 19 29  1  0  0  0  0
 21 22  1  0  0  0  0
 21 27  1  0  0  0  0
 21 28  1  0  0  0  0
 22 23  1  0  0  0  0
 22 24  2  0  0  0  0
 29 30  1  0  0  0  0
 29 34  1  0  0  0  0
 30 31  1  0  0  0  0
 30 33  1  0  0  0  0
 30 35  1  0  0  0  0
 31 32  2  0  0  0  0
 31 39  1  0  0  0  0
 33 36  1  0  0  0  0
 33 37  1  0  0  0  0
 33 38  1  0  0  0  0
 39 40  1  0  0  0  0
 39 41  1  0  0  0  0
 40 42  1  0  0  0  0
 40 43  1  0  0  0  0
 40 44  1  0  0  0  0
M  CHG  1  23  -1
M  END
$$$$

  -OEChem-05262215553D

 44 43  0     1  0  0  0  0  0999 V2000
   -4.4170   -0.3928   -4.3322 C   0  0  0  0  0  0  0  0  0  0  0  0
   -4.0291   -1.3618   -4.9667 O   0  0  0  0  0  0  0  0  0  0  0  0
   -5.8213    0.1410   -4.5496 C   0  0  0  0  0  0  0  0  0  0  0  0
   -5.7786    1.1943   -4.8371 H   0  0  0  0  0  0  0  0  0  0  0  0
   -6.3212   -0.4209   -5.3434 H   0  0  0  0  0  0  0  0  0  0  0  0
   -6.4021    0.0454   -3.6289 H   0  0  0  0  0  0  0  0  0  0  0  0
   -3.5973    0.2232   -3.4130 N   0  0  0  0  0  0  0  0  0  0  0  0
   -2.3042   -0.3022   -2.9563 C   0  0  2  0  0  0  0  0  0  0  0  0
   -2.0285    0.1229   -1.4965 C   0  0  0  0  0  0  0  0  0  0  0  0
   -2.9257    0.6514   -0.8440 O   0  0  0  0  0  0  0  0  0  0  0  0
   -1.2055    0.2155   -3.8915 C   0  0  0  0  0  0  0  0  0  0  0  0
   -4.0307    0.9110   -2.7967 H   0  0  0  0  0  0  0  0  0  0  0  0
   -2.3146   -1.3969   -2.9825 H   0  0  0  0  0  0  0  0  0  0  0  0
   -1.1523    1.3082   -3.8497 H   0  0  0  0  0  0  0  0  0  0  0  0
   -0.2302   -0.1914   -3.6055 H   0  0  0  0  0  0  0  0  0  0  0  0
   -1.4124   -0.0856   -4.9232 H   0  0  0  0  0  0  0  0  0  0  0  0
   -0.8518   -0.2462   -0.8739 N   0  0  0  0  0  0  0  0  0  0  0  0
   -0.0986    0.5542    0.1113 C   0  0  2  0  0  0  0  0  0  0  0  0
   -0.6395    1.9531    0.5111 C   0  0  0  0  0  0  0  0  0  0  0  0
   -0.9741    2.7812   -0.3340 O   0  0  0  0  0  0  0  0  0  0  0  0
    1.3120    0.7235   -0.4890 C   0  0  0  0  0  0  0  0  0  0  0  0
    2.1041   -0.5783   -0.5283 C   0  0  0  0  0  0  0  0  0  0  0  0
    1.8659   -1.4511    0.3409 O   0  5  0  0  0  0  0  0  0  0  0  0
    2.8661   -0.7399   -1.5093 O   0  0  0  0  0  0  0  0  0  0  0  0
   -0.2586   -0.8550   -1.4335 H   0  0  0  0  0  0  0  0  0  0  0  0
   -0.0426   -0.0238    1.0394 H   0  0  0  0  0  0  0  0  0  0  0  0
    1.8819    1.4284    0.1219 H   0  0  0  0  0  0  0  0  0  0  0  0
    1.2393    1.1416   -1.4976 H   0  0  0  0  0  0  0  0  0  0  0  0
   -0.3837    2.4324    1.7847 N   0  0  0  0  0  0  0  0  0  0  0  0
   -0.6397    3.8076    2.2305 C   0  0  2  0  0  0  0  0  0  0  0  0
    0.2129    4.1995    3.4549 C   0  0  0  0  0  0  0  0  0  0  0  0
    0.6535    3.3440    4.2150 O   0  0  0  0  0  0  0  0  0  0  0  0
   -2.1289    3.9416    2.5655 C   0  0  0  0  0  0  0  0  0  0  0  0
    0.0622    1.7970    2.4448 H   0  0  0  0  0  0  0  0  0  0  0  0
   -0.3871    4.5016    1.4223 H   0  0  0  0  0  0  0  0  0  0  0  0
   -2.4006    3.2548    3.3735 H   0  0  0  0  0  0  0  0  0  0  0  0
   -2.3607    4.9630    2.8812 H   0  0  0  0  0  0  0  0  0  0  0  0
   -2.7394    3.7050    1.6883 H   0  0  0  0  0  0  0  0  0  0  0  0
    0.4698    5.5332    3.7195 N   0  0  0  0  0  0  0  0  0  0  0  0
    1.2942    5.9846    4.8327 C   0  0  0  0  0  0  0  0  0  0  0  0
    0.1324    6.2145    3.0460 H   0  0  0  0  0  0  0  0  0  0  0  0
    0.8766    5.6383    5.7839 H   0  0  0  0  0  0  0  0  0  0  0  0
    2.3145    5.5996    4.7339 H   0  0  0  0  0  0  0  0  0  0  0  0
    1.3360    7.0777    4.8522 H   0  0  0  0  0  0  0  0  0  0  0  0
  1  2  2  0  0  0  0
  1  3  1  0  0  0  0
  1  7  1  0  0  0  0
  3  4  1  0  0  0  0
  3  5  1  0  0  0  0
  3  6  1  0  0  0  0
  7  8  1  0  0  0  0
  7 12  1  0  0  0  0
  8  9  1  0  0  0  0
  8 11  1  0  0  0  0
  8 13  1  0  0  0  0
  9 10  2  0  0  0  0
  9 17  1  0  0  0  0
 11 14  1  0  0  0  0
 11 15  1  0  0  0  0
 11 16  1  0  0  0  0
 17 18  1  0  0  0  0
 17 25  1  0  0  0  0
 18 19  1  0  0  0  0
 18 21  1  0  0  0  0
 18 26  1  0  0  0  0
 19 20  2  0  0  0  0
 19 29  1  0  0  0  0
 21 22  1  0  0  0  0
 21 27  1  0  0  0  0
 21 28  1  0  0  0  0
 22 23  1  0  0  0  0
 22 24  2  0  0  0  0
 29 30  1  0  0  0  0
 29 34  1  0  0  0  0
 30 31  1  0  0  0  0
 30 33  1  0  0  0  0
 30 35  1  0  0  0  0
 31 32  2  0  0  0  0
 31 39  1  0  0  0  0
 33 36  1  0  0  0  0
 33 37  1  0  0  0  0
 33 38  1  0  0  0  0
 39 40  1  0  0  0  0
 39 41  1  0  0  0  0
 40 42  1  0  0  0  0
 40 43  1  0  0  0  0
 40 44  1  0  0  0  0
M  CHG  1  23  -1
M  END
$$$$

  -OEChem-05262215553D

 44 43  0     1  0  0  0  0  0999 V2000
   -4.3751   -0.3820   -4.3405 C   0  0  0  0  0  0  0  0  0  0  0  0
   -3.9200   -1.2678   -5.0479 O   0  0  0  0  0  0  0  0  0  0  0  0
   -5.8157    0.0625   -4.5171 C   0  0  0  0  0  0  0  0  0  0  0  0
   -5.8524    1.1374   -4.7107 H   0  0  0  0  0  0  0  0  0  0  0  0
   -6.2737   -0.4634   -5.3592 H   0  0  0  0  0  0  0  0  0  0  0  0
   -6.3857   -0.1566   -3.6107 H   0  0  0  0  0  0  0  0  0  0  0  0
   -3.6005    0.2167   -3.3722 N   0  0  0  0  0  0  0  0  0  0  0  0
   -2.2806   -0.2603   -2.9399 C   0  0  2  0  0  0  0  0  0  0  0  0
   -2.0481    0.0741   -1.4495 C   0  0  0  0  0  0  0  0  0  0  0  0
   -2.9874    0.4791   -0.7685 O   0  0  0  0  0  0  0  0  0  0  0  0
   -1.2059    0.3913   -3.8173 C   0  0  0  0  0  0  0  0  0  0  0  0
   -4.0825    0.8208   -2.7061 H   0  0  0  0  0  0  0  0  0  0  0  0
   -2.2221   -1.3487   -3.0473 H   0  0  0  0  0  0  0  0  0  0  0  0
   -1.2091    1.4777   -3.6815 H   0  0  0  0  0  0  0  0  0  0  0  0
   -0.2129    0.0111   -3.5574 H   0  0  0  0  0  0  0  0  0  0  0  0
   -1.3904    0.1696   -4.8729 H   0  0  0  0  0  0  0  0  0  0  0  0
   -0.8596   -0.2655   -0.8345 N   0  0  0  0  0  0  0  0  0  0  0  0
   -0.1257    0.5508    0.1536 C   0  0  2  0  0  0  0  0  0  0  0  0
   -0.6824    1.9368    0.5825 C   0  0  0  0  0  0  0  0  0  0  0  0
   -1.2343    2.6960   -0.2106 O   0  0  0  0  0  0  0  0  0  0  0  0
    1.2694    0.7646   -0.4726 C   0  0  0  0  0  0  0  0  0  0  0  0
    2.0992   -0.5120   -0.5365 C   0  0  0  0  0  0  0  0  0  0  0  0
    1.9047   -1.3973    0.3303 O   0  5  0  0  0  0  0  0  0  0  0  0
    2.8398   -0.6453   -1.5375 O   0  0  0  0  0  0  0  0  0  0  0  0
   -0.2424   -0.8236   -1.4202 H   0  0  0  0  0  0  0  0  0  0  0  0
   -0.0422   -0.0350    1.0749 H   0  0  0  0  0  0  0  0  0  0  0  0
    1.8353    1.4800    0.1295 H   0  0  0  0  0  0  0  0  0  0  0  0
    1.1646    1.1880   -1.4762 H   0  0  0  0  0  0  0  0  0  0  0  0
   -0.1643    2.5281    1.7236 N   0  0  0  0  0  0  0  0  0  0  0  0
   -0.3330    3.9406    2.0891 C   0  0  2  0  0  0  0  0  0  0  0  0
    0.7892    4.4480    3.0175 C   0  0  0  0  0  0  0  0  0  0  0  0
    1.4198    3.6702    3.7251 O   0  0  0  0  0  0  0  0  0  0  0  0
   -1.6956    4.1078    2.7687 C   0  0  0  0  0  0  0  0  0  0  0  0
    0.4827    1.9729    2.2826 H   0  0  0  0  0  0  0  0  0  0  0  0
   -0.3041    4.5546    1.1832 H   0  0  0  0  0  0  0  0  0  0  0  0
   -1.7474    3.4960    3.6748 H   0  0  0  0  0  0  0  0  0  0  0  0
   -1.8618    5.1538    3.0429 H   0  0  0  0  0  0  0  0  0  0  0  0
   -2.4984    3.7965    2.0924 H   0  0  0  0  0  0  0  0  0  0  0  0
    1.0809    5.7996    3.0733 N   0  0  0  0  0  0  0  0  0  0  0  0
    2.1459    6.3558    3.8972 C   0  0  0  0  0  0  0  0  0  0  0  0
    0.5768    6.4117    2.4387 H   0  0  0  0  0  0  0  0  0  0  0  0
    1.9644    6.1383    4.9551 H   0  0  0  0  0  0  0  0  0  0  0  0
    3.1137    5.9317    3.6090 H   0  0  0  0  0  0  0  0  0  0  0  0
    2.1917    7.4418    3.7710 H   0  0  0  0  0  0  0  0  0  0  0  0
  1  2  2  0  0  0  0
  1  3  1  0  0  0  0
  1  7  1  0  0  0  0
  3  4  1  0  0  0  0
  3  5  1  0  0  0  0
  3  6  1  0  0  0  0
  7  8  1  0  0  0  0
  7 12  1  0  0  0  0
  8  9  1  0  0  0  0
  8 11  1  0  0  0  0
  8 13  1  0  0  0  0
  9 10  2  0  0  0  0
  9 17  1  0  0  0  0
 11 14  1  0  0  0  0
 11 15  1  0  0  0  0
 11 16  1  0  0  0  0
 17 18  1  0  0  0  0
 17 25  1  0  0  0  0
 18 19  1  0  0  0  0
 18 21  1  0  0  0  0
 18 26  1  0  0  0  0
 19 20  2  0  0  0  0
 19 29  1  0  0  0  0
 21 22  1  0  0  0  0
 21 27  1  0  0  0  0
 21 28  1  0  0  0  0
 22 23  1  0  0  0  0
 22 24  2  0  0  0  0
 29 30  1  0  0  0  0
 29 34  1  0  0  0  0
 30 31  1  0  0  0  0
 30 33  1  0  0  0  0
 30 35  1  0  0  0  0
 31 32  2  0  0  0  0
 31 39  1  0  0  0  0
 33 36  1  0  0  0  0
 33 37  1  0  0  0  0
 33 38  1  0  0  0  0
 39 40  1  0  0  0  0
 39 41  1  0  0  0  0
 40 42  1  0  0  0  0
 40 43  1  0  0  0  0
 40 44  1  0  0  0  0
M  CHG  1  23  -1
M  END
$$$$

  -OEChem-05262215553D

 44 43  0     1  0  0  0  0  0999 V2000
   -4.6662   -0.0443   -3.9134 C   0  0  0  0  0  0  0  0  0  0  0  0
   -4.8710   -1.2429   -3.7925 O   0  0  0  0  0  0  0  0  0  0  0  0
   -5.7945    0.8784   -4.3366 C   0  0  0  0  0  0  0  0  0  0  0  0
   -5.5602    1.3335   -5.3022 H   0  0  0  0  0  0  0  0  0  0  0  0
   -6.7292    0.3178   -4.4261 H   0  0  0  0  0  0  0  0  0  0  0  0
   -5.9272    1.6683   -3.5930 H   0  0  0  0  0  0  0  0  0  0  0  0
   -3.4191    0.4849   -3.6667 N   0  0  0  0  0  0  0  0  0  0  0  0
   -2.3157   -0.2409   -3.0261 C   0  0  2  0  0  0  0  0  0  0  0  0
   -1.4841    0.7088   -2.1361 C   0  0  0  0  0  0  0  0  0  0  0  0
   -1.6175    1.9210   -2.2799 O   0  0  0  0  0  0  0  0  0  0  0  0
   -1.4431   -0.8677   -4.1183 C   0  0  0  0  0  0  0  0  0  0  0  0
   -3.3464    1.5022   -3.6315 H   0  0  0  0  0  0  0  0  0  0  0  0
   -2.7133   -1.0305   -2.3799 H   0  0  0  0  0  0  0  0  0  0  0  0
   -1.0153   -0.0895   -4.7587 H   0  0  0  0  0  0  0  0  0  0  0  0
   -0.6235   -1.4413   -3.6745 H   0  0  0  0  0  0  0  0  0  0  0  0
   -2.0395   -1.5433   -4.7389 H   0  0  0  0  0  0  0  0  0  0  0  0
   -0.4884    0.1871   -1.3312 N   0  0  0  0  0  0  0  0  0  0  0  0
    0.1262    0.7671   -0.1217 C   0  0  2  0  0  0  0  0  0  0  0  0
   -0.5592    1.9559    0.6094 C   0  0  0  0  0  0  0  0  0  0  0  0
   -1.7698    2.1498    0.5493 O   0  0  0  0  0  0  0  0  0  0  0  0
    1.5725    1.1137   -0.5408 C   0  0  0  0  0  0  0  0  0  0  0  0
    2.4118   -0.1380   -0.7920 C   0  0  0  0  0  0  0  0  0  0  0  0
    2.1260   -1.1846   -0.1559 O   0  5  0  0  0  0  0  0  0  0  0  0
    3.3360   -0.0483   -1.6333 O   0  0  0  0  0  0  0  0  0  0  0  0
   -0.3111   -0.8072   -1.4508 H   0  0  0  0  0  0  0  0  0  0  0  0
    0.1495   -0.0165    0.6423 H   0  0  0  0  0  0  0  0  0  0  0  0
    2.0726    1.6801    0.2473 H   0  0  0  0  0  0  0  0  0  0  0  0
    1.5587    1.7356   -1.4411 H   0  0  0  0  0  0  0  0  0  0  0  0
    0.0547    2.4749    1.7383 N   0  0  0  0  0  0  0  0  0  0  0  0
   -0.5241    3.5129    2.6023 C   0  0  2  0  0  0  0  0  0  0  0  0
    0.5065    4.5884    2.9999 C   0  0  0  0  0  0  0  0  0  0  0  0
    1.6920    4.3045    3.1284 O   0  0  0  0  0  0  0  0  0  0  0  0
   -1.0934    2.8325    3.8489 C   0  0  0  0  0  0  0  0  0  0  0  0
    1.0533    2.2941    1.8335 H   0  0  0  0  0  0  0  0  0  0  0  0
   -1.3349    4.0262    2.0752 H   0  0  0  0  0  0  0  0  0  0  0  0
   -0.2991    2.3199    4.4006 H   0  0  0  0  0  0  0  0  0  0  0  0
   -1.5585    3.5707    4.5088 H   0  0  0  0  0  0  0  0  0  0  0  0
   -1.8514    2.0964    3.5632 H   0  0  0  0  0  0  0  0  0  0  0  0
    0.0912    5.8856    3.2436 N   0  0  0  0  0  0  0  0  0  0  0  0
    1.0080    6.9707    3.5659 C   0  0  0  0  0  0  0  0  0  0  0  0
   -0.8822    6.1037    3.0531 H   0  0  0  0  0  0  0  0  0  0  0  0
    1.5807    6.7337    4.4688 H   0  0  0  0  0  0  0  0  0  0  0  0
    1.7054    7.1405    2.7388 H   0  0  0  0  0  0  0  0  0  0  0  0
    0.4499    7.8947    3.7443 H   0  0  0  0  0  0  0  0  0  0  0  0
  1  2  2  0  0  0  0
  1  3  1  0  0  0  0
  1  7  1  0  0  0  0
  3  4  1  0  0  0  0
  3  5  1  0  0  0  0
  3  6  1  0  0  0  0
  7  8  1  0  0  0  0
  7 12  1  0  0  0  0
  8  9  1  0  0  0  0
  8 11  1  0  0  0  0
  8 13  1  0  0  0  0
  9 10  2  0  0  0  0
  9 17  1  0  0  0  0
 11 14  1  0  0  0  0
 11 15  1  0  0  0  0
 11 16  1  0  0  0  0
 17 18  1  0  0  0  0
 17 25  1  0  0  0  0
 18 19  1  0  0  0  0
 18 21  1  0  0  0  0
 18 26  1  0  0  0  0
 19 20  2  0  0  0  0
 19 29  1  0  0  0  0
 21 22  1  0  0  0  0
 21 27  1  0  0  0  0
 21 28  1  0  0  0  0
 22 23  1  0  0  0  0
 22 24  2  0  0  0  0
 29 30  1  0  0  0  0
 29 34  1  0  0  0  0
 30 31  1  0  0  0  0
 30 33  1  0  0  0  0
 30 35  1  0  0  0  0
 31 32  2  0  0  0  0
 31 39  1  0  0  0  0
 33 36  1  0  0  0  0
 33 37  1  0  0  0  0
 33 38  1  0  0  0  0
 39 40  1  0  0  0  0
 39 41  1  0  0  0  0
 40 42  1  0  0  0  0
 40 43  1  0  0  0  0
 40 44  1  0  0  0  0
M  CHG  1  23  -1
M  END
$$$$

  -OEChem-05262215553D

 44 43  0     1  0  0  0  0  0999 V2000
   -4.6474   -0.0304   -3.8751 C   0  0  0  0  0  0  0  0  0  0  0  0
   -4.8243   -1.2377   -3.8116 O   0  0  0  0  0  0  0  0  0  0  0  0
   -5.8021    0.8846   -4.2402 C   0  0  0  0  0  0  0  0  0  0  0  0
   -5.5914    1.3901   -5.1858 H   0  0  0  0  0  0  0  0  0  0  0  0
   -6.7244    0.3065   -4.3453 H   0  0  0  0  0  0  0  0  0  0  0  0
   -5.9437    1.6350   -3.4582 H   0  0  0  0  0  0  0  0  0  0  0  0
   -3.4081    0.5132   -3.6189 N   0  0  0  0  0  0  0  0  0  0  0  0
   -2.2788   -0.2225   -3.0373 C   0  0  2  0  0  0  0  0  0  0  0  0
   -1.4533    0.6909   -2.1055 C   0  0  0  0  0  0  0  0  0  0  0  0
   -1.5892    1.9082   -2.1972 O   0  0  0  0  0  0  0  0  0  0  0  0
   -1.4097   -0.7628   -4.1771 C   0  0  0  0  0  0  0  0  0  0  0  0
   -3.3547    1.5287   -3.5355 H   0  0  0  0  0  0  0  0  0  0  0  0
   -2.6479   -1.0587   -2.4341 H   0  0  0  0  0  0  0  0  0  0  0  0
   -1.0195    0.0613   -4.7827 H   0  0  0  0  0  0  0  0  0  0  0  0
   -0.5636   -1.3320   -3.7796 H   0  0  0  0  0  0  0  0  0  0  0  0
   -1.9976   -1.4232   -4.8219 H   0  0  0  0  0  0  0  0  0  0  0  0
   -0.4768    0.1331   -1.3008 N   0  0  0  0  0  0  0  0  0  0  0  0
    0.1639    0.7018   -0.1001 C   0  0  2  0  0  0  0  0  0  0  0  0
   -0.5044    1.9261    0.5868 C   0  0  0  0  0  0  0  0  0  0  0  0
   -1.7267    1.9971    0.6895 O   0  0  0  0  0  0  0  0  0  0  0  0
    1.6230    0.9806   -0.5293 C   0  0  0  0  0  0  0  0  0  0  0  0
    2.4050   -0.3102   -0.7667 C   0  0  0  0  0  0  0  0  0  0  0  0
    2.0783   -1.3360   -0.1173 O   0  5  0  0  0  0  0  0  0  0  0  0
    3.3240   -0.2710   -1.6172 O   0  0  0  0  0  0  0  0  0  0  0  0
   -0.3174   -0.8634   -1.4298 H   0  0  0  0  0  0  0  0  0  0  0  0
    0.1592   -0.0636    0.6826 H   0  0  0  0  0  0  0  0  0  0  0  0
    2.1547    1.5277    0.2516 H   0  0  0  0  0  0  0  0  0  0  0  0
    1.6336    1.5929   -1.4362 H   0  0  0  0  0  0  0  0  0  0  0  0
    0.2117    2.6770    1.5048 N   0  0  0  0  0  0  0  0  0  0  0  0
   -0.3456    3.7821    2.2956 C   0  0  2  0  0  0  0  0  0  0  0  0
    0.6069    4.9930    2.3594 C   0  0  0  0  0  0  0  0  0  0  0  0
    1.8225    4.8343    2.3584 O   0  0  0  0  0  0  0  0  0  0  0  0
   -0.6394    3.2584    3.7033 C   0  0  0  0  0  0  0  0  0  0  0  0
    1.2270    2.6121    1.4474 H   0  0  0  0  0  0  0  0  0  0  0  0
   -1.2793    4.1301    1.8422 H   0  0  0  0  0  0  0  0  0  0  0  0
    0.2813    2.9060    4.1794 H   0  0  0  0  0  0  0  0  0  0  0  0
   -1.0739    4.0485    4.3228 H   0  0  0  0  0  0  0  0  0  0  0  0
   -1.3480    2.4254    3.6549 H   0  0  0  0  0  0  0  0  0  0  0  0
    0.0935    6.2748    2.4485 N   0  0  0  0  0  0  0  0  0  0  0  0
    0.9277    7.4692    2.4455 C   0  0  0  0  0  0  0  0  0  0  0  0
   -0.9134    6.3770    2.3628 H   0  0  0  0  0  0  0  0  0  0  0  0
    1.6299    7.4486    3.2854 H   0  0  0  0  0  0  0  0  0  0  0  0
    1.4955    7.5364    1.5117 H   0  0  0  0  0  0  0  0  0  0  0  0
    0.3056    8.3641    2.5388 H   0  0  0  0  0  0  0  0  0  0  0  0
  1  2  2  0  0  0  0
  1  3  1  0  0  0  0
  1  7  1  0  0  0  0
  3  4  1  0  0  0  0
  3  5  1  0  0  0  0
  3  6  1  0  0  0  0
  7  8  1  0  0  0  0
  7 12  1  0  0  0  0
  8  9  1  0  0  0  0
  8 11  1  0  0  0  0
  8 13  1  0  0  0  0
  9 10  2  0  0  0  0
  9 17  1  0  0  0  0
 11 14  1  0  0  0  0
 11 15  1  0  0  0  0
 11 16  1  0  0  0  0
 17 18  1  0  0  0  0
 17 25  1  0  0  0  0
 18 19  1  0  0  0  0
 18 21  1  0  0  0  0
 18 26  1  0  0  0  0
 19 20  2  0  0  0  0
 19 29  1  0  0  0  0
 21 22  1  0  0  0  0
 21 27  1  0  0  0  0
 21 28  1  0  0  0  0
 22 23  1  0  0  0  0
 22 24  2  0  0  0  0
 29 30  1  0  0  0  0
 29 34  1  0  0  0  0
 30 31  1  0  0  0  0
 30 33  1  0  0  0  0
 30 35  1  0  0  0  0
 31 32  2  0  0  0  0
 31 39  1  0  0  0  0
 33 36  1  0  0  0  0
 33 37  1  0  0  0  0
 33 38  1  0  0  0  0
 39 40  1  0  0  0  0
 39 41  1  0  0  0  0
 40 42  1  0  0  0  0
 40 43  1  0  0  0  0
 40 44  1  0  0  0  0
M  CHG  1  23  -1
M  END
$$$$

  -OEChem-05262215553D

 44 43  0     1  0  0  0  0  0999 V2000
   -4.6291   -0.0140   -3.8711 C   0  0  0  0  0  0  0  0  0  0  0  0
   -4.8019   -1.2232   -3.8480 O   0  0  0  0  0  0  0  0  0  0  0  0
   -5.7865    0.9098   -4.2036 C   0  0  0  0  0  0  0  0  0  0  0  0
   -5.5690    1.4625   -5.1208 H   0  0  0  0  0  0  0  0  0  0  0  0
   -6.7033    0.3313   -4.3475 H   0  0  0  0  0  0  0  0  0  0  0  0
   -5.9426    1.6193   -3.3870 H   0  0  0  0  0  0  0  0  0  0  0  0
   -3.3924    0.5251   -3.5945 N   0  0  0  0  0  0  0  0  0  0  0  0
   -2.2631   -0.2243   -3.0299 C   0  0  2  0  0  0  0  0  0  0  0  0
   -1.4442    0.6646   -2.0684 C   0  0  0  0  0  0  0  0  0  0  0  0
   -1.5988    1.8826   -2.1138 O   0  0  0  0  0  0  0  0  0  0  0  0
   -1.3874   -0.7279   -4.1812 C   0  0  0  0  0  0  0  0  0  0  0  0
   -3.3429    1.5378   -3.4815 H   0  0  0  0  0  0  0  0  0  0  0  0
   -2.6319   -1.0791   -2.4527 H   0  0  0  0  0  0  0  0  0  0  0  0
   -0.9960    0.1144   -4.7605 H   0  0  0  0  0  0  0  0  0  0  0  0
   -0.5424   -1.3079   -3.7971 H   0  0  0  0  0  0  0  0  0  0  0  0
   -1.9713   -1.3700   -4.8478 H   0  0  0  0  0  0  0  0  0  0  0  0
   -0.4699    0.0895   -1.2724 N   0  0  0  0  0  0  0  0  0  0  0  0
    0.1960    0.6548   -0.0844 C   0  0  2  0  0  0  0  0  0  0  0  0
   -0.4638    1.8981    0.5741 C   0  0  0  0  0  0  0  0  0  0  0  0
   -1.6628    1.8801    0.8449 O   0  0  0  0  0  0  0  0  0  0  0  0
    1.6590    0.8986   -0.5215 C   0  0  0  0  0  0  0  0  0  0  0  0
    2.4132   -0.4095   -0.7519 C   0  0  0  0  0  0  0  0  0  0  0  0
    2.0693   -1.4242   -0.0941 O   0  5  0  0  0  0  0  0  0  0  0  0
    3.3275   -0.3945   -1.6083 O   0  0  0  0  0  0  0  0  0  0  0  0
   -0.3125   -0.9059   -1.4126 H   0  0  0  0  0  0  0  0  0  0  0  0
    0.1807   -0.0982    0.7103 H   0  0  0  0  0  0  0  0  0  0  0  0
    2.2054    1.4339    0.2573 H   0  0  0  0  0  0  0  0  0  0  0  0
    1.6808    1.5064   -1.4311 H   0  0  0  0  0  0  0  0  0  0  0  0
    0.2994    2.8491    1.2309 N   0  0  0  0  0  0  0  0  0  0  0  0
   -0.2516    4.0188    1.9264 C   0  0  2  0  0  0  0  0  0  0  0  0
    0.5610    5.3003    1.6522 C   0  0  0  0  0  0  0  0  0  0  0  0
    1.7744    5.2500    1.4846 O   0  0  0  0  0  0  0  0  0  0  0  0
   -0.2736    3.7120    3.4252 C   0  0  0  0  0  0  0  0  0  0  0  0
    1.2897    2.8728    0.9917 H   0  0  0  0  0  0  0  0  0  0  0  0
   -1.2747    4.2064    1.5848 H   0  0  0  0  0  0  0  0  0  0  0  0
    0.7399    3.5157    3.7899 H   0  0  0  0  0  0  0  0  0  0  0  0
   -0.6884    4.5567    3.9828 H   0  0  0  0  0  0  0  0  0  0  0  0
   -0.8914    2.8296    3.6201 H   0  0  0  0  0  0  0  0  0  0  0  0
   -0.0733    6.5298    1.6294 N   0  0  0  0  0  0  0  0  0  0  0  0
    0.6141    7.7767    1.3211 C   0  0  0  0  0  0  0  0  0  0  0  0
   -1.0870    6.5277    1.6904 H   0  0  0  0  0  0  0  0  0  0  0  0
    1.4188    7.9582    2.0410 H   0  0  0  0  0  0  0  0  0  0  0  0
    1.0423    7.7386    0.3139 H   0  0  0  0  0  0  0  0  0  0  0  0
   -0.0867    8.6153    1.3692 H   0  0  0  0  0  0  0  0  0  0  0  0
  1  2  2  0  0  0  0
  1  3  1  0  0  0  0
  1  7  1  0  0  0  0
  3  4  1  0  0  0  0
  3  5  1  0  0  0  0
  3  6  1  0  0  0  0
  7  8  1  0  0  0  0
  7 12  1  0  0  0  0
  8  9  1  0  0  0  0
  8 11  1  0  0  0  0
  8 13  1  0  0  0  0
  9 10  2  0  0  0  0
  9 17  1  0  0  0  0
 11 14  1  0  0  0  0
 11 15  1  0  0  0  0
 11 16  1  0  0  0  0
 17 18  1  0  0  0  0
 17 25  1  0  0  0  0
 18 19  1  0  0  0  0
 18 21  1  0  0  0  0
 18 26  1  0  0  0  0
 19 20  2  0  0  0  0
 19 29  1  0  0  0  0
 21 22  1  0  0  0  0
 21 27  1  0  0  0  0
 21 28  1  0  0  0  0
 22 23  1  0  0  0  0
 22 24  2  0  0  0  0
 29 30  1  0  0  0  0
 29 34  1  0  0  0  0
 30 31  1  0  0  0  0
 30 33  1  0  0  0  0
 30 35  1  0  0  0  0
 31 32  2  0  0  0  0
 31 39  1  0  0  0  0
 33 36  1  0  0  0  0
 33 37  1  0  0  0  0
 33 38  1  0  0  0  0
 39 40  1  0  0  0  0
 39 41  1  0  0  0  0
 40 42  1  0  0  0  0
 40 43  1  0  0  0  0
 40 44  1  0  0  0  0
M  CHG  1  23  -1
M  END
$$$$

  -OEChem-05262215553D

 44 43  0     1  0  0  0  0  0999 V2000
   -4.6089   -0.0414   -3.9044 C   0  0  0  0  0  0  0  0  0  0  0  0
   -4.7447   -1.2551   -3.9339 O   0  0  0  0  0  0  0  0  0  0  0  0
   -5.7920    0.8594   -4.2087 C   0  0  0  0  0  0  0  0  0  0  0  0
   -5.5723    1.4817   -5.0795 H   0  0  0  0  0  0  0  0  0  0  0  0
   -6.6814    0.2588   -4.4183 H   0  0  0  0  0  0  0  0  0  0  0  0
   -5.9972    1.5048   -3.3509 H   0  0  0  0  0  0  0  0  0  0  0  0
   -3.3944    0.5232   -3.5825 N   0  0  0  0  0  0  0  0  0  0  0  0
   -2.2564   -0.2142   -3.0189 C   0  0  2  0  0  0  0  0  0  0  0  0
   -1.4791    0.6629   -2.0126 C   0  0  0  0  0  0  0  0  0  0  0  0
   -1.6962    1.8719   -1.9903 O   0  0  0  0  0  0  0  0  0  0  0  0
   -1.3449   -0.6635   -4.1653 C   0  0  0  0  0  0  0  0  0  0  0  0
   -3.3802    1.5312   -3.4256 H   0  0  0  0  0  0  0  0  0  0  0  0
   -2.6148   -1.0948   -2.4756 H   0  0  0  0  0  0  0  0  0  0  0  0
   -0.9577    0.2045   -4.7084 H   0  0  0  0  0  0  0  0  0  0  0  0
   -0.4967   -1.2383   -3.7800 H   0  0  0  0  0  0  0  0  0  0  0  0
   -1.8995   -1.2962   -4.8653 H   0  0  0  0  0  0  0  0  0  0  0  0
   -0.4930    0.0852   -1.2333 N   0  0  0  0  0  0  0  0  0  0  0  0
    0.2038    0.6412   -0.0595 C   0  0  2  0  0  0  0  0  0  0  0  0
   -0.4403    1.8890    0.6034 C   0  0  0  0  0  0  0  0  0  0  0  0
   -1.5843    1.8162    1.0469 O   0  0  0  0  0  0  0  0  0  0  0  0
    1.6572    0.8800   -0.5289 C   0  0  0  0  0  0  0  0  0  0  0  0
    2.3986   -0.4306   -0.7835 C   0  0  0  0  0  0  0  0  0  0  0  0
    2.0656   -1.4475   -0.1242 O   0  5  0  0  0  0  0  0  0  0  0  0
    3.2796   -0.4185   -1.6742 O   0  0  0  0  0  0  0  0  0  0  0  0
   -0.2987   -0.8970   -1.4166 H   0  0  0  0  0  0  0  0  0  0  0  0
    0.2022   -0.1122    0.7350 H   0  0  0  0  0  0  0  0  0  0  0  0
    2.2207    1.4056    0.2454 H   0  0  0  0  0  0  0  0  0  0  0  0
    1.6643    1.4952   -1.4339 H   0  0  0  0  0  0  0  0  0  0  0  0
    0.3153    2.9879    0.9758 N   0  0  0  0  0  0  0  0  0  0  0  0
   -0.2446    4.2099    1.5640 C   0  0  2  0  0  0  0  0  0  0  0  0
    0.3937    5.4838    0.9742 C   0  0  0  0  0  0  0  0  0  0  0  0
    1.5805    5.5064    0.6672 O   0  0  0  0  0  0  0  0  0  0  0  0
   -0.0297    4.1541    3.0781 C   0  0  0  0  0  0  0  0  0  0  0  0
    1.2423    3.0545    0.5578 H   0  0  0  0  0  0  0  0  0  0  0  0
   -1.3187    4.2612    1.3576 H   0  0  0  0  0  0  0  0  0  0  0  0
    1.0385    4.0971    3.3105 H   0  0  0  0  0  0  0  0  0  0  0  0
   -0.4453    5.0459    3.5566 H   0  0  0  0  0  0  0  0  0  0  0  0
   -0.5254    3.2724    3.4967 H   0  0  0  0  0  0  0  0  0  0  0  0
   -0.3652    6.6305    0.8193 N   0  0  0  0  0  0  0  0  0  0  0  0
    0.1476    7.8484    0.2056 C   0  0  0  0  0  0  0  0  0  0  0  0
   -1.3633    6.5484    0.9883 H   0  0  0  0  0  0  0  0  0  0  0  0
    1.0032    8.2318    0.7714 H   0  0  0  0  0  0  0  0  0  0  0  0
    0.4638    7.6539   -0.8247 H   0  0  0  0  0  0  0  0  0  0  0  0
   -0.6291    8.6188    0.1906 H   0  0  0  0  0  0  0  0  0  0  0  0
  1  2  2  0  0  0  0
  1  3  1  0  0  0  0
  1  7  1  0  0  0  0
  3  4  1  0  0  0  0
  3  5  1  0  0  0  0
  3  6  1  0  0  0  0
  7  8  1  0  0  0  0
  7 12  1  0  0  0  0
  8  9  1  0  0  0  0
  8 11  1  0  0  0  0
  8 13  1  0  0  0  0
  9 10  2  0  0  0  0
  9 17  1  0  0  0  0
 11 14  1  0  0  0  0
 11 15  1  0  0  0  0
 11 16  1  0  0  0  0
 17 18  1  0  0  0  0
 17 25  1  0  0  0  0
 18 19  1  0  0  0  0
 18 21  1  0  0  0  0
 18 26  1  0  0  0  0
 19 20  2  0  0  0  0
 19 29  1  0  0  0  0
 21 22  1  0  0  0  0
 21 27  1  0  0  0  0
 21 28  1  0  0  0  0
 22 23  1  0  0  0  0
 22 24  2  0  0  0  0
 29 30  1  0  0  0  0
 29 34  1  0  0  0  0
 30 31  1  0  0  0  0
 30 33  1  0  0  0  0
 30 35  1  0  0  0  0
 31 32  2  0  0  0  0
 31 39  1  0  0  0  0
 33 36  1  0  0  0  0
 33 37  1  0  0  0  0
 33 38  1  0  0  0  0
 39 40  1  0  0  0  0
 39 41  1  0  0  0  0
 40 42  1  0  0  0  0
 40 43  1  0  0  0  0
 40 44  1  0  0  0  0
M  CHG  1  23  -1
M  END
$$$$

  -OEChem-05262215553D

 44 43  0     1  0  0  0  0  0999 V2000
   -4.5965   -0.0480   -3.9127 C   0  0  0  0  0  0  0  0  0  0  0  0
   -4.7194   -1.2628   -3.9519 O   0  0  0  0  0  0  0  0  0  0  0  0
   -5.7827    0.8432   -4.2323 C   0  0  0  0  0  0  0  0  0  0  0  0
   -5.5532    1.4736   -5.0946 H   0  0  0  0  0  0  0  0  0  0  0  0
   -6.6616    0.2349   -4.4627 H   0  0  0  0  0  0  0  0  0  0  0  0
   -6.0101    1.4805   -3.3743 H   0  0  0  0  0  0  0  0  0  0  0  0
   -3.3926    0.5270   -3.5708 N   0  0  0  0  0  0  0  0  0  0  0  0
   -2.2533   -0.2033   -3.0012 C   0  0  2  0  0  0  0  0  0  0  0  0
   -1.5144    0.6593   -1.9544 C   0  0  0  0  0  0  0  0  0  0  0  0
   -1.7799    1.8565   -1.8783 O   0  0  0  0  0  0  0  0  0  0  0  0
   -1.3099   -0.6027   -4.1400 C   0  0  0  0  0  0  0  0  0  0  0  0
   -3.3926    1.5330   -3.4036 H   0  0  0  0  0  0  0  0  0  0  0  0
   -2.6050   -1.1061   -2.4904 H   0  0  0  0  0  0  0  0  0  0  0  0
   -0.9375    0.2869   -4.6578 H   0  0  0  0  0  0  0  0  0  0  0  0
   -0.4530   -1.1631   -3.7527 H   0  0  0  0  0  0  0  0  0  0  0  0
   -1.8356   -1.2344   -4.8624 H   0  0  0  0  0  0  0  0  0  0  0  0
   -0.5184    0.0802   -1.1890 N   0  0  0  0  0  0  0  0  0  0  0  0
    0.2088    0.6365   -0.0348 C   0  0  2  0  0  0  0  0  0  0  0  0
   -0.4105    1.8953    0.6270 C   0  0  0  0  0  0  0  0  0  0  0  0
   -1.4668    1.7946    1.2467 O   0  0  0  0  0  0  0  0  0  0  0  0
    1.6494    0.8698   -0.5423 C   0  0  0  0  0  0  0  0  0  0  0  0
    2.3825   -0.4419   -0.8136 C   0  0  0  0  0  0  0  0  0  0  0  0
    2.0662   -1.4571   -0.1444 O   0  5  0  0  0  0  0  0  0  0  0  0
    3.2299   -0.4349   -1.7363 O   0  0  0  0  0  0  0  0  0  0  0  0
   -0.2975   -0.8903   -1.4034 H   0  0  0  0  0  0  0  0  0  0  0  0
    0.2231   -0.1118    0.7647 H   0  0  0  0  0  0  0  0  0  0  0  0
    2.2285    1.4008    0.2172 H   0  0  0  0  0  0  0  0  0  0  0  0
    1.6344    1.4801   -1.4505 H   0  0  0  0  0  0  0  0  0  0  0  0
    0.2750    3.0959    0.7007 N   0  0  0  0  0  0  0  0  0  0  0  0
   -0.3167    4.3444    1.1938 C   0  0  2  0  0  0  0  0  0  0  0  0
    0.0790    5.5567    0.3270 C   0  0  0  0  0  0  0  0  0  0  0  0
    1.2182    5.6682   -0.1128 O   0  0  0  0  0  0  0  0  0  0  0  0
    0.1325    4.5487    2.6421 C   0  0  0  0  0  0  0  0  0  0  0  0
    1.1056    3.1709    0.1150 H   0  0  0  0  0  0  0  0  0  0  0  0
   -1.4088    4.2719    1.1669 H   0  0  0  0  0  0  0  0  0  0  0  0
    1.2230    4.6256    2.6970 H   0  0  0  0  0  0  0  0  0  0  0  0
   -0.3042    5.4642    3.0519 H   0  0  0  0  0  0  0  0  0  0  0  0
   -0.1892    3.7035    3.2588 H   0  0  0  0  0  0  0  0  0  0  0  0
   -0.8428    6.5573    0.0745 N   0  0  0  0  0  0  0  0  0  0  0  0
   -0.5659    7.6923   -0.7959 C   0  0  0  0  0  0  0  0  0  0  0  0
   -1.8016    6.3793    0.3587 H   0  0  0  0  0  0  0  0  0  0  0  0
    0.2937    8.2598   -0.4243 H   0  0  0  0  0  0  0  0  0  0  0  0
   -0.3500    7.3505   -1.8136 H   0  0  0  0  0  0  0  0  0  0  0  0
   -1.4309    8.3612   -0.8298 H   0  0  0  0  0  0  0  0  0  0  0  0
  1  2  2  0  0  0  0
  1  3  1  0  0  0  0
  1  7  1  0  0  0  0
  3  4  1  0  0  0  0
  3  5  1  0  0  0  0
  3  6  1  0  0  0  0
  7  8  1  0  0  0  0
  7 12  1  0  0  0  0
  8  9  1  0  0  0  0
  8 11  1  0  0  0  0
  8 13  1  0  0  0  0
  9 10  2  0  0  0  0
  9 17  1  0  0  0  0
 11 14  1  0  0  0  0
 11 15  1  0  0  0  0
 11 16  1  0  0  0  0
 17 18  1  0  0  0  0
 17 25  1  0  0  0  0
 18 19  1  0  0  0  0
 18 21  1  0  0  0  0
 18 26  1  0  0  0  0
 19 20  2  0  0  0  0
 19 29  1  0  0  0  0
 21 22  1  0  0  0  0
 21 27  1  0  0  0  0
 21 28  1  0  0  0  0
 22 23  1  0  0  0  0
 22 24  2  0  0  0  0
 29 30  1  0  0  0  0
 29 34  1  0  0  0  0
 30 31  1  0  0  0  0
 30 33  1  0  0  0  0
 30 35  1  0  0  0  0
 31 32  2  0  0  0  0
 31 39  1  0  0  0  0
 33 36  1  0  0  0  0
 33 37  1  0  0  0  0
 33 38  1  0  0  0  0
 39 40  1  0  0  0  0
 39 41  1  0  0  0  0
 40 42  1  0  0  0  0
 40 43  1  0  0  0  0
 40 44  1  0  0  0  0
M  CHG  1  23  -1
M  END
$$$$

  -OEChem-05262215553D

 44 43  0     1  0  0  0  0  0999 V2000
   -4.4280    0.6481   -4.1994 C   0  0  0  0  0  0  0  0  0  0  0  0
   -4.7326   -0.5338   -4.2397 O   0  0  0  0  0  0  0  0  0  0  0  0
   -5.3920    1.6982   -4.7205 C   0  0  0  0  0  0  0  0  0  0  0  0
   -4.9207    2.2706   -5.5233 H   0  0  0  0  0  0  0  0  0  0  0  0
   -6.2958    1.2215   -5.1100 H   0  0  0  0  0  0  0  0  0  0  0  0
   -5.6724    2.3799   -3.9135 H   0  0  0  0  0  0  0  0  0  0  0  0
   -3.2160    1.0419   -3.6763 N   0  0  0  0  0  0  0  0  0  0  0  0
   -2.2894    0.1579   -2.9570 C   0  0  2  0  0  0  0  0  0  0  0  0
   -1.5289    0.9301   -1.8561 C   0  0  0  0  0  0  0  0  0  0  0  0
   -1.6318    2.1530   -1.8057 O   0  0  0  0  0  0  0  0  0  0  0  0
   -1.3124   -0.4515   -3.9684 C   0  0  0  0  0  0  0  0  0  0  0  0
   -3.0757    2.0415   -3.5332 H   0  0  0  0  0  0  0  0  0  0  0  0
   -2.8487   -0.6453   -2.4654 H   0  0  0  0  0  0  0  0  0  0  0  0
   -0.7263    0.3341   -4.4558 H   0  0  0  0  0  0  0  0  0  0  0  0
   -0.6231   -1.1420   -3.4725 H   0  0  0  0  0  0  0  0  0  0  0  0
   -1.8589   -1.0072   -4.7368 H   0  0  0  0  0  0  0  0  0  0  0  0
   -0.6880    0.2456   -0.9985 N   0  0  0  0  0  0  0  0  0  0  0  0
    0.0333    0.7404    0.1874 C   0  0  2  0  0  0  0  0  0  0  0  0
   -0.4265    2.1055    0.7614 C   0  0  0  0  0  0  0  0  0  0  0  0
   -1.4325    2.1712    1.4585 O   0  0  0  0  0  0  0  0  0  0  0  0
    1.5208    0.7673   -0.2271 C   0  0  0  0  0  0  0  0  0  0  0  0
    2.0951   -0.6328   -0.4174 C   0  0  0  0  0  0  0  0  0  0  0  0
    1.6108   -1.5786    0.2512 O   0  5  0  0  0  0  0  0  0  0  0  0
    2.9937   -0.7565   -1.2811 O   0  0  0  0  0  0  0  0  0  0  0  0
   -0.5849   -0.7525   -1.1747 H   0  0  0  0  0  0  0  0  0  0  0  0
   -0.1062    0.0283    1.0083 H   0  0  0  0  0  0  0  0  0  0  0  0
    2.1110    1.2481    0.5571 H   0  0  0  0  0  0  0  0  0  0  0  0
    1.6441    1.3417   -1.1503 H   0  0  0  0  0  0  0  0  0  0  0  0
    0.3172    3.2570    0.5688 N   0  0  0  0  0  0  0  0  0  0  0  0
   -0.0091    4.5726    1.1416 C   0  0  2  0  0  0  0  0  0  0  0  0
   -0.9467    5.4343    0.2599 C   0  0  0  0  0  0  0  0  0  0  0  0
   -1.0621    6.6380    0.4725 O   0  0  0  0  0  0  0  0  0  0  0  0
    1.3258    5.2776    1.4054 C   0  0  0  0  0  0  0  0  0  0  0  0
    1.1048    3.1771   -0.0682 H   0  0  0  0  0  0  0  0  0  0  0  0
   -0.5153    4.4352    2.1027 H   0  0  0  0  0  0  0  0  0  0  0  0
    1.8444    5.4819    0.4637 H   0  0  0  0  0  0  0  0  0  0  0  0
    1.1599    6.2271    1.9240 H   0  0  0  0  0  0  0  0  0  0  0  0
    1.9685    4.6524    2.0327 H   0  0  0  0  0  0  0  0  0  0  0  0
   -1.6318    4.8842   -0.8069 N   0  0  0  0  0  0  0  0  0  0  0  0
   -2.5524    5.6256   -1.6534 C   0  0  0  0  0  0  0  0  0  0  0  0
   -1.5595    3.8689   -0.9325 H   0  0  0  0  0  0  0  0  0  0  0  0
   -3.3967    5.9988   -1.0652 H   0  0  0  0  0  0  0  0  0  0  0  0
   -2.0439    6.4734   -2.1230 H   0  0  0  0  0  0  0  0  0  0  0  0
   -2.9387    4.9741   -2.4427 H   0  0  0  0  0  0  0  0  0  0  0  0
  1  2  2  0  0  0  0
  1  3  1  0  0  0  0
  1  7  1  0  0  0  0
  3  4  1  0  0  0  0
  3  5  1  0  0  0  0
  3  6  1  0  0  0  0
  7  8  1  0  0  0  0
  7 12  1  0  0  0  0
  8  9  1  0  0  0  0
  8 11  1  0  0  0  0
  8 13  1  0  0  0  0
  9 10  2  0  0  0  0
  9 17  1  0  0  0  0
 11 14  1  0  0  0  0
 11 15  1  0  0  0  0
 11 16  1  0  0  0  0
 17 18  1  0  0  0  0
 17 25  1  0  0  0  0
 18 19  1  0  0  0  0
 18 21  1  0  0  0  0
 18 26  1  0  0  0  0
 19 20  2  0  0  0  0
 19 29  1  0  0  0  0
 21 22  1  0  0  0  0
 21 27  1  0  0  0  0
 21 28  1  0  0  0  0
 22 23  1  0  0  0  0
 22 24  2  0  0  0  0
 29 30  1  0  0  0  0
 29 34  1  0  0  0  0
 30 31  1  0  0  0  0
 30 33  1  0  0  0  0
 30 35  1  0  0  0  0
 31 32  2  0  0  0  0
 31 39  1  0  0  0  0
 33 36  1  0  0  0  0
 33 37  1  0  0  0  0
 33 38  1  0  0  0  0
 39 40  1  0  0  0  0
 39 41  1  0  0  0  0
 40 42  1  0  0  0  0
 40 43  1  0  0  0  0
 40 44  1  0  0  0  0
M  CHG  1  23  -1
M  END
$$$$

  -OEChem-05262215553D

 44 43  0     1  0  0  0  0  0999 V2000
   -4.4383    0.4640   -4.3082 C   0  0  0  0  0  0  0  0  0  0  0  0
   -4.7413   -0.7186   -4.2804 O   0  0  0  0  0  0  0  0  0  0  0  0
   -5.3987    1.4801   -4.8994 C   0  0  0  0  0  0  0  0  0  0  0  0
   -4.9250    1.9964   -5.7378 H   0  0  0  0  0  0  0  0  0  0  0  0
   -6.3039    0.9821   -5.2579 H   0  0  0  0  0  0  0  0  0  0  0  0
   -5.6780    2.2146   -4.1399 H   0  0  0  0  0  0  0  0  0  0  0  0
   -3.2312    0.8905   -3.7991 N   0  0  0  0  0  0  0  0  0  0  0  0
   -2.3125    0.0532   -3.0154 C   0  0  2  0  0  0  0  0  0  0  0  0
   -1.6023    0.8804   -1.9212 C   0  0  0  0  0  0  0  0  0  0  0  0
   -1.7319    2.1008   -1.9183 O   0  0  0  0  0  0  0  0  0  0  0  0
   -1.2912   -0.5732   -3.9709 C   0  0  0  0  0  0  0  0  0  0  0  0
   -3.0956    1.8972   -3.7145 H   0  0  0  0  0  0  0  0  0  0  0  0
   -2.8709   -0.7431   -2.5110 H   0  0  0  0  0  0  0  0  0  0  0  0
   -0.7104    0.2056   -4.4751 H   0  0  0  0  0  0  0  0  0  0  0  0
   -0.5995   -1.2230   -3.4256 H   0  0  0  0  0  0  0  0  0  0  0  0
   -1.8014   -1.1757   -4.7290 H   0  0  0  0  0  0  0  0  0  0  0  0
   -0.7907    0.2434   -1.0023 N   0  0  0  0  0  0  0  0  0  0  0  0
   -0.0784    0.7954    0.1643 C   0  0  2  0  0  0  0  0  0  0  0  0
   -0.4985    2.2027    0.6623 C   0  0  0  0  0  0  0  0  0  0  0  0
   -1.3464    2.3171    1.5394 O   0  0  0  0  0  0  0  0  0  0  0  0
    1.4118    0.7827   -0.2373 C   0  0  0  0  0  0  0  0  0  0  0  0
    1.9719   -0.6320   -0.3454 C   0  0  0  0  0  0  0  0  0  0  0  0
    1.4719   -1.5350    0.3690 O   0  5  0  0  0  0  0  0  0  0  0  0
    2.8605   -0.8162   -1.2088 O   0  0  0  0  0  0  0  0  0  0  0  0
   -0.6678   -0.7594   -1.1368 H   0  0  0  0  0  0  0  0  0  0  0  0
   -0.2366    0.1301    1.0206 H   0  0  0  0  0  0  0  0  0  0  0  0
    1.9976    1.3045    0.5245 H   0  0  0  0  0  0  0  0  0  0  0  0
    1.5511    1.3028   -1.1899 H   0  0  0  0  0  0  0  0  0  0  0  0
    0.1036    3.3499    0.1738 N   0  0  0  0  0  0  0  0  0  0  0  0
   -0.1506    4.7099    0.6764 C   0  0  2  0  0  0  0  0  0  0  0  0
   -1.3385    5.4331   -0.0033 C   0  0  0  0  0  0  0  0  0  0  0  0
   -1.5672    6.6129    0.2472 O   0  0  0  0  0  0  0  0  0  0  0  0
    1.1522    5.4971    0.5009 C   0  0  0  0  0  0  0  0  0  0  0  0
    0.7269    3.2219   -0.6181 H   0  0  0  0  0  0  0  0  0  0  0  0
   -0.3782    4.6621    1.7464 H   0  0  0  0  0  0  0  0  0  0  0  0
    1.3970    5.6031   -0.5605 H   0  0  0  0  0  0  0  0  0  0  0  0
    1.0553    6.4965    0.9367 H   0  0  0  0  0  0  0  0  0  0  0  0
    1.9778    4.9827    1.0026 H   0  0  0  0  0  0  0  0  0  0  0  0
   -2.1215    4.7912   -0.9432 N   0  0  0  0  0  0  0  0  0  0  0  0
   -3.2978    5.3784   -1.5636 C   0  0  0  0  0  0  0  0  0  0  0  0
   -1.9284    3.7963   -1.0976 H   0  0  0  0  0  0  0  0  0  0  0  0
   -4.0606    5.5917   -0.8081 H   0  0  0  0  0  0  0  0  0  0  0  0
   -3.0365    6.3082   -2.0786 H   0  0  0  0  0  0  0  0  0  0  0  0
   -3.7187    4.6832   -2.2962 H   0  0  0  0  0  0  0  0  0  0  0  0
  1  2  2  0  0  0  0
  1  3  1  0  0  0  0
  1  7  1  0  0  0  0
  3  4  1  0  0  0  0
  3  5  1  0  0  0  0
  3  6  1  0  0  0  0
  7  8  1  0  0  0  0
  7 12  1  0  0  0  0
  8  9  1  0  0  0  0
  8 11  1  0  0  0  0
  8 13  1  0  0  0  0
  9 10  2  0  0  0  0
  9 17  1  0  0  0  0
 11 14  1  0  0  0  0
 11 15  1  0  0  0  0
 11 16  1  0  0  0  0
 17 18  1  0  0  0  0
 17 25  1  0  0  0  0
 18 19  1  0  0  0  0
 18 21  1  0  0  0  0
 18 26  1  0  0  0  0
 19 20  2  0  0  0  0
 19 29  1  0  0  0  0
 21 22  1  0  0  0  0
 21 27  1  0  0  0  0
 21 28  1  0  0  0  0
 22 23  1  0  0  0  0
 22 24  2  0  0  0  0
 29 30  1  0  0  0  0
 29 34  1  0  0  0  0
 30 31  1  0  0  0  0
 30 33  1  0  0  0  0
 30 35  1  0  0  0  0
 31 32  2  0  0  0  0
 31 39  1  0  0  0  0
 33 36  1  0  0  0  0
 33 37  1  0  0  0  0
 33 38  1  0  0  0  0
 39 40  1  0  0  0  0
 39 41  1  0  0  0  0
 40 42  1  0  0  0  0
 40 43  1  0  0  0  0
 40 44  1  0  0  0  0
M  CHG  1  23  -1
M  END
$$$$

  -OEChem-05262215553D

 44 43  0     1  0  0  0  0  0999 V2000
   -4.4372    0.1965   -4.3936 C   0  0  0  0  0  0  0  0  0  0  0  0
   -4.6910   -0.9961   -4.3302 O   0  0  0  0  0  0  0  0  0  0  0  0
   -5.4152    1.1467   -5.0603 C   0  0  0  0  0  0  0  0  0  0  0  0
   -4.9372    1.6341   -5.9136 H   0  0  0  0  0  0  0  0  0  0  0  0
   -6.2940    0.5992   -5.4126 H   0  0  0  0  0  0  0  0  0  0  0  0
   -5.7379    1.9104   -4.3479 H   0  0  0  0  0  0  0  0  0  0  0  0
   -3.2720    0.6946   -3.8532 N   0  0  0  0  0  0  0  0  0  0  0  0
   -2.3456   -0.0743   -3.0111 C   0  0  2  0  0  0  0  0  0  0  0  0
   -1.7048    0.8211   -1.9283 C   0  0  0  0  0  0  0  0  0  0  0  0
   -1.8803    2.0343   -1.9770 O   0  0  0  0  0  0  0  0  0  0  0  0
   -1.2696   -0.6928   -3.9100 C   0  0  0  0  0  0  0  0  0  0  0  0
   -3.1798    1.7085   -3.8076 H   0  0  0  0  0  0  0  0  0  0  0  0
   -2.8869   -0.8743   -2.4944 H   0  0  0  0  0  0  0  0  0  0  0  0
   -0.6971    0.0903   -4.4172 H   0  0  0  0  0  0  0  0  0  0  0  0
   -0.5773   -1.3029   -3.3209 H   0  0  0  0  0  0  0  0  0  0  0  0
   -1.7317   -1.3339   -4.6670 H   0  0  0  0  0  0  0  0  0  0  0  0
   -0.9072    0.2488   -0.9576 N   0  0  0  0  0  0  0  0  0  0  0  0
   -0.1883    0.8617    0.1756 C   0  0  2  0  0  0  0  0  0  0  0  0
   -0.5589    2.3061    0.6041 C   0  0  0  0  0  0  0  0  0  0  0  0
   -1.1621    2.5001    1.6525 O   0  0  0  0  0  0  0  0  0  0  0  0
    1.2957    0.8095   -0.2415 C   0  0  0  0  0  0  0  0  0  0  0  0
    1.8386   -0.6155   -0.2752 C   0  0  0  0  0  0  0  0  0  0  0  0
    1.3376   -1.4707    0.4951 O   0  5  0  0  0  0  0  0  0  0  0  0
    2.6932   -0.8652   -1.1565 O   0  0  0  0  0  0  0  0  0  0  0  0
   -0.7522   -0.7547   -1.0526 H   0  0  0  0  0  0  0  0  0  0  0  0
   -0.3480    0.2452    1.0675 H   0  0  0  0  0  0  0  0  0  0  0  0
    1.8945    1.3684    0.4827 H   0  0  0  0  0  0  0  0  0  0  0  0
    1.4308    1.2757   -1.2219 H   0  0  0  0  0  0  0  0  0  0  0  0
   -0.1598    3.4048   -0.1373 N   0  0  0  0  0  0  0  0  0  0  0  0
   -0.3904    4.8053    0.2527 C   0  0  2  0  0  0  0  0  0  0  0  0
   -1.7587    5.3782   -0.1869 C   0  0  0  0  0  0  0  0  0  0  0  0
   -2.0521    6.5412    0.0736 O   0  0  0  0  0  0  0  0  0  0  0  0
    0.7606    5.6230   -0.3406 C   0  0  0  0  0  0  0  0  0  0  0  0
    0.1477    3.1998   -1.0846 H   0  0  0  0  0  0  0  0  0  0  0  0
   -0.3445    4.8889    1.3437 H   0  0  0  0  0  0  0  0  0  0  0  0
    0.7339    5.5845   -1.4340 H   0  0  0  0  0  0  0  0  0  0  0  0
    0.6868    6.6691   -0.0270 H   0  0  0  0  0  0  0  0  0  0  0  0
    1.7222    5.2280    0.0018 H   0  0  0  0  0  0  0  0  0  0  0  0
   -2.6313    4.6302   -0.9538 N   0  0  0  0  0  0  0  0  0  0  0  0
   -3.9371    5.0944   -1.3939 C   0  0  0  0  0  0  0  0  0  0  0  0
   -2.3536    3.6648   -1.1539 H   0  0  0  0  0  0  0  0  0  0  0  0
   -4.5602    5.3539   -0.5320 H   0  0  0  0  0  0  0  0  0  0  0  0
   -3.8340    5.9749   -2.0360 H   0  0  0  0  0  0  0  0  0  0  0  0
   -4.4417    4.3072   -1.9620 H   0  0  0  0  0  0  0  0  0  0  0  0
  1  2  2  0  0  0  0
  1  3  1  0  0  0  0
  1  7  1  0  0  0  0
  3  4  1  0  0  0  0
  3  5  1  0  0  0  0
  3  6  1  0  0  0  0
  7  8  1  0  0  0  0
  7 12  1  0  0  0  0
  8  9  1  0  0  0  0
  8 11  1  0  0  0  0
  8 13  1  0  0  0  0
  9 10  2  0  0  0  0
  9 17  1  0  0  0  0
 11 14  1  0  0  0  0
 11 15  1  0  0  0  0
 11 16  1  0  0  0  0
 17 18  1  0  0  0  0
 17 25  1  0  0  0  0
 18 19  1  0  0  0  0
 18 21  1  0  0  0  0
 18 26  1  0  0  0  0
 19 20  2  0  0  0  0
 19 29  1  0  0  0  0
 21 22  1  0  0  0  0
 21 27  1  0  0  0  0
 21 28  1  0  0  0  0
 22 23  1  0  0  0  0
 22 24  2  0  0  0  0
 29 30  1  0  0  0  0
 29 34  1  0  0  0  0
 30 31  1  0  0  0  0
 30 33  1  0  0  0  0
 30 35  1  0  0  0  0
 31 32  2  0  0  0  0
 31 39  1  0  0  0  0
 33 36  1  0  0  0  0
 33 37  1  0  0  0  0
 33 38  1  0  0  0  0
 39 40  1  0  0  0  0
 39 41  1  0  0  0  0
 40 42  1  0  0  0  0
 40 43  1  0  0  0  0
 40 44  1  0  0  0  0
M  CHG  1  23  -1
M  END
$$$$

  -OEChem-05262215553D

 44 43  0     1  0  0  0  0  0999 V2000
   -4.4645   -0.0762   -4.3909 C   0  0  0  0  0  0  0  0  0  0  0  0
   -4.7248   -1.2538   -4.2017 O   0  0  0  0  0  0  0  0  0  0  0  0
   -5.4309    0.7986   -5.1680 C   0  0  0  0  0  0  0  0  0  0  0  0
   -4.9452    1.1794   -6.0699 H   0  0  0  0  0  0  0  0  0  0  0  0
   -6.3131    0.2214   -5.4592 H   0  0  0  0  0  0  0  0  0  0  0  0
   -5.7495    1.6418   -4.5500 H   0  0  0  0  0  0  0  0  0  0  0  0
   -3.3021    0.4734   -3.8951 N   0  0  0  0  0  0  0  0  0  0  0  0
   -2.3827   -0.2103   -2.9747 C   0  0  2  0  0  0  0  0  0  0  0  0
   -1.7742    0.7739   -1.9516 C   0  0  0  0  0  0  0  0  0  0  0  0
   -1.9735    1.9766   -2.0897 O   0  0  0  0  0  0  0  0  0  0  0  0
   -1.2822   -0.8833   -3.8018 C   0  0  0  0  0  0  0  0  0  0  0  0
   -3.2081    1.4862   -3.9539 H   0  0  0  0  0  0  0  0  0  0  0  0
   -2.9231   -0.9755   -2.4066 H   0  0  0  0  0  0  0  0  0  0  0  0
   -0.7133   -0.1362   -4.3644 H   0  0  0  0  0  0  0  0  0  0  0  0
   -0.5893   -1.4301   -3.1537 H   0  0  0  0  0  0  0  0  0  0  0  0
   -1.7221   -1.5934   -4.5091 H   0  0  0  0  0  0  0  0  0  0  0  0
   -0.9926    0.2805   -0.9258 N   0  0  0  0  0  0  0  0  0  0  0  0
   -0.2695    0.9526    0.1735 C   0  0  2  0  0  0  0  0  0  0  0  0
   -0.5843    2.4301    0.5317 C   0  0  0  0  0  0  0  0  0  0  0  0
   -0.9417    2.7169    1.6677 O   0  0  0  0  0  0  0  0  0  0  0  0
    1.2111    0.8483   -0.2427 C   0  0  0  0  0  0  0  0  0  0  0  0
    1.7273   -0.5864   -0.1900 C   0  0  0  0  0  0  0  0  0  0  0  0
    1.2128   -1.3831    0.6326 O   0  5  0  0  0  0  0  0  0  0  0  0
    2.5593   -0.9109   -1.0687 O   0  0  0  0  0  0  0  0  0  0  0  0
   -0.8272   -0.7259   -0.9600 H   0  0  0  0  0  0  0  0  0  0  0  0
   -0.4419    0.3890    1.0978 H   0  0  0  0  0  0  0  0  0  0  0  0
    1.8212    1.4384    0.4465 H   0  0  0  0  0  0  0  0  0  0  0  0
    1.3529    1.2553   -1.2483 H   0  0  0  0  0  0  0  0  0  0  0  0
   -0.4249    3.4580   -0.3801 N   0  0  0  0  0  0  0  0  0  0  0  0
   -0.7261    4.8706   -0.0941 C   0  0  2  0  0  0  0  0  0  0  0  0
   -2.2081    5.2585   -0.3066 C   0  0  0  0  0  0  0  0  0  0  0  0
   -2.5943    6.3905   -0.0324 O   0  0  0  0  0  0  0  0  0  0  0  0
    0.1884    5.7100   -0.9895 C   0  0  0  0  0  0  0  0  0  0  0  0
   -0.4215    3.1508   -1.3524 H   0  0  0  0  0  0  0  0  0  0  0  0
   -0.4809    5.0925    0.9501 H   0  0  0  0  0  0  0  0  0  0  0  0
   -0.0437    5.5364   -2.0449 H   0  0  0  0  0  0  0  0  0  0  0  0
    0.0579    6.7751   -0.7743 H   0  0  0  0  0  0  0  0  0  0  0  0
    1.2362    5.4483   -0.8123 H   0  0  0  0  0  0  0  0  0  0  0  0
   -3.0950    4.3786   -0.8984 N   0  0  0  0  0  0  0  0  0  0  0  0
   -4.4988    4.6717   -1.1398 C   0  0  0  0  0  0  0  0  0  0  0  0
   -2.7258    3.4592   -1.1547 H   0  0  0  0  0  0  0  0  0  0  0  0
   -5.0075    4.9020   -0.1981 H   0  0  0  0  0  0  0  0  0  0  0  0
   -4.6008    5.5258   -1.8168 H   0  0  0  0  0  0  0  0  0  0  0  0
   -4.9885    3.8062   -1.5958 H   0  0  0  0  0  0  0  0  0  0  0  0
  1  2  2  0  0  0  0
  1  3  1  0  0  0  0
  1  7  1  0  0  0  0
  3  4  1  0  0  0  0
  3  5  1  0  0  0  0
  3  6  1  0  0  0  0
  7  8  1  0  0  0  0
  7 12  1  0  0  0  0
  8  9  1  0  0  0  0
  8 11  1  0  0  0  0
  8 13  1  0  0  0  0
  9 10  2  0  0  0  0
  9 17  1  0  0  0  0
 11 14  1  0  0  0  0
 11 15  1  0  0  0  0
 11 16  1  0  0  0  0
 17 18  1  0  0  0  0
 17 25  1  0  0  0  0
 18 19  1  0  0  0  0
 18 21  1  0  0  0  0
 18 26  1  0  0  0  0
 19 20  2  0  0  0  0
 19 29  1  0  0  0  0
 21 22  1  0  0  0  0
 21 27  1  0  0  0  0
 21 28  1  0  0  0  0
 22 23  1  0  0  0  0
 22 24  2  0  0  0  0
 29 30  1  0  0  0  0
 29 34  1  0  0  0  0
 30 31  1  0  0  0  0
 30 33  1  0  0  0  0
 30 35  1  0  0  0  0
 31 32  2  0  0  0  0
 31 39  1  0  0  0  0
 33 36  1  0  0  0  0
 33 37  1  0  0  0  0
 33 38  1  0  0  0  0
 39 40  1  0  0  0  0
 39 41  1  0  0  0  0
 40 42  1  0  0  0  0
 40 43  1  0  0  0  0
 40 44  1  0  0  0  0
M  CHG  1  23  -1
M  END
$$$$

  -OEChem-05262215553D

 44 43  0     1  0  0  0  0  0999 V2000
   -4.3982   -0.4248   -4.4537 C   0  0  0  0  0  0  0  0  0  0  0  0
   -4.5969   -1.6083   -4.2299 O   0  0  0  0  0  0  0  0  0  0  0  0
   -5.3700    0.3578   -5.3178 C   0  0  0  0  0  0  0  0  0  0  0  0
   -4.8637    0.7129   -6.2187 H   0  0  0  0  0  0  0  0  0  0  0  0
   -6.2105   -0.2771   -5.6115 H   0  0  0  0  0  0  0  0  0  0  0  0
   -5.7551    1.2167   -4.7627 H   0  0  0  0  0  0  0  0  0  0  0  0
   -3.3022    0.2158   -3.9181 N   0  0  0  0  0  0  0  0  0  0  0  0
   -2.3959   -0.3712   -2.9207 C   0  0  2  0  0  0  0  0  0  0  0  0
   -1.8948    0.6922   -1.9176 C   0  0  0  0  0  0  0  0  0  0  0  0
   -2.2222    1.8630   -2.0821 O   0  0  0  0  0  0  0  0  0  0  0  0
   -1.2188   -1.0188   -3.6588 C   0  0  0  0  0  0  0  0  0  0  0  0
   -3.2691    1.2295   -4.0138 H   0  0  0  0  0  0  0  0  0  0  0  0
   -2.9227   -1.1394   -2.3439 H   0  0  0  0  0  0  0  0  0  0  0  0
   -0.6588   -0.2664   -4.2230 H   0  0  0  0  0  0  0  0  0  0  0  0
   -0.5353   -1.5007   -2.9521 H   0  0  0  0  0  0  0  0  0  0  0  0
   -1.5815   -1.7803   -4.3560 H   0  0  0  0  0  0  0  0  0  0  0  0
   -1.0833    0.2955   -0.8725 N   0  0  0  0  0  0  0  0  0  0  0  0
   -0.3410    1.0379    0.1710 C   0  0  2  0  0  0  0  0  0  0  0  0
   -0.6243    2.5340    0.4816 C   0  0  0  0  0  0  0  0  0  0  0  0
   -0.7148    2.8964    1.6481 O   0  0  0  0  0  0  0  0  0  0  0  0
    1.1233    0.9234   -0.2979 C   0  0  0  0  0  0  0  0  0  0  0  0
    1.6584   -0.5012   -0.1898 C   0  0  0  0  0  0  0  0  0  0  0  0
    1.1864   -1.2569    0.6940 O   0  5  0  0  0  0  0  0  0  0  0  0
    2.4398   -0.8707   -1.0967 O   0  0  0  0  0  0  0  0  0  0  0  0
   -0.8498   -0.6984   -0.8831 H   0  0  0  0  0  0  0  0  0  0  0  0
   -0.4777    0.5168    1.1256 H   0  0  0  0  0  0  0  0  0  0  0  0
    1.7550    1.5537    0.3342 H   0  0  0  0  0  0  0  0  0  0  0  0
    1.2206    1.2799   -1.3278 H   0  0  0  0  0  0  0  0  0  0  0  0
   -0.7780    3.4915   -0.5032 N   0  0  0  0  0  0  0  0  0  0  0  0
   -1.1858    4.8838   -0.2530 C   0  0  2  0  0  0  0  0  0  0  0  0
   -2.7181    5.0890   -0.2594 C   0  0  0  0  0  0  0  0  0  0  0  0
   -3.1973    6.1780    0.0394 O   0  0  0  0  0  0  0  0  0  0  0  0
   -0.5200    5.7449   -1.3291 C   0  0  0  0  0  0  0  0  0  0  0  0
   -0.9463    3.1035   -1.4327 H   0  0  0  0  0  0  0  0  0  0  0  0
   -0.8169    5.2109    0.7249 H   0  0  0  0  0  0  0  0  0  0  0  0
   -0.8831    5.4656   -2.3229 H   0  0  0  0  0  0  0  0  0  0  0  0
   -0.7430    6.8032   -1.1609 H   0  0  0  0  0  0  0  0  0  0  0  0
    0.5659    5.6126   -1.3022 H   0  0  0  0  0  0  0  0  0  0  0  0
   -3.5622    4.0865   -0.7015 N   0  0  0  0  0  0  0  0  0  0  0  0
   -5.0089    4.2132   -0.7819 C   0  0  0  0  0  0  0  0  0  0  0  0
   -3.1188    3.2212   -1.0192 H   0  0  0  0  0  0  0  0  0  0  0  0
   -5.4258    4.4626    0.1993 H   0  0  0  0  0  0  0  0  0  0  0  0
   -5.2853    4.9967   -1.4947 H   0  0  0  0  0  0  0  0  0  0  0  0
   -5.4496    3.2686   -1.1144 H   0  0  0  0  0  0  0  0  0  0  0  0
  1  2  2  0  0  0  0
  1  3  1  0  0  0  0
  1  7  1  0  0  0  0
  3  4  1  0  0  0  0
  3  5  1  0  0  0  0
  3  6  1  0  0  0  0
  7  8  1  0  0  0  0
  7 12  1  0  0  0  0
  8  9  1  0  0  0  0
  8 11  1  0  0  0  0
  8 13  1  0  0  0  0
  9 10  2  0  0  0  0
  9 17  1  0  0  0  0
 11 14  1  0  0  0  0
 11 15  1  0  0  0  0
 11 16  1  0  0  0  0
 17 18  1  0  0  0  0
 17 25  1  0  0  0  0
 18 19  1  0  0  0  0
 18 21  1  0  0  0  0
 18 26  1  0  0  0  0
 19 20  2  0  0  0  0
 19 29  1  0  0  0  0
 21 22  1  0  0  0  0
 21 27  1  0  0  0  0
 21 28  1  0  0  0  0
 22 23  1  0  0  0  0
 22 24  2  0  0  0  0
 29 30  1  0  0  0  0
 29 34  1  0  0  0  0
 30 31  1  0  0  0  0
 30 33  1  0  0  0  0
 30 35  1  0  0  0  0
 31 32  2  0  0  0  0
 31 39  1  0  0  0  0
 33 36  1  0  0  0  0
 33 37  1  0  0  0  0
 33 38  1  0  0  0  0
 39 40  1  0  0  0  0
 39 41  1  0  0  0  0
 40 42  1  0  0  0  0
 40 43  1  0  0  0  0
 40 44  1  0  0  0  0
M  CHG  1  23  -1
M  END
$$$$

  -OEChem-05262215553D

 44 43  0     1  0  0  0  0  0999 V2000
   -4.2282    0.1235   -4.2449 C   0  0  0  0  0  0  0  0  0  0  0  0
   -4.2705   -0.9679   -4.7943 O   0  0  0  0  0  0  0  0  0  0  0  0
   -5.2985    1.1607   -4.5313 C   0  0  0  0  0  0  0  0  0  0  0  0
   -4.8401    2.0598   -4.9502 H   0  0  0  0  0  0  0  0  0  0  0  0
   -6.0275    0.7675   -5.2449 H   0  0  0  0  0  0  0  0  0  0  0  0
   -5.8151    1.4256   -3.6052 H   0  0  0  0  0  0  0  0  0  0  0  0
   -3.2214    0.4299   -3.3581 N   0  0  0  0  0  0  0  0  0  0  0  0
   -2.2655   -0.5518   -2.8135 C   0  0  2  0  0  0  0  0  0  0  0  0
   -1.9949   -0.2522   -1.3220 C   0  0  0  0  0  0  0  0  0  0  0  0
   -2.8925    0.2466   -0.6545 O   0  0  0  0  0  0  0  0  0  0  0  0
   -0.9987   -0.5071   -3.6758 C   0  0  0  0  0  0  0  0  0  0  0  0
   -3.3619    1.2930   -2.8228 H   0  0  0  0  0  0  0  0  0  0  0  0
   -2.6876   -1.5612   -2.8610 H   0  0  0  0  0  0  0  0  0  0  0  0
   -0.5707    0.4997   -3.6790 H   0  0  0  0  0  0  0  0  0  0  0  0
   -0.2451   -1.2084   -3.3037 H   0  0  0  0  0  0  0  0  0  0  0  0
   -1.2381   -0.7816   -4.7078 H   0  0  0  0  0  0  0  0  0  0  0  0
   -0.7821   -0.4720   -0.6973 N   0  0  0  0  0  0  0  0  0  0  0  0
    0.0680    0.5406   -0.0143 C   0  0  2  0  0  0  0  0  0  0  0  0
   -0.5003    1.9437    0.3601 C   0  0  0  0  0  0  0  0  0  0  0  0
   -0.0376    2.5804    1.3005 O   0  0  0  0  0  0  0  0  0  0  0  0
    1.2440    0.7723   -0.9845 C   0  0  0  0  0  0  0  0  0  0  0  0
    2.1691   -0.4335   -1.0994 C   0  0  0  0  0  0  0  0  0  0  0  0
    2.2846   -1.2053   -0.1182 O   0  5  0  0  0  0  0  0  0  0  0  0
    2.6169   -0.6700   -2.2451 O   0  0  0  0  0  0  0  0  0  0  0  0
   -0.2080   -1.1575   -1.1876 H   0  0  0  0  0  0  0  0  0  0  0  0
    0.4295    0.1088    0.9256 H   0  0  0  0  0  0  0  0  0  0  0  0
    1.8538    1.6012   -0.6142 H   0  0  0  0  0  0  0  0  0  0  0  0
    0.8724    1.0566   -1.9716 H   0  0  0  0  0  0  0  0  0  0  0  0
   -1.4900    2.5401   -0.3951 N   0  0  0  0  0  0  0  0  0  0  0  0
   -2.1812    3.7960   -0.1212 C   0  0  2  0  0  0  0  0  0  0  0  0
   -3.5184    3.8359   -0.8993 C   0  0  0  0  0  0  0  0  0  0  0  0
   -3.6850    3.1630   -1.9179 O   0  0  0  0  0  0  0  0  0  0  0  0
   -1.2902    4.9704   -0.5388 C   0  0  0  0  0  0  0  0  0  0  0  0
   -2.0172    1.8798   -0.9664 H   0  0  0  0  0  0  0  0  0  0  0  0
   -2.4005    3.8619    0.9492 H   0  0  0  0  0  0  0  0  0  0  0  0
   -1.0443    4.9023   -1.6034 H   0  0  0  0  0  0  0  0  0  0  0  0
   -1.7997    5.9210   -0.3569 H   0  0  0  0  0  0  0  0  0  0  0  0
   -0.3575    4.9644    0.0335 H   0  0  0  0  0  0  0  0  0  0  0  0
   -4.5504    4.6428   -0.4549 N   0  0  0  0  0  0  0  0  0  0  0  0
   -5.8679    4.6674   -1.0758 C   0  0  0  0  0  0  0  0  0  0  0  0
   -4.4123    5.1276    0.4267 H   0  0  0  0  0  0  0  0  0  0  0  0
   -5.7901    4.9551   -2.1294 H   0  0  0  0  0  0  0  0  0  0  0  0
   -6.3382    3.6806   -1.0124 H   0  0  0  0  0  0  0  0  0  0  0  0
   -6.5111    5.3919   -0.5675 H   0  0  0  0  0  0  0  0  0  0  0  0
  1  2  2  0  0  0  0
  1  3  1  0  0  0  0
  1  7  1  0  0  0  0
  3  4  1  0  0  0  0
  3  5  1  0  0  0  0
  3  6  1  0  0  0  0
  7  8  1  0  0  0  0
  7 12  1  0  0  0  0
  8  9  1  0  0  0  0
  8 11  1  0  0  0  0
  8 13  1  0  0  0  0
  9 10  2  0  0  0  0
  9 17  1  0  0  0  0
 11 14  1  0  0  0  0
 11 15  1  0  0  0  0
 11 16  1  0  0  0  0
 17 18  1  0  0  0  0
 17 25  1  0  0  0  0
 18 19  1  0  0  0  0
 18 21  1  0  0  0  0
 18 26  1  0  0  0  0
 19 20  2  0  0  0  0
 19 29  1  0  0  0  0
 21 22  1  0  0  0  0
 21 27  1  0  0  0  0
 21 28  1  0  0  0  0
 22 23  1  0  0  0  0
 22 24  2  0  0  0  0
 29 30  1  0  0  0  0
 29 34  1  0  0  0  0
 30 31  1  0  0  0  0
 30 33  1  0  0  0  0
 30 35  1  0  0  0  0
 31 32  2  0  0  0  0
 31 39  1  0  0  0  0
 33 36  1  0  0  0  0
 33 37  1  0  0  0  0
 33 38  1  0  0  0  0
 39 40  1  0  0  0  0
 39 41  1  0  0  0  0
 40 42  1  0  0  0  0
 40 43  1  0  0  0  0
 40 44  1  0  0  0  0
M  CHG  1  23  -1
M  END
$$$$

  -OEChem-05262215553D

 44 43  0     1  0  0  0  0  0999 V2000
   -4.5467    0.2589   -3.7579 C   0  0  0  0  0  0  0  0  0  0  0  0
   -4.5594   -0.8976   -4.1526 O   0  0  0  0  0  0  0  0  0  0  0  0
   -5.8497    1.0249   -3.6222 C   0  0  0  0  0  0  0  0  0  0  0  0
   -5.7482    2.0162   -4.0711 H   0  0  0  0  0  0  0  0  0  0  0  0
   -6.6582    0.4896   -4.1272 H   0  0  0  0  0  0  0  0  0  0  0  0
   -6.1051    1.1407   -2.5669 H   0  0  0  0  0  0  0  0  0  0  0  0
   -3.3549    0.8729   -3.4411 N   0  0  0  0  0  0  0  0  0  0  0  0
   -2.0318    0.2346   -3.5295 C   0  0  2  0  0  0  0  0  0  0  0  0
   -1.0515    0.8873   -2.5333 C   0  0  0  0  0  0  0  0  0  0  0  0
   -0.5328    1.9597   -2.8149 O   0  0  0  0  0  0  0  0  0  0  0  0
   -1.5272    0.3335   -4.9750 C   0  0  0  0  0  0  0  0  0  0  0  0
   -3.4190    1.8240   -3.0638 H   0  0  0  0  0  0  0  0  0  0  0  0
   -2.1135   -0.8251   -3.2656 H   0  0  0  0  0  0  0  0  0  0  0  0
   -1.4723    1.3791   -5.2947 H   0  0  0  0  0  0  0  0  0  0  0  0
   -0.5302   -0.1094   -5.0592 H   0  0  0  0  0  0  0  0  0  0  0  0
   -2.2015   -0.2018   -5.6502 H   0  0  0  0  0  0  0  0  0  0  0  0
   -0.8209    0.2781   -1.3129 N   0  0  0  0  0  0  0  0  0  0  0  0
   -0.5583    0.8330    0.0379 C   0  0  2  0  0  0  0  0  0  0  0  0
   -0.8338    2.3258    0.3892 C   0  0  0  0  0  0  0  0  0  0  0  0
   -1.2791    2.5730    1.5075 O   0  0  0  0  0  0  0  0  0  0  0  0
    0.9202    0.5071    0.3202 C   0  0  0  0  0  0  0  0  0  0  0  0
    1.1547   -0.9907    0.5094 C   0  0  0  0  0  0  0  0  0  0  0  0
    0.2165   -1.6932    0.9658 O   0  5  0  0  0  0  0  0  0  0  0  0
    2.2736   -1.4378    0.1640 O   0  0  0  0  0  0  0  0  0  0  0  0
   -1.1064   -0.6994   -1.2816 H   0  0  0  0  0  0  0  0  0  0  0  0
   -1.1909    0.2790    0.7407 H   0  0  0  0  0  0  0  0  0  0  0  0
    1.2333    1.0035    1.2425 H   0  0  0  0  0  0  0  0  0  0  0  0
    1.5487    0.8802   -0.4942 H   0  0  0  0  0  0  0  0  0  0  0  0
   -1.0444    3.3113   -0.5542 N   0  0  0  0  0  0  0  0  0  0  0  0
   -2.2182    4.1896   -0.5200 C   0  0  2  0  0  0  0  0  0  0  0  0
   -3.5123    3.3620   -0.7173 C   0  0  0  0  0  0  0  0  0  0  0  0
   -4.0554    3.2496   -1.8149 O   0  0  0  0  0  0  0  0  0  0  0  0
   -2.0279    5.2531   -1.6066 C   0  0  0  0  0  0  0  0  0  0  0  0
   -0.7171    3.0477   -1.4861 H   0  0  0  0  0  0  0  0  0  0  0  0
   -2.2796    4.6976    0.4480 H   0  0  0  0  0  0  0  0  0  0  0  0
   -1.9255    4.7848   -2.5913 H   0  0  0  0  0  0  0  0  0  0  0  0
   -2.8871    5.9302   -1.6301 H   0  0  0  0  0  0  0  0  0  0  0  0
   -1.1267    5.8408   -1.4067 H   0  0  0  0  0  0  0  0  0  0  0  0
   -3.9873    2.6190    0.3462 N   0  0  0  0  0  0  0  0  0  0  0  0
   -5.0096    1.5913    0.2164 C   0  0  0  0  0  0  0  0  0  0  0  0
   -3.3492    2.5663    1.1460 H   0  0  0  0  0  0  0  0  0  0  0  0
   -5.9282    2.0144   -0.2027 H   0  0  0  0  0  0  0  0  0  0  0  0
   -4.6593    0.7835   -0.4345 H   0  0  0  0  0  0  0  0  0  0  0  0
   -5.2429    1.1691    1.1986 H   0  0  0  0  0  0  0  0  0  0  0  0
  1  2  2  0  0  0  0
  1  3  1  0  0  0  0
  1  7  1  0  0  0  0
  3  4  1  0  0  0  0
  3  5  1  0  0  0  0
  3  6  1  0  0  0  0
  7  8  1  0  0  0  0
  7 12  1  0  0  0  0
  8  9  1  0  0  0  0
  8 11  1  0  0  0  0
  8 13  1  0  0  0  0
  9 10  2  0  0  0  0
  9 17  1  0  0  0  0
 11 14  1  0  0  0  0
 11 15  1  0  0  0  0
 11 16  1  0  0  0  0
 17 18  1  0  0  0  0
 17 25  1  0  0  0  0
 18 19  1  0  0  0  0
 18 21  1  0  0  0  0
 18 26  1  0  0  0  0
 19 20  2  0  0  0  0
 19 29  1  0  0  0  0
 21 22  1  0  0  0  0
 21 27  1  0  0  0  0
 21 28  1  0  0  0  0
 22 23  1  0  0  0  0
 22 24  2  0  0  0  0
 29 30  1  0  0  0  0
 29 34  1  0  0  0  0
 30 31  1  0  0  0  0
 30 33  1  0  0  0  0
 30 35  1  0  0  0  0
 31 32  2  0  0  0  0
 31 39  1  0  0  0  0
 33 36  1  0  0  0  0
 33 37  1  0  0  0  0
 33 38  1  0  0  0  0
 39 40  1  0  0  0  0
 39 41  1  0  0  0  0
 40 42  1  0  0  0  0
 40 43  1  0  0  0  0
 40 44  1  0  0  0  0
M  CHG  1  23  -1
M  END
$$$$

  -OEChem-05262215553D

 44 43  0     1  0  0  0  0  0999 V2000
   -4.4537   -0.4384   -3.7980 C   0  0  0  0  0  0  0  0  0  0  0  0
   -4.4145   -1.6599   -3.8016 O   0  0  0  0  0  0  0  0  0  0  0  0
   -5.7910    0.2766   -3.7352 C   0  0  0  0  0  0  0  0  0  0  0  0
   -5.9212    0.9026   -4.6212 H   0  0  0  0  0  0  0  0  0  0  0  0
   -6.6072   -0.4496   -3.6908 H   0  0  0  0  0  0  0  0  0  0  0  0
   -5.8329    0.9081   -2.8438 H   0  0  0  0  0  0  0  0  0  0  0  0
   -3.2922    0.3002   -3.8586 N   0  0  0  0  0  0  0  0  0  0  0  0
   -1.9504   -0.2498   -3.6158 C   0  0  2  0  0  0  0  0  0  0  0  0
   -1.1901    0.6634   -2.6351 C   0  0  0  0  0  0  0  0  0  0  0  0
   -1.3809    1.8721   -2.7023 O   0  0  0  0  0  0  0  0  0  0  0  0
   -1.2085   -0.3581   -4.9487 C   0  0  0  0  0  0  0  0  0  0  0  0
   -3.3953    1.3005   -3.6816 H   0  0  0  0  0  0  0  0  0  0  0  0
   -2.0204   -1.2445   -3.1626 H   0  0  0  0  0  0  0  0  0  0  0  0
   -1.1229    0.6260   -5.4205 H   0  0  0  0  0  0  0  0  0  0  0  0
   -0.2016   -0.7585   -4.7933 H   0  0  0  0  0  0  0  0  0  0  0  0
   -1.7474   -1.0263   -5.6275 H   0  0  0  0  0  0  0  0  0  0  0  0
   -0.3411    0.1201   -1.6901 N   0  0  0  0  0  0  0  0  0  0  0  0
    0.0417    0.5855   -0.3348 C   0  0  2  0  0  0  0  0  0  0  0  0
   -0.7659    1.6873    0.4201 C   0  0  0  0  0  0  0  0  0  0  0  0
   -0.5296    1.8980    1.6059 O   0  0  0  0  0  0  0  0  0  0  0  0
    1.5186    1.0062   -0.4836 C   0  0  0  0  0  0  0  0  0  0  0  0
    2.4365   -0.1918   -0.7225 C   0  0  0  0  0  0  0  0  0  0  0  0
    2.1047   -1.3098   -0.2507 O   0  5  0  0  0  0  0  0  0  0  0  0
    3.4509    0.0040   -1.4333 O   0  0  0  0  0  0  0  0  0  0  0  0
   -0.0794   -0.8491   -1.8646 H   0  0  0  0  0  0  0  0  0  0  0  0
   -0.0240   -0.2765    0.3376 H   0  0  0  0  0  0  0  0  0  0  0  0
    1.8560    1.4940    0.4347 H   0  0  0  0  0  0  0  0  0  0  0  0
    1.6235    1.7243   -1.3024 H   0  0  0  0  0  0  0  0  0  0  0  0
   -1.8837    2.3144   -0.0927 N   0  0  0  0  0  0  0  0  0  0  0  0
   -2.8398    3.1470    0.6398 C   0  0  2  0  0  0  0  0  0  0  0  0
   -4.2749    3.0132    0.0804 C   0  0  0  0  0  0  0  0  0  0  0  0
   -4.4946    2.5437   -1.0336 O   0  0  0  0  0  0  0  0  0  0  0  0
   -2.3640    4.6001    0.5644 C   0  0  0  0  0  0  0  0  0  0  0  0
   -2.0288    2.2095   -1.0990 H   0  0  0  0  0  0  0  0  0  0  0  0
   -2.8683    2.8320    1.6879 H   0  0  0  0  0  0  0  0  0  0  0  0
   -2.3322    4.9378   -0.4764 H   0  0  0  0  0  0  0  0  0  0  0  0
   -3.0373    5.2546    1.1254 H   0  0  0  0  0  0  0  0  0  0  0  0
   -1.3595    4.6903    0.9900 H   0  0  0  0  0  0  0  0  0  0  0  0
   -5.3483    3.4282    0.8488 N   0  0  0  0  0  0  0  0  0  0  0  0
   -6.7360    3.3044    0.4239 C   0  0  0  0  0  0  0  0  0  0  0  0
   -5.1455    3.7769    1.7808 H   0  0  0  0  0  0  0  0  0  0  0  0
   -6.9042    3.8627   -0.5030 H   0  0  0  0  0  0  0  0  0  0  0  0
   -6.9917    2.2533    0.2552 H   0  0  0  0  0  0  0  0  0  0  0  0
   -7.4030    3.7039    1.1938 H   0  0  0  0  0  0  0  0  0  0  0  0
  1  2  2  0  0  0  0
  1  3  1  0  0  0  0
  1  7  1  0  0  0  0
  3  4  1  0  0  0  0
  3  5  1  0  0  0  0
  3  6  1  0  0  0  0
  7  8  1  0  0  0  0
  7 12  1  0  0  0  0
  8  9  1  0  0  0  0
  8 11  1  0  0  0  0
  8 13  1  0  0  0  0
  9 10  2  0  0  0  0
  9 17  1  0  0  0  0
 11 14  1  0  0  0  0
 11 15  1  0  0  0  0
 11 16  1  0  0  0  0
 17 18  1  0  0  0  0
 17 25  1  0  0  0  0
 18 19  1  0  0  0  0
 18 21  1  0  0  0  0
 18 26  1  0  0  0  0
 19 20  2  0  0  0  0
 19 29  1  0  0  0  0
 21 22  1  0  0  0  0
 21 27  1  0  0  0  0
 21 28  1  0  0  0  0
 22 23  1  0  0  0  0
 22 24  2  0  0  0  0
 29 30  1  0  0  0  0
 29 34  1  0  0  0  0
 30 31  1  0  0  0  0
 30 33  1  0  0  0  0
 30 35  1  0  0  0  0
 31 32  2  0  0  0  0
 31 39  1  0  0  0  0
 33 36  1  0  0  0  0
 33 37  1  0  0  0  0
 33 38  1  0  0  0  0
 39 40  1  0  0  0  0
 39 41  1  0  0  0  0
 40 42  1  0  0  0  0
 40 43  1  0  0  0  0
 40 44  1  0  0  0  0
M  CHG  1  23  -1
M  END
$$$$

  -OEChem-05262215553D

 44 43  0     1  0  0  0  0  0999 V2000
   -4.4225   -0.6985   -3.9198 C   0  0  0  0  0  0  0  0  0  0  0  0
   -4.3810   -1.9064   -3.7414 O   0  0  0  0  0  0  0  0  0  0  0  0
   -5.7626    0.0094   -4.0040 C   0  0  0  0  0  0  0  0  0  0  0  0
   -5.8762    0.4795   -4.9836 H   0  0  0  0  0  0  0  0  0  0  0  0
   -6.5780   -0.7041   -3.8562 H   0  0  0  0  0  0  0  0  0  0  0  0
   -5.8248    0.7788   -3.2294 H   0  0  0  0  0  0  0  0  0  0  0  0
   -3.2631    0.0389   -4.0319 N   0  0  0  0  0  0  0  0  0  0  0  0
   -1.9553   -0.4281   -3.5470 C   0  0  2  0  0  0  0  0  0  0  0  0
   -1.4370    0.5147   -2.4414 C   0  0  0  0  0  0  0  0  0  0  0  0
   -1.8372    1.6730   -2.4310 O   0  0  0  0  0  0  0  0  0  0  0  0
   -0.9797   -0.4676   -4.7243 C   0  0  0  0  0  0  0  0  0  0  0  0
   -3.3942    1.0492   -3.9872 H   0  0  0  0  0  0  0  0  0  0  0  0
   -2.0338   -1.4335   -3.1199 H   0  0  0  0  0  0  0  0  0  0  0  0
   -0.8644    0.5294   -5.1616 H   0  0  0  0  0  0  0  0  0  0  0  0
    0.0034   -0.8178   -4.3934 H   0  0  0  0  0  0  0  0  0  0  0  0
   -1.3482   -1.1496   -5.4968 H   0  0  0  0  0  0  0  0  0  0  0  0
   -0.5309    0.0492   -1.5080 N   0  0  0  0  0  0  0  0  0  0  0  0
   -0.0807    0.5876   -0.2029 C   0  0  2  0  0  0  0  0  0  0  0  0
   -0.8648    1.7151    0.5394 C   0  0  0  0  0  0  0  0  0  0  0  0
   -0.4136    2.1957    1.5752 O   0  0  0  0  0  0  0  0  0  0  0  0
    1.3782    1.0136   -0.4826 C   0  0  0  0  0  0  0  0  0  0  0  0
    2.2916   -0.1873   -0.7225 C   0  0  0  0  0  0  0  0  0  0  0  0
    2.0092   -1.2797   -0.1674 O   0  5  0  0  0  0  0  0  0  0  0  0
    3.2274   -0.0311   -1.5422 O   0  0  0  0  0  0  0  0  0  0  0  0
   -0.1456   -0.8722   -1.7136 H   0  0  0  0  0  0  0  0  0  0  0  0
   -0.0905   -0.2374    0.5169 H   0  0  0  0  0  0  0  0  0  0  0  0
    1.7802    1.5516    0.3794 H   0  0  0  0  0  0  0  0  0  0  0  0
    1.4145    1.6887   -1.3428 H   0  0  0  0  0  0  0  0  0  0  0  0
   -2.1576    2.0793    0.2141 N   0  0  0  0  0  0  0  0  0  0  0  0
   -2.9607    3.0933    0.9034 C   0  0  2  0  0  0  0  0  0  0  0  0
   -4.4762    2.8760    0.7012 C   0  0  0  0  0  0  0  0  0  0  0  0
   -4.9229    2.3768   -0.3274 O   0  0  0  0  0  0  0  0  0  0  0  0
   -2.5501    4.4726    0.3795 C   0  0  0  0  0  0  0  0  0  0  0  0
   -2.4472    1.8303   -0.7346 H   0  0  0  0  0  0  0  0  0  0  0  0
   -2.7619    3.0421    1.9786 H   0  0  0  0  0  0  0  0  0  0  0  0
   -2.7106    4.5316   -0.7021 H   0  0  0  0  0  0  0  0  0  0  0  0
   -3.1369    5.2578    0.8646 H   0  0  0  0  0  0  0  0  0  0  0  0
   -1.4908    4.6562    0.5841 H   0  0  0  0  0  0  0  0  0  0  0  0
   -5.3617    3.2726    1.6881 N   0  0  0  0  0  0  0  0  0  0  0  0
   -6.8012    3.0649    1.6042 C   0  0  0  0  0  0  0  0  0  0  0  0
   -4.9643    3.6343    2.5497 H   0  0  0  0  0  0  0  0  0  0  0  0
   -7.2143    3.5923    0.7383 H   0  0  0  0  0  0  0  0  0  0  0  0
   -7.0290    1.9980    1.5096 H   0  0  0  0  0  0  0  0  0  0  0  0
   -7.2902    3.4450    2.5059 H   0  0  0  0  0  0  0  0  0  0  0  0
  1  2  2  0  0  0  0
  1  3  1  0  0  0  0
  1  7  1  0  0  0  0
  3  4  1  0  0  0  0
  3  5  1  0  0  0  0
  3  6  1  0  0  0  0
  7  8  1  0  0  0  0
  7 12  1  0  0  0  0
  8  9  1  0  0  0  0
  8 11  1  0  0  0  0
  8 13  1  0  0  0  0
  9 10  2  0  0  0  0
  9 17  1  0  0  0  0
 11 14  1  0  0  0  0
 11 15  1  0  0  0  0
 11 16  1  0  0  0  0
 17 18  1  0  0  0  0
 17 25  1  0  0  0  0
 18 19  1  0  0  0  0
 18 21  1  0  0  0  0
 18 26  1  0  0  0  0
 19 20  2  0  0  0  0
 19 29  1  0  0  0  0
 21 22  1  0  0  0  0
 21 27  1  0  0  0  0
 21 28  1  0  0  0  0
 22 23  1  0  0  0  0
 22 24  2  0  0  0  0
 29 30  1  0  0  0  0
 29 34  1  0  0  0  0
 30 31  1  0  0  0  0
 30 33  1  0  0  0  0
 30 35  1  0  0  0  0
 31 32  2  0  0  0  0
 31 39  1  0  0  0  0
 33 36  1  0  0  0  0
 33 37  1  0  0  0  0
 33 38  1  0  0  0  0
 39 40  1  0  0  0  0
 39 41  1  0  0  0  0
 40 42  1  0  0  0  0
 40 43  1  0  0  0  0
 40 44  1  0  0  0  0
M  CHG  1  23  -1
M  END
$$$$

  -OEChem-05262215553D

 44 43  0     1  0  0  0  0  0999 V2000
   -4.2421   -0.8134   -4.6625 C   0  0  0  0  0  0  0  0  0  0  0  0
   -3.9356   -1.9694   -4.9104 O   0  0  0  0  0  0  0  0  0  0  0  0
   -5.6236   -0.3020   -5.0276 C   0  0  0  0  0  0  0  0  0  0  0  0
   -5.5386    0.5650   -5.6875 H   0  0  0  0  0  0  0  0  0  0  0  0
   -6.1924   -1.0826   -5.5405 H   0  0  0  0  0  0  0  0  0  0  0  0
   -6.1626   -0.0104   -4.1227 H   0  0  0  0  0  0  0  0  0  0  0  0
   -3.3487    0.0314   -4.0408 N   0  0  0  0  0  0  0  0  0  0  0  0
   -2.0785   -0.3945   -3.4378 C   0  0  2  0  0  0  0  0  0  0  0  0
   -1.7593    0.4308   -2.1720 C   0  0  0  0  0  0  0  0  0  0  0  0
   -2.4054    1.4486   -1.9534 O   0  0  0  0  0  0  0  0  0  0  0  0
   -0.9637   -0.2360   -4.4765 C   0  0  0  0  0  0  0  0  0  0  0  0
   -3.7048    0.9353   -3.7314 H   0  0  0  0  0  0  0  0  0  0  0  0
   -2.1427   -1.4458   -3.1361 H   0  0  0  0  0  0  0  0  0  0  0  0
   -0.8724    0.8108   -4.7831 H   0  0  0  0  0  0  0  0  0  0  0  0
   -0.0029   -0.5614   -4.0643 H   0  0  0  0  0  0  0  0  0  0  0  0
   -1.1810   -0.8422   -5.3613 H   0  0  0  0  0  0  0  0  0  0  0  0
   -0.7506   -0.0003   -1.3315 N   0  0  0  0  0  0  0  0  0  0  0  0
   -0.1601    0.5688   -0.0990 C   0  0  2  0  0  0  0  0  0  0  0  0
   -0.8703    1.7093    0.6951 C   0  0  0  0  0  0  0  0  0  0  0  0
   -0.2370    2.4167    1.4745 O   0  0  0  0  0  0  0  0  0  0  0  0
    1.2505    0.9932   -0.5740 C   0  0  0  0  0  0  0  0  0  0  0  0
    2.1348   -0.2084   -0.8990 C   0  0  0  0  0  0  0  0  0  0  0  0
    1.9342   -1.2865   -0.2856 O   0  5  0  0  0  0  0  0  0  0  0  0
    2.9231   -0.0803   -1.8649 O   0  0  0  0  0  0  0  0  0  0  0  0
   -0.2478   -0.8222   -1.6678 H   0  0  0  0  0  0  0  0  0  0  0  0
   -0.0755   -0.2378    0.6365 H   0  0  0  0  0  0  0  0  0  0  0  0
    1.7603    1.5496    0.2161 H   0  0  0  0  0  0  0  0  0  0  0  0
    1.1734    1.6502   -1.4455 H   0  0  0  0  0  0  0  0  0  0  0  0
   -2.2458    1.8506    0.7210 N   0  0  0  0  0  0  0  0  0  0  0  0
   -2.9564    2.9248    1.4263 C   0  0  2  0  0  0  0  0  0  0  0  0
   -4.4176    2.5653    1.7708 C   0  0  0  0  0  0  0  0  0  0  0  0
   -5.0698    1.7841    1.0859 O   0  0  0  0  0  0  0  0  0  0  0  0
   -2.9175    4.1816    0.5507 C   0  0  0  0  0  0  0  0  0  0  0  0
   -2.7229    1.4377   -0.0839 H   0  0  0  0  0  0  0  0  0  0  0  0
   -2.4471    3.1326    2.3726 H   0  0  0  0  0  0  0  0  0  0  0  0
   -3.4085    3.9918   -0.4094 H   0  0  0  0  0  0  0  0  0  0  0  0
   -3.4276    5.0114    1.0481 H   0  0  0  0  0  0  0  0  0  0  0  0
   -1.8820    4.4793    0.3580 H   0  0  0  0  0  0  0  0  0  0  0  0
   -5.0258    3.1643    2.8605 N   0  0  0  0  0  0  0  0  0  0  0  0
   -6.3907    2.8753    3.2786 C   0  0  0  0  0  0  0  0  0  0  0  0
   -4.4534    3.7793    3.4309 H   0  0  0  0  0  0  0  0  0  0  0  0
   -7.0968    3.1256    2.4802 H   0  0  0  0  0  0  0  0  0  0  0  0
   -6.4984    1.8142    3.5260 H   0  0  0  0  0  0  0  0  0  0  0  0
   -6.6465    3.4649    4.1638 H   0  0  0  0  0  0  0  0  0  0  0  0
  1  2  2  0  0  0  0
  1  3  1  0  0  0  0
  1  7  1  0  0  0  0
  3  4  1  0  0  0  0
  3  5  1  0  0  0  0
  3  6  1  0  0  0  0
  7  8  1  0  0  0  0
  7 12  1  0  0  0  0
  8  9  1  0  0  0  0
  8 11  1  0  0  0  0
  8 13  1  0  0  0  0
  9 10  2  0  0  0  0
  9 17  1  0  0  0  0
 11 14  1  0  0  0  0
 11 15  1  0  0  0  0
 11 16  1  0  0  0  0
 17 18  1  0  0  0  0
 17 25  1  0  0  0  0
 18 19  1  0  0  0  0
 18 21  1  0  0  0  0
 18 26  1  0  0  0  0
 19 20  2  0  0  0  0
 19 29  1  0  0  0  0
 21 22  1  0  0  0  0
 21 27  1  0  0  0  0
 21 28  1  0  0  0  0
 22 23  1  0  0  0  0
 22 24  2  0  0  0  0
 29 30  1  0  0  0  0
 29 34  1  0  0  0  0
 30 31  1  0  0  0  0
 30 33  1  0  0  0  0
 30 35  1  0  0  0  0
 31 32  2  0  0  0  0
 31 39  1  0  0  0  0
 33 36  1  0  0  0  0
 33 37  1  0  0  0  0
 33 38  1  0  0  0  0
 39 40  1  0  0  0  0
 39 41  1  0  0  0  0
 40 42  1  0  0  0  0
 40 43  1  0  0  0  0
 40 44  1  0  0  0  0
M  CHG  1  23  -1
M  END
$$$$

  -OEChem-05262215553D

 44 43  0     1  0  0  0  0  0999 V2000
   -4.3745   -0.6123   -4.4487 C   0  0  0  0  0  0  0  0  0  0  0  0
   -4.1349   -1.7784   -4.7208 O   0  0  0  0  0  0  0  0  0  0  0  0
   -5.7450   -0.0311   -4.7447 C   0  0  0  0  0  0  0  0  0  0  0  0
   -5.6539    0.7945   -5.4545 H   0  0  0  0  0  0  0  0  0  0  0  0
   -6.3957   -0.7974   -5.1752 H   0  0  0  0  0  0  0  0  0  0  0  0
   -6.1996    0.3398   -3.8225 H   0  0  0  0  0  0  0  0  0  0  0  0
   -3.4135    0.1851   -3.8671 N   0  0  0  0  0  0  0  0  0  0  0  0
   -2.1432   -0.3067   -3.3168 C   0  0  2  0  0  0  0  0  0  0  0  0
   -1.7536    0.4756   -2.0432 C   0  0  0  0  0  0  0  0  0  0  0  0
   -2.3938    1.4779   -1.7474 O   0  0  0  0  0  0  0  0  0  0  0  0
   -1.0570   -0.1670   -4.3877 C   0  0  0  0  0  0  0  0  0  0  0  0
   -3.7193    1.0944   -3.5209 H   0  0  0  0  0  0  0  0  0  0  0  0
   -2.2398   -1.3617   -3.0376 H   0  0  0  0  0  0  0  0  0  0  0  0
   -0.9320    0.8828   -4.6714 H   0  0  0  0  0  0  0  0  0  0  0  0
   -0.0980   -0.5426   -4.0161 H   0  0  0  0  0  0  0  0  0  0  0  0
   -1.3283   -0.7406   -5.2791 H   0  0  0  0  0  0  0  0  0  0  0  0
   -0.7099    0.0156   -1.2622 N   0  0  0  0  0  0  0  0  0  0  0  0
   -0.0601    0.5873   -0.0625 C   0  0  2  0  0  0  0  0  0  0  0  0
   -0.7632    1.7394    0.7170 C   0  0  0  0  0  0  0  0  0  0  0  0
   -0.1259    2.6319    1.2707 O   0  0  0  0  0  0  0  0  0  0  0  0
    1.3413    0.9912   -0.5794 C   0  0  0  0  0  0  0  0  0  0  0  0
    2.2019   -0.2218   -0.9219 C   0  0  0  0  0  0  0  0  0  0  0  0
    2.0051   -1.2933   -0.2959 O   0  5  0  0  0  0  0  0  0  0  0  0
    2.9696   -0.1078   -1.9059 O   0  0  0  0  0  0  0  0  0  0  0  0
   -0.2200   -0.7956   -1.6397 H   0  0  0  0  0  0  0  0  0  0  0  0
    0.0398   -0.2082    0.6833 H   0  0  0  0  0  0  0  0  0  0  0  0
    1.8782    1.5450    0.1945 H   0  0  0  0  0  0  0  0  0  0  0  0
    1.2478    1.6438   -1.4524 H   0  0  0  0  0  0  0  0  0  0  0  0
   -2.1147    1.6670    1.0032 N   0  0  0  0  0  0  0  0  0  0  0  0
   -2.8640    2.7103    1.7128 C   0  0  2  0  0  0  0  0  0  0  0  0
   -4.1983    2.1953    2.2926 C   0  0  0  0  0  0  0  0  0  0  0  0
   -4.8205    1.2833    1.7580 O   0  0  0  0  0  0  0  0  0  0  0  0
   -3.1327    3.8668    0.7431 C   0  0  0  0  0  0  0  0  0  0  0  0
   -2.6465    1.0952    0.3465 H   0  0  0  0  0  0  0  0  0  0  0  0
   -2.2621    3.0751    2.5512 H   0  0  0  0  0  0  0  0  0  0  0  0
   -3.7265    3.5185   -0.1081 H   0  0  0  0  0  0  0  0  0  0  0  0
   -3.6780    4.6700    1.2466 H   0  0  0  0  0  0  0  0  0  0  0  0
   -2.1909    4.2752    0.3633 H   0  0  0  0  0  0  0  0  0  0  0  0
   -4.7318    2.7968    3.4191 N   0  0  0  0  0  0  0  0  0  0  0  0
   -5.9788    2.3725    4.0411 C   0  0  0  0  0  0  0  0  0  0  0  0
   -4.1798    3.5248    3.8626 H   0  0  0  0  0  0  0  0  0  0  0  0
   -6.8107    2.4690    3.3356 H   0  0  0  0  0  0  0  0  0  0  0  0
   -5.9091    1.3287    4.3648 H   0  0  0  0  0  0  0  0  0  0  0  0
   -6.1937    2.9930    4.9162 H   0  0  0  0  0  0  0  0  0  0  0  0
  1  2  2  0  0  0  0
  1  3  1  0  0  0  0
  1  7  1  0  0  0  0
  3  4  1  0  0  0  0
  3  5  1  0  0  0  0
  3  6  1  0  0  0  0
  7  8  1  0  0  0  0
  7 12  1  0  0  0  0
  8  9  1  0  0  0  0
  8 11  1  0  0  0  0
  8 13  1  0  0  0  0
  9 10  2  0  0  0  0
  9 17  1  0  0  0  0
 11 14  1  0  0  0  0
 11 15  1  0  0  0  0
 11 16  1  0  0  0  0
 17 18  1  0  0  0  0
 17 25  1  0  0  0  0
 18 19  1  0  0  0  0
 18 21  1  0  0  0  0
 18 26  1  0  0  0  0
 19 20  2  0  0  0  0
 19 29  1  0  0  0  0
 21 22  1  0  0  0  0
 21 27  1  0  0  0  0
 21 28  1  0  0  0  0
 22 23  1  0  0  0  0
 22 24  2  0  0  0  0
 29 30  1  0  0  0  0
 29 34  1  0  0  0  0
 30 31  1  0  0  0  0
 30 33  1  0  0  0  0
 30 35  1  0  0  0  0
 31 32  2  0  0  0  0
 31 39  1  0  0  0  0
 33 36  1  0  0  0  0
 33 37  1  0  0  0  0
 33 38  1  0  0  0  0
 39 40  1  0  0  0  0
 39 41  1  0  0  0  0
 40 42  1  0  0  0  0
 40 43  1  0  0  0  0
 40 44  1  0  0  0  0
M  CHG  1  23  -1
M  END
$$$$

  -OEChem-05262215553D

 44 43  0     1  0  0  0  0  0999 V2000
   -4.4362   -0.4757   -4.3403 C   0  0  0  0  0  0  0  0  0  0  0  0
   -4.2428   -1.6501   -4.6139 O   0  0  0  0  0  0  0  0  0  0  0  0
   -5.7857    0.1555   -4.6299 C   0  0  0  0  0  0  0  0  0  0  0  0
   -5.6810    0.9146   -5.4089 H   0  0  0  0  0  0  0  0  0  0  0  0
   -6.4939   -0.6055   -4.9697 H   0  0  0  0  0  0  0  0  0  0  0  0
   -6.1808    0.6242   -3.7250 H   0  0  0  0  0  0  0  0  0  0  0  0
   -3.4433    0.2839   -3.7614 N   0  0  0  0  0  0  0  0  0  0  0  0
   -2.1921   -0.2596   -3.2160 C   0  0  2  0  0  0  0  0  0  0  0  0
   -1.7702    0.4947   -1.9356 C   0  0  0  0  0  0  0  0  0  0  0  0
   -2.4091    1.4837   -1.5943 O   0  0  0  0  0  0  0  0  0  0  0  0
   -1.1047   -0.1543   -4.2897 C   0  0  0  0  0  0  0  0  0  0  0  0
   -3.7133    1.2014   -3.4075 H   0  0  0  0  0  0  0  0  0  0  0  0
   -2.3281   -1.3120   -2.9448 H   0  0  0  0  0  0  0  0  0  0  0  0
   -0.9335    0.8924   -4.5597 H   0  0  0  0  0  0  0  0  0  0  0  0
   -0.1621   -0.5779   -3.9278 H   0  0  0  0  0  0  0  0  0  0  0  0
   -1.4051   -0.7031   -5.1875 H   0  0  0  0  0  0  0  0  0  0  0  0
   -0.7019    0.0195   -1.1975 N   0  0  0  0  0  0  0  0  0  0  0  0
   -0.0036    0.6067   -0.0364 C   0  0  2  0  0  0  0  0  0  0  0  0
   -0.6964    1.7781    0.7168 C   0  0  0  0  0  0  0  0  0  0  0  0
   -0.1227    2.8332    0.9768 O   0  0  0  0  0  0  0  0  0  0  0  0
    1.3847    0.9885   -0.5990 C   0  0  0  0  0  0  0  0  0  0  0  0
    2.2241   -0.2388   -0.9439 C   0  0  0  0  0  0  0  0  0  0  0  0
    2.0342   -1.2964   -0.2923 O   0  5  0  0  0  0  0  0  0  0  0  0
    2.9625   -0.1525   -1.9527 O   0  0  0  0  0  0  0  0  0  0  0  0
   -0.2182   -0.7807   -1.6047 H   0  0  0  0  0  0  0  0  0  0  0  0
    0.1160   -0.1694    0.7266 H   0  0  0  0  0  0  0  0  0  0  0  0
    1.9432    1.5519    0.1527 H   0  0  0  0  0  0  0  0  0  0  0  0
    1.2719    1.6272   -1.4802 H   0  0  0  0  0  0  0  0  0  0  0  0
   -1.9376    1.5683    1.2921 N   0  0  0  0  0  0  0  0  0  0  0  0
   -2.7095    2.5950    2.0009 C   0  0  2  0  0  0  0  0  0  0  0  0
   -3.7988    1.9936    2.9129 C   0  0  0  0  0  0  0  0  0  0  0  0
   -4.2756    0.8849    2.6920 O   0  0  0  0  0  0  0  0  0  0  0  0
   -3.3551    3.5290    0.9710 C   0  0  0  0  0  0  0  0  0  0  0  0
   -2.4480    0.7549    0.9554 H   0  0  0  0  0  0  0  0  0  0  0  0
   -2.0319    3.1733    2.6372 H   0  0  0  0  0  0  0  0  0  0  0  0
   -4.0351    2.9675    0.3222 H   0  0  0  0  0  0  0  0  0  0  0  0
   -3.9211    4.3201    1.4711 H   0  0  0  0  0  0  0  0  0  0  0  0
   -2.5882    3.9961    0.3452 H   0  0  0  0  0  0  0  0  0  0  0  0
   -4.2730    2.7241    3.9885 N   0  0  0  0  0  0  0  0  0  0  0  0
   -5.2859    2.2278    4.9102 C   0  0  0  0  0  0  0  0  0  0  0  0
   -3.8425    3.6269    4.1642 H   0  0  0  0  0  0  0  0  0  0  0  0
   -6.2170    2.0123    4.3754 H   0  0  0  0  0  0  0  0  0  0  0  0
   -4.9397    1.3120    5.4009 H   0  0  0  0  0  0  0  0  0  0  0  0
   -5.4948    2.9762    5.6805 H   0  0  0  0  0  0  0  0  0  0  0  0
  1  2  2  0  0  0  0
  1  3  1  0  0  0  0
  1  7  1  0  0  0  0
  3  4  1  0  0  0  0
  3  5  1  0  0  0  0
  3  6  1  0  0  0  0
  7  8  1  0  0  0  0
  7 12  1  0  0  0  0
  8  9  1  0  0  0  0
  8 11  1  0  0  0  0
  8 13  1  0  0  0  0
  9 10  2  0  0  0  0
  9 17  1  0  0  0  0
 11 14  1  0  0  0  0
 11 15  1  0  0  0  0
 11 16  1  0  0  0  0
 17 18  1  0  0  0  0
 17 25  1  0  0  0  0
 18 19  1  0  0  0  0
 18 21  1  0  0  0  0
 18 26  1  0  0  0  0
 19 20  2  0  0  0  0
 19 29  1  0  0  0  0
 21 22  1  0  0  0  0
 21 27  1  0  0  0  0
 21 28  1  0  0  0  0
 22 23  1  0  0  0  0
 22 24  2  0  0  0  0
 29 30  1  0  0  0  0
 29 34  1  0  0  0  0
 30 31  1  0  0  0  0
 30 33  1  0  0  0  0
 30 35  1  0  0  0  0
 31 32  2  0  0  0  0
 31 39  1  0  0  0  0
 33 36  1  0  0  0  0
 33 37  1  0  0  0  0
 33 38  1  0  0  0  0
 39 40  1  0  0  0  0
 39 41  1  0  0  0  0
 40 42  1  0  0  0  0
 40 43  1  0  0  0  0
 40 44  1  0  0  0  0
M  CHG  1  23  -1
M  END
$$$$

  -OEChem-05262215553D

 44 43  0     1  0  0  0  0  0999 V2000
   -4.4675   -0.4168   -4.2793 C   0  0  0  0  0  0  0  0  0  0  0  0
   -4.2993   -1.5926   -4.5638 O   0  0  0  0  0  0  0  0  0  0  0  0
   -5.8085    0.2425   -4.5465 C   0  0  0  0  0  0  0  0  0  0  0  0
   -5.6953    1.0230   -5.3031 H   0  0  0  0  0  0  0  0  0  0  0  0
   -6.5291   -0.4974   -4.9058 H   0  0  0  0  0  0  0  0  0  0  0  0
   -6.1931    0.6906   -3.6268 H   0  0  0  0  0  0  0  0  0  0  0  0
   -3.4552    0.3227   -3.7086 N   0  0  0  0  0  0  0  0  0  0  0  0
   -2.2107   -0.2435   -3.1706 C   0  0  2  0  0  0  0  0  0  0  0  0
   -1.8031    0.4642   -1.8586 C   0  0  0  0  0  0  0  0  0  0  0  0
   -2.4783    1.4082   -1.4619 O   0  0  0  0  0  0  0  0  0  0  0  0
   -1.1143   -0.0956   -4.2305 C   0  0  0  0  0  0  0  0  0  0  0  0
   -3.7133    1.2359   -3.3354 H   0  0  0  0  0  0  0  0  0  0  0  0
   -2.3470   -1.3057   -2.9402 H   0  0  0  0  0  0  0  0  0  0  0  0
   -0.9406    0.9613   -4.4564 H   0  0  0  0  0  0  0  0  0  0  0  0
   -0.1741   -0.5335   -3.8794 H   0  0  0  0  0  0  0  0  0  0  0  0
   -1.4084   -0.6071   -5.1524 H   0  0  0  0  0  0  0  0  0  0  0  0
   -0.7193   -0.0137   -1.1446 N   0  0  0  0  0  0  0  0  0  0  0  0
    0.0081    0.5987   -0.0161 C   0  0  2  0  0  0  0  0  0  0  0  0
   -0.6747    1.7903    0.7096 C   0  0  0  0  0  0  0  0  0  0  0  0
   -0.2222    2.9329    0.6881 O   0  0  0  0  0  0  0  0  0  0  0  0
    1.3841    0.9737   -0.6099 C   0  0  0  0  0  0  0  0  0  0  0  0
    2.2221   -0.2565   -0.9462 C   0  0  0  0  0  0  0  0  0  0  0  0
    2.0471   -1.3015   -0.2709 O   0  5  0  0  0  0  0  0  0  0  0  0
    2.9417   -0.1878   -1.9698 O   0  0  0  0  0  0  0  0  0  0  0  0
   -0.2216   -0.7883   -1.5827 H   0  0  0  0  0  0  0  0  0  0  0  0
    0.1466   -0.1578    0.7631 H   0  0  0  0  0  0  0  0  0  0  0  0
    1.9495    1.5564    0.1223 H   0  0  0  0  0  0  0  0  0  0  0  0
    1.2534    1.5935   -1.5021 H   0  0  0  0  0  0  0  0  0  0  0  0
   -1.7324    1.5328    1.5643 N   0  0  0  0  0  0  0  0  0  0  0  0
   -2.4966    2.5653    2.2735 C   0  0  2  0  0  0  0  0  0  0  0  0
   -3.2841    1.9990    3.4731 C   0  0  0  0  0  0  0  0  0  0  0  0
   -3.6083    0.8167    3.5196 O   0  0  0  0  0  0  0  0  0  0  0  0
   -3.4631    3.2293    1.2862 C   0  0  0  0  0  0  0  0  0  0  0  0
   -2.1358    0.5999    1.5197 H   0  0  0  0  0  0  0  0  0  0  0  0
   -1.8037    3.3188    2.6614 H   0  0  0  0  0  0  0  0  0  0  0  0
   -4.1544    2.4878    0.8734 H   0  0  0  0  0  0  0  0  0  0  0  0
   -4.0434    4.0117    1.7835 H   0  0  0  0  0  0  0  0  0  0  0  0
   -2.9105    3.6843    0.4581 H   0  0  0  0  0  0  0  0  0  0  0  0
   -3.6575    2.8389    4.5075 N   0  0  0  0  0  0  0  0  0  0  0  0
   -4.3860    2.3868    5.6849 C   0  0  0  0  0  0  0  0  0  0  0  0
   -3.3464    3.8044    4.4579 H   0  0  0  0  0  0  0  0  0  0  0  0
   -5.3396    1.9334    5.3948 H   0  0  0  0  0  0  0  0  0  0  0  0
   -3.7966    1.6481    6.2379 H   0  0  0  0  0  0  0  0  0  0  0  0
   -4.5934    3.2321    6.3477 H   0  0  0  0  0  0  0  0  0  0  0  0
  1  2  2  0  0  0  0
  1  3  1  0  0  0  0
  1  7  1  0  0  0  0
  3  4  1  0  0  0  0
  3  5  1  0  0  0  0
  3  6  1  0  0  0  0
  7  8  1  0  0  0  0
  7 12  1  0  0  0  0
  8  9  1  0  0  0  0
  8 11  1  0  0  0  0
  8 13  1  0  0  0  0
  9 10  2  0  0  0  0
  9 17  1  0  0  0  0
 11 14  1  0  0  0  0
 11 15  1  0  0  0  0
 11 16  1  0  0  0  0
 17 18  1  0  0  0  0
 17 25  1  0  0  0  0
 18 19  1  0  0  0  0
 18 21  1  0  0  0  0
 18 26  1  0  0  0  0
 19 20  2  0  0  0  0
 19 29  1  0  0  0  0
 21 22  1  0  0  0  0
 21 27  1  0  0  0  0
 21 28  1  0  0  0  0
 22 23  1  0  0  0  0
 22 24  2  0  0  0  0
 29 30  1  0  0  0  0
 29 34  1  0  0  0  0
 30 31  1  0  0  0  0
 30 33  1  0  0  0  0
 30 35  1  0  0  0  0
 31 32  2  0  0  0  0
 31 39  1  0  0  0  0
 33 36  1  0  0  0  0
 33 37  1  0  0  0  0
 33 38  1  0  0  0  0
 39 40  1  0  0  0  0
 39 41  1  0  0  0  0
 40 42  1  0  0  0  0
 40 43  1  0  0  0  0
 40 44  1  0  0  0  0
M  CHG  1  23  -1
M  END
$$$$

  -OEChem-05262215553D

 44 43  0     1  0  0  0  0  0999 V2000
   -4.4564   -0.4002   -4.3180 C   0  0  0  0  0  0  0  0  0  0  0  0
   -4.2415   -1.5494   -4.6717 O   0  0  0  0  0  0  0  0  0  0  0  0
   -5.8092    0.2329   -4.5890 C   0  0  0  0  0  0  0  0  0  0  0  0
   -5.7032    1.0361   -5.3222 H   0  0  0  0  0  0  0  0  0  0  0  0
   -6.5047   -0.5146   -4.9804 H   0  0  0  0  0  0  0  0  0  0  0  0
   -6.2201    0.6456   -3.6643 H   0  0  0  0  0  0  0  0  0  0  0  0
   -3.4867    0.3302   -3.6672 N   0  0  0  0  0  0  0  0  0  0  0  0
   -2.2365   -0.2313   -3.1373 C   0  0  2  0  0  0  0  0  0  0  0  0
   -1.8645    0.4186   -1.7857 C   0  0  0  0  0  0  0  0  0  0  0  0
   -2.5882    1.2994   -1.3321 O   0  0  0  0  0  0  0  0  0  0  0  0
   -1.1268   -0.0086   -4.1704 C   0  0  0  0  0  0  0  0  0  0  0  0
   -3.7843    1.2080   -3.2419 H   0  0  0  0  0  0  0  0  0  0  0  0
   -2.3519   -1.3060   -2.9605 H   0  0  0  0  0  0  0  0  0  0  0  0
   -0.9717    1.0615   -4.3409 H   0  0  0  0  0  0  0  0  0  0  0  0
   -0.1834   -0.4455   -3.8263 H   0  0  0  0  0  0  0  0  0  0  0  0
   -1.3955   -0.4793   -5.1209 H   0  0  0  0  0  0  0  0  0  0  0  0
   -0.7683   -0.0579   -1.0903 N   0  0  0  0  0  0  0  0  0  0  0  0
   -0.0165    0.5791    0.0072 C   0  0  2  0  0  0  0  0  0  0  0  0
   -0.6778    1.7911    0.7164 C   0  0  0  0  0  0  0  0  0  0  0  0
   -0.3822    2.9545    0.4513 O   0  0  0  0  0  0  0  0  0  0  0  0
    1.3455    0.9505   -0.6194 C   0  0  0  0  0  0  0  0  0  0  0  0
    2.1861   -0.2788   -0.9504 C   0  0  0  0  0  0  0  0  0  0  0  0
    2.0317   -1.3124   -0.2535 O   0  5  0  0  0  0  0  0  0  0  0  0
    2.8865   -0.2226   -1.9877 O   0  0  0  0  0  0  0  0  0  0  0  0
   -0.2539   -0.8017   -1.5605 H   0  0  0  0  0  0  0  0  0  0  0  0
    0.1412   -0.1621    0.7971 H   0  0  0  0  0  0  0  0  0  0  0  0
    1.9176    1.5537    0.0905 H   0  0  0  0  0  0  0  0  0  0  0  0
    1.1936    1.5514   -1.5212 H   0  0  0  0  0  0  0  0  0  0  0  0
   -1.4889    1.5663    1.8150 N   0  0  0  0  0  0  0  0  0  0  0  0
   -2.2143    2.6167    2.5375 C   0  0  2  0  0  0  0  0  0  0  0  0
   -2.6631    2.1655    3.9429 C   0  0  0  0  0  0  0  0  0  0  0  0
   -2.8094    0.9771    4.2101 O   0  0  0  0  0  0  0  0  0  0  0  0
   -3.4346    3.0282    1.7058 C   0  0  0  0  0  0  0  0  0  0  0  0
   -1.7363    0.6003    2.0174 H   0  0  0  0  0  0  0  0  0  0  0  0
   -1.5568    3.4826    2.6648 H   0  0  0  0  0  0  0  0  0  0  0  0
   -4.0962    2.1704    1.5477 H   0  0  0  0  0  0  0  0  0  0  0  0
   -3.9971    3.8174    2.2126 H   0  0  0  0  0  0  0  0  0  0  0  0
   -3.1189    3.4050    0.7276 H   0  0  0  0  0  0  0  0  0  0  0  0
   -2.9266    3.1113    4.9183 N   0  0  0  0  0  0  0  0  0  0  0  0
   -3.3224    2.7731    6.2789 C   0  0  0  0  0  0  0  0  0  0  0  0
   -2.7569    4.0837    4.6798 H   0  0  0  0  0  0  0  0  0  0  0  0
   -4.2317    2.1629    6.2734 H   0  0  0  0  0  0  0  0  0  0  0  0
   -2.5252    2.2150    6.7808 H   0  0  0  0  0  0  0  0  0  0  0  0
   -3.5222    3.6841    6.8510 H   0  0  0  0  0  0  0  0  0  0  0  0
  1  2  2  0  0  0  0
  1  3  1  0  0  0  0
  1  7  1  0  0  0  0
  3  4  1  0  0  0  0
  3  5  1  0  0  0  0
  3  6  1  0  0  0  0
  7  8  1  0  0  0  0
  7 12  1  0  0  0  0
  8  9  1  0  0  0  0
  8 11  1  0  0  0  0
  8 13  1  0  0  0  0
  9 10  2  0  0  0  0
  9 17  1  0  0  0  0
 11 14  1  0  0  0  0
 11 15  1  0  0  0  0
 11 16  1  0  0  0  0
 17 18  1  0  0  0  0
 17 25  1  0  0  0  0
 18 19  1  0  0  0  0
 18 21  1  0  0  0  0
 18 26  1  0  0  0  0
 19 20  2  0  0  0  0
 19 29  1  0  0  0  0
 21 22  1  0  0  0  0
 21 27  1  0  0  0  0
 21 28  1  0  0  0  0
 22 23  1  0  0  0  0
 22 24  2  0  0  0  0
 29 30  1  0  0  0  0
 29 34  1  0  0  0  0
 30 31  1  0  0  0  0
 30 33  1  0  0  0  0
 30 35  1  0  0  0  0
 31 32  2  0  0  0  0
 31 39  1  0  0  0  0
 33 36  1  0  0  0  0
 33 37  1  0  0  0  0
 33 38  1  0  0  0  0
 39 40  1  0  0  0  0
 39 41  1  0  0  0  0
 40 42  1  0  0  0  0
 40 43  1  0  0  0  0
 40 44  1  0  0  0  0
M  CHG  1  23  -1
M  END
$$$$

  -OEChem-05262215553D

 44 43  0     1  0  0  0  0  0999 V2000
   -4.4431   -0.3883   -4.3466 C   0  0  0  0  0  0  0  0  0  0  0  0
   -4.1891   -1.5060   -4.7689 O   0  0  0  0  0  0  0  0  0  0  0  0
   -5.8058    0.2277   -4.6078 C   0  0  0  0  0  0  0  0  0  0  0  0
   -5.6975    1.1219   -5.2265 H   0  0  0  0  0  0  0  0  0  0  0  0
   -6.4512   -0.4860   -5.1275 H   0  0  0  0  0  0  0  0  0  0  0  0
   -6.2765    0.5041   -3.6611 H   0  0  0  0  0  0  0  0  0  0  0  0
   -3.5077    0.3236   -3.6286 N   0  0  0  0  0  0  0  0  0  0  0  0
   -2.2520   -0.2358   -3.1101 C   0  0  2  0  0  0  0  0  0  0  0  0
   -1.9167    0.3521   -1.7206 C   0  0  0  0  0  0  0  0  0  0  0  0
   -2.6969    1.1497   -1.2097 O   0  0  0  0  0  0  0  0  0  0  0  0
   -1.1350    0.0677   -4.1144 C   0  0  0  0  0  0  0  0  0  0  0  0
   -3.8380    1.1633   -3.1533 H   0  0  0  0  0  0  0  0  0  0  0  0
   -2.3438   -1.3206   -2.9906 H   0  0  0  0  0  0  0  0  0  0  0  0
   -1.0150    1.1487   -4.2388 H   0  0  0  0  0  0  0  0  0  0  0  0
   -0.1825   -0.3499   -3.7725 H   0  0  0  0  0  0  0  0  0  0  0  0
   -1.3718   -0.3729   -5.0877 H   0  0  0  0  0  0  0  0  0  0  0  0
   -0.8066   -0.1128   -1.0394 N   0  0  0  0  0  0  0  0  0  0  0  0
   -0.0422    0.5566    0.0301 C   0  0  2  0  0  0  0  0  0  0  0  0
   -0.6936    1.7825    0.7232 C   0  0  0  0  0  0  0  0  0  0  0  0
   -0.5880    2.9210    0.2715 O   0  0  0  0  0  0  0  0  0  0  0  0
    1.3020    0.9376   -0.6262 C   0  0  0  0  0  0  0  0  0  0  0  0
    2.1581   -0.2825   -0.9499 C   0  0  0  0  0  0  0  0  0  0  0  0
    2.0338   -1.3055   -0.2320 O   0  5  0  0  0  0  0  0  0  0  0  0
    2.8359   -0.2334   -2.0022 O   0  0  0  0  0  0  0  0  0  0  0  0
   -0.2682   -0.8179   -1.5408 H   0  0  0  0  0  0  0  0  0  0  0  0
    0.1398   -0.1683    0.8298 H   0  0  0  0  0  0  0  0  0  0  0  0
    1.8744    1.5644    0.0623 H   0  0  0  0  0  0  0  0  0  0  0  0
    1.1241    1.5189   -1.5361 H   0  0  0  0  0  0  0  0  0  0  0  0
   -1.2173    1.6449    1.9972 N   0  0  0  0  0  0  0  0  0  0  0  0
   -1.8966    2.7191    2.7303 C   0  0  2  0  0  0  0  0  0  0  0  0
   -1.9750    2.4479    4.2469 C   0  0  0  0  0  0  0  0  0  0  0  0
   -1.9298    1.3045    4.6891 O   0  0  0  0  0  0  0  0  0  0  0  0
   -3.3087    2.8805    2.1546 C   0  0  0  0  0  0  0  0  0  0  0  0
   -1.2756    0.7032    2.3786 H   0  0  0  0  0  0  0  0  0  0  0  0
   -1.3415    3.6528    2.5929 H   0  0  0  0  0  0  0  0  0  0  0  0
   -3.8744    1.9501    2.2658 H   0  0  0  0  0  0  0  0  0  0  0  0
   -3.8458    3.6813    2.6708 H   0  0  0  0  0  0  0  0  0  0  0  0
   -3.2601    3.1296    1.0895 H   0  0  0  0  0  0  0  0  0  0  0  0
   -2.1287    3.5046    5.1270 N   0  0  0  0  0  0  0  0  0  0  0  0
   -2.2009    3.3421    6.5729 C   0  0  0  0  0  0  0  0  0  0  0  0
   -2.1281    4.4410    4.7337 H   0  0  0  0  0  0  0  0  0  0  0  0
   -3.0312    2.6812    6.8431 H   0  0  0  0  0  0  0  0  0  0  0  0
   -1.2689    2.9142    6.9563 H   0  0  0  0  0  0  0  0  0  0  0  0
   -2.3613    4.3116    7.0539 H   0  0  0  0  0  0  0  0  0  0  0  0
  1  2  2  0  0  0  0
  1  3  1  0  0  0  0
  1  7  1  0  0  0  0
  3  4  1  0  0  0  0
  3  5  1  0  0  0  0
  3  6  1  0  0  0  0
  7  8  1  0  0  0  0
  7 12  1  0  0  0  0
  8  9  1  0  0  0  0
  8 11  1  0  0  0  0
  8 13  1  0  0  0  0
  9 10  2  0  0  0  0
  9 17  1  0  0  0  0
 11 14  1  0  0  0  0
 11 15  1  0  0  0  0
 11 16  1  0  0  0  0
 17 18  1  0  0  0  0
 17 25  1  0  0  0  0
 18 19  1  0  0  0  0
 18 21  1  0  0  0  0
 18 26  1  0  0  0  0
 19 20  2  0  0  0  0
 19 29  1  0  0  0  0
 21 22  1  0  0  0  0
 21 27  1  0  0  0  0
 21 28  1  0  0  0  0
 22 23  1  0  0  0  0
 22 24  2  0  0  0  0
 29 30  1  0  0  0  0
 29 34  1  0  0  0  0
 30 31  1  0  0  0  0
 30 33  1  0  0  0  0
 30 35  1  0  0  0  0
 31 32  2  0  0  0  0
 31 39  1  0  0  0  0
 33 36  1  0  0  0  0
 33 37  1  0  0  0  0
 33 38  1  0  0  0  0
 39 40  1  0  0  0  0
 39 41  1  0  0  0  0
 40 42  1  0  0  0  0
 40 43  1  0  0  0  0
 40 44  1  0  0  0  0
M  CHG  1  23  -1
M  END
$$$$

  -OEChem-05262215553D

 44 43  0     1  0  0  0  0  0999 V2000
   -4.3894   -0.4063   -4.4355 C   0  0  0  0  0  0  0  0  0  0  0  0
   -4.0368   -1.4448   -4.9736 O   0  0  0  0  0  0  0  0  0  0  0  0
   -5.7782    0.1477   -4.6973 C   0  0  0  0  0  0  0  0  0  0  0  0
   -5.7036    1.1095   -5.2107 H   0  0  0  0  0  0  0  0  0  0  0  0
   -6.3501   -0.5437   -5.3222 H   0  0  0  0  0  0  0  0  0  0  0  0
   -6.3075    0.2881   -3.7515 H   0  0  0  0  0  0  0  0  0  0  0  0
   -3.5430    0.2699   -3.5851 N   0  0  0  0  0  0  0  0  0  0  0  0
   -2.2693   -0.2578   -3.0787 C   0  0  2  0  0  0  0  0  0  0  0  0
   -2.0011    0.2389   -1.6402 C   0  0  0  0  0  0  0  0  0  0  0  0
   -2.8571    0.9103   -1.0713 O   0  0  0  0  0  0  0  0  0  0  0  0
   -1.1462    0.1848   -4.0232 C   0  0  0  0  0  0  0  0  0  0  0  0
   -3.9499    1.0265   -3.0351 H   0  0  0  0  0  0  0  0  0  0  0  0
   -2.3029   -1.3519   -3.0468 H   0  0  0  0  0  0  0  0  0  0  0  0
   -1.0745    1.2768   -4.0465 H   0  0  0  0  0  0  0  0  0  0  0  0
   -0.1824   -0.2186   -3.6960 H   0  0  0  0  0  0  0  0  0  0  0  0
   -1.3403   -0.1749   -5.0382 H   0  0  0  0  0  0  0  0  0  0  0  0
   -0.8729   -0.1952   -0.9701 N   0  0  0  0  0  0  0  0  0  0  0  0
   -0.1113    0.5288    0.0650 C   0  0  2  0  0  0  0  0  0  0  0  0
   -0.7713    1.7659    0.7305 C   0  0  0  0  0  0  0  0  0  0  0  0
   -0.8717    2.8399    0.1405 O   0  0  0  0  0  0  0  0  0  0  0  0
    1.2090    0.9339   -0.6231 C   0  0  0  0  0  0  0  0  0  0  0  0
    2.1027   -0.2636   -0.9285 C   0  0  0  0  0  0  0  0  0  0  0  0
    2.0270   -1.2708   -0.1828 O   0  5  0  0  0  0  0  0  0  0  0  0
    2.7628   -0.2164   -1.9920 O   0  0  0  0  0  0  0  0  0  0  0  0
   -0.2987   -0.8468   -1.5029 H   0  0  0  0  0  0  0  0  0  0  0  0
    0.1025   -0.1683    0.8813 H   0  0  0  0  0  0  0  0  0  0  0  0
    1.7700    1.5988    0.0385 H   0  0  0  0  0  0  0  0  0  0  0  0
    0.9972    1.4826   -1.5458 H   0  0  0  0  0  0  0  0  0  0  0  0
   -0.9882    1.7730    2.0980 N   0  0  0  0  0  0  0  0  0  0  0  0
   -1.5471    2.9056    2.8459 C   0  0  2  0  0  0  0  0  0  0  0  0
   -1.2598    2.8162    4.3589 C   0  0  0  0  0  0  0  0  0  0  0  0
   -0.9946    1.7428    4.8899 O   0  0  0  0  0  0  0  0  0  0  0  0
   -3.0604    2.9511    2.6033 C   0  0  0  0  0  0  0  0  0  0  0  0
   -0.8177    0.9077    2.6070 H   0  0  0  0  0  0  0  0  0  0  0  0
   -1.0938    3.8331    2.4811 H   0  0  0  0  0  0  0  0  0  0  0  0
   -3.5298    2.0277    2.9567 H   0  0  0  0  0  0  0  0  0  0  0  0
   -3.5099    3.7970    3.1311 H   0  0  0  0  0  0  0  0  0  0  0  0
   -3.2733    3.0608    1.5350 H   0  0  0  0  0  0  0  0  0  0  0  0
   -1.3215    3.9573    5.1387 N   0  0  0  0  0  0  0  0  0  0  0  0
   -1.0312    3.9713    6.5660 C   0  0  0  0  0  0  0  0  0  0  0  0
   -1.5052    4.8354    4.6628 H   0  0  0  0  0  0  0  0  0  0  0  0
   -1.6822    3.2695    7.0976 H   0  0  0  0  0  0  0  0  0  0  0  0
    0.0119    3.6919    6.7464 H   0  0  0  0  0  0  0  0  0  0  0  0
   -1.1984    4.9725    6.9740 H   0  0  0  0  0  0  0  0  0  0  0  0
  1  2  2  0  0  0  0
  1  3  1  0  0  0  0
  1  7  1  0  0  0  0
  3  4  1  0  0  0  0
  3  5  1  0  0  0  0
  3  6  1  0  0  0  0
  7  8  1  0  0  0  0
  7 12  1  0  0  0  0
  8  9  1  0  0  0  0
  8 11  1  0  0  0  0
  8 13  1  0  0  0  0
  9 10  2  0  0  0  0
  9 17  1  0  0  0  0
 11 14  1  0  0  0  0
 11 15  1  0  0  0  0
 11 16  1  0  0  0  0
 17 18  1  0  0  0  0
 17 25  1  0  0  0  0
 18 19  1  0  0  0  0
 18 21  1  0  0  0  0
 18 26  1  0  0  0  0
 19 20  2  0  0  0  0
 19 29  1  0  0  0  0
 21 22  1  0  0  0  0
 21 27  1  0  0  0  0
 21 28  1  0  0  0  0
 22 23  1  0  0  0  0
 22 24  2  0  0  0  0
 29 30  1  0  0  0  0
 29 34  1  0  0  0  0
 30 31  1  0  0  0  0
 30 33  1  0  0  0  0
 30 35  1  0  0  0  0
 31 32  2  0  0  0  0
 31 39  1  0  0  0  0
 33 36  1  0  0  0  0
 33 37  1  0  0  0  0
 33 38  1  0  0  0  0
 39 40  1  0  0  0  0
 39 41  1  0  0  0  0
 40 42  1  0  0  0  0
 40 43  1  0  0  0  0
 40 44  1  0  0  0  0
M  CHG  1  23  -1
M  END
$$$$

  -OEChem-05262215553D

 44 43  0     1  0  0  0  0  0999 V2000
   -4.3403   -0.4262   -4.4788 C   0  0  0  0  0  0  0  0  0  0  0  0
   -3.9185   -1.4037   -5.0777 O   0  0  0  0  0  0  0  0  0  0  0  0
   -5.7497    0.0713   -4.7443 C   0  0  0  0  0  0  0  0  0  0  0  0
   -5.7181    1.1036   -5.1013 H   0  0  0  0  0  0  0  0  0  0  0  0
   -6.2336   -0.5503   -5.5026 H   0  0  0  0  0  0  0  0  0  0  0  0
   -6.3389    0.0295   -3.8250 H   0  0  0  0  0  0  0  0  0  0  0  0
   -3.5559    0.2282   -3.5551 N   0  0  0  0  0  0  0  0  0  0  0  0
   -2.2680   -0.2671   -3.0514 C   0  0  2  0  0  0  0  0  0  0  0  0
   -2.0626    0.1371   -1.5743 C   0  0  0  0  0  0  0  0  0  0  0  0
   -2.9872    0.6654   -0.9632 O   0  0  0  0  0  0  0  0  0  0  0  0
   -1.1481    0.2998   -3.9313 C   0  0  0  0  0  0  0  0  0  0  0  0
   -4.0199    0.9174   -2.9633 H   0  0  0  0  0  0  0  0  0  0  0  0
   -2.2437   -1.3610   -3.0973 H   0  0  0  0  0  0  0  0  0  0  0  0
   -1.1312    1.3928   -3.8720 H   0  0  0  0  0  0  0  0  0  0  0  0
   -0.1728   -0.0797   -3.6102 H   0  0  0  0  0  0  0  0  0  0  0  0
   -1.3011    0.0081   -4.9749 H   0  0  0  0  0  0  0  0  0  0  0  0
   -0.9171   -0.2554   -0.9091 N   0  0  0  0  0  0  0  0  0  0  0  0
   -0.1811    0.5169    0.1101 C   0  0  2  0  0  0  0  0  0  0  0  0
   -0.8701    1.7433    0.7650 C   0  0  0  0  0  0  0  0  0  0  0  0
   -1.1874    2.7321    0.1074 O   0  0  0  0  0  0  0  0  0  0  0  0
    1.1168    0.9753   -0.5868 C   0  0  0  0  0  0  0  0  0  0  0  0
    2.0679   -0.1788   -0.8828 C   0  0  0  0  0  0  0  0  0  0  0  0
    2.0448   -1.1802   -0.1267 O   0  5  0  0  0  0  0  0  0  0  0  0
    2.7254   -0.1067   -1.9464 O   0  0  0  0  0  0  0  0  0  0  0  0
   -0.3048   -0.8487   -1.4665 H   0  0  0  0  0  0  0  0  0  0  0  0
    0.0621   -0.1624    0.9332 H   0  0  0  0  0  0  0  0  0  0  0  0
    1.6477    1.6746    0.0644 H   0  0  0  0  0  0  0  0  0  0  0  0
    0.8760    1.5027   -1.5148 H   0  0  0  0  0  0  0  0  0  0  0  0
   -0.7939    1.9076    2.1378 N   0  0  0  0  0  0  0  0  0  0  0  0
   -1.2415    3.1027    2.8628 C   0  0  2  0  0  0  0  0  0  0  0  0
   -0.5988    3.2200    4.2599 C   0  0  0  0  0  0  0  0  0  0  0  0
   -0.1565    2.2311    4.8348 O   0  0  0  0  0  0  0  0  0  0  0  0
   -2.7680    3.0528    2.9911 C   0  0  0  0  0  0  0  0  0  0  0  0
   -0.3817    1.1515    2.6819 H   0  0  0  0  0  0  0  0  0  0  0  0
   -0.9556    3.9947    2.2959 H   0  0  0  0  0  0  0  0  0  0  0  0
   -3.0739    2.1622    3.5488 H   0  0  0  0  0  0  0  0  0  0  0  0
   -3.1383    3.9386    3.5152 H   0  0  0  0  0  0  0  0  0  0  0  0
   -3.2332    3.0189    2.0006 H   0  0  0  0  0  0  0  0  0  0  0  0
   -0.5355    4.4506    4.8892 N   0  0  0  0  0  0  0  0  0  0  0  0
    0.0880    4.6531    6.1898 C   0  0  0  0  0  0  0  0  0  0  0  0
   -0.8680    5.2569    4.3689 H   0  0  0  0  0  0  0  0  0  0  0  0
   -0.3877    4.0191    6.9454 H   0  0  0  0  0  0  0  0  0  0  0  0
    1.1546    4.4094    6.1442 H   0  0  0  0  0  0  0  0  0  0  0  0
   -0.0170    5.6969    6.5003 H   0  0  0  0  0  0  0  0  0  0  0  0
  1  2  2  0  0  0  0
  1  3  1  0  0  0  0
  1  7  1  0  0  0  0
  3  4  1  0  0  0  0
  3  5  1  0  0  0  0
  3  6  1  0  0  0  0
  7  8  1  0  0  0  0
  7 12  1  0  0  0  0
  8  9  1  0  0  0  0
  8 11  1  0  0  0  0
  8 13  1  0  0  0  0
  9 10  2  0  0  0  0
  9 17  1  0  0  0  0
 11 14  1  0  0  0  0
 11 15  1  0  0  0  0
 11 16  1  0  0  0  0
 17 18  1  0  0  0  0
 17 25  1  0  0  0  0
 18 19  1  0  0  0  0
 18 21  1  0  0  0  0
 18 26  1  0  0  0  0
 19 20  2  0  0  0  0
 19 29  1  0  0  0  0
 21 22  1  0  0  0  0
 21 27  1  0  0  0  0
 21 28  1  0  0  0  0
 22 23  1  0  0  0  0
 22 24  2  0  0  0  0
 29 30  1  0  0  0  0
 29 34  1  0  0  0  0
 30 31  1  0  0  0  0
 30 33  1  0  0  0  0
 30 35  1  0  0  0  0
 31 32  2  0  0  0  0
 31 39  1  0  0  0  0
 33 36  1  0  0  0  0
 33 37  1  0  0  0  0
 33 38  1  0  0  0  0
 39 40  1  0  0  0  0
 39 41  1  0  0  0  0
 40 42  1  0  0  0  0
 40 43  1  0  0  0  0
 40 44  1  0  0  0  0
M  CHG  1  23  -1
M  END
$$$$

  -OEChem-05262215553D

 44 43  0     1  0  0  0  0  0999 V2000
   -4.3139   -0.4315   -4.4768 C   0  0  0  0  0  0  0  0  0  0  0  0
   -3.8679   -1.3796   -5.1049 O   0  0  0  0  0  0  0  0  0  0  0  0
   -5.7357    0.0374   -4.7267 C   0  0  0  0  0  0  0  0  0  0  0  0
   -5.7260    1.0467   -5.1452 H   0  0  0  0  0  0  0  0  0  0  0  0
   -6.2374   -0.6327   -5.4305 H   0  0  0  0  0  0  0  0  0  0  0  0
   -6.2950    0.0458   -3.7879 H   0  0  0  0  0  0  0  0  0  0  0  0
   -3.5454    0.2192   -3.5373 N   0  0  0  0  0  0  0  0  0  0  0  0
   -2.2548   -0.2693   -3.0343 C   0  0  2  0  0  0  0  0  0  0  0  0
   -2.0893    0.0718   -1.5363 C   0  0  0  0  0  0  0  0  0  0  0  0
   -3.0609    0.4760   -0.9045 O   0  0  0  0  0  0  0  0  0  0  0  0
   -1.1339    0.3618   -3.8680 C   0  0  0  0  0  0  0  0  0  0  0  0
   -4.0343    0.8656   -2.9180 H   0  0  0  0  0  0  0  0  0  0  0  0
   -2.2036   -1.3590   -3.1291 H   0  0  0  0  0  0  0  0  0  0  0  0
   -1.1293    1.4490   -3.7414 H   0  0  0  0  0  0  0  0  0  0  0  0
   -0.1573   -0.0276   -3.5629 H   0  0  0  0  0  0  0  0  0  0  0  0
   -1.2756    0.1334   -4.9289 H   0  0  0  0  0  0  0  0  0  0  0  0
   -0.9282   -0.2738   -0.8729 N   0  0  0  0  0  0  0  0  0  0  0  0
   -0.2257    0.5258    0.1504 C   0  0  2  0  0  0  0  0  0  0  0  0
   -0.9433    1.7250    0.8263 C   0  0  0  0  0  0  0  0  0  0  0  0
   -1.4742    2.6184    0.1710 O   0  0  0  0  0  0  0  0  0  0  0  0
    1.0438    1.0507   -0.5530 C   0  0  0  0  0  0  0  0  0  0  0  0
    2.0483   -0.0521   -0.8647 C   0  0  0  0  0  0  0  0  0  0  0  0
    2.0808   -1.0583   -0.1159 O   0  5  0  0  0  0  0  0  0  0  0  0
    2.6937    0.0614   -1.9319 O   0  0  0  0  0  0  0  0  0  0  0  0
   -0.2838   -0.8144   -1.4470 H   0  0  0  0  0  0  0  0  0  0  0  0
    0.0500   -0.1506    0.9658 H   0  0  0  0  0  0  0  0  0  0  0  0
    1.5475    1.7705    0.0975 H   0  0  0  0  0  0  0  0  0  0  0  0
    0.7700    1.5731   -1.4746 H   0  0  0  0  0  0  0  0  0  0  0  0
   -0.6017    2.0493    2.1292 N   0  0  0  0  0  0  0  0  0  0  0  0
   -0.9588    3.3049    2.8024 C   0  0  2  0  0  0  0  0  0  0  0  0
   -0.0275    3.6232    3.9899 C   0  0  0  0  0  0  0  0  0  0  0  0
    0.5913    2.7315    4.5606 O   0  0  0  0  0  0  0  0  0  0  0  0
   -2.4096    3.2065    3.2851 C   0  0  0  0  0  0  0  0  0  0  0  0
    0.0204    1.4107    2.6233 H   0  0  0  0  0  0  0  0  0  0  0  0
   -0.8704    4.1322    2.0908 H   0  0  0  0  0  0  0  0  0  0  0  0
   -2.5190    2.3830    3.9981 H   0  0  0  0  0  0  0  0  0  0  0  0
   -2.7149    4.1363    3.7735 H   0  0  0  0  0  0  0  0  0  0  0  0
   -3.0809    3.0256    2.4395 H   0  0  0  0  0  0  0  0  0  0  0  0
    0.1063    4.9273    4.4327 N   0  0  0  0  0  0  0  0  0  0  0  0
    1.0063    5.3174    5.5096 C   0  0  0  0  0  0  0  0  0  0  0  0
   -0.3742    5.6496    3.9046 H   0  0  0  0  0  0  0  0  0  0  0  0
    0.7589    4.7790    6.4303 H   0  0  0  0  0  0  0  0  0  0  0  0
    2.0438    5.0962    5.2386 H   0  0  0  0  0  0  0  0  0  0  0  0
    0.9190    6.3906    5.7040 H   0  0  0  0  0  0  0  0  0  0  0  0
  1  2  2  0  0  0  0
  1  3  1  0  0  0  0
  1  7  1  0  0  0  0
  3  4  1  0  0  0  0
  3  5  1  0  0  0  0
  3  6  1  0  0  0  0
  7  8  1  0  0  0  0
  7 12  1  0  0  0  0
  8  9  1  0  0  0  0
  8 11  1  0  0  0  0
  8 13  1  0  0  0  0
  9 10  2  0  0  0  0
  9 17  1  0  0  0  0
 11 14  1  0  0  0  0
 11 15  1  0  0  0  0
 11 16  1  0  0  0  0
 17 18  1  0  0  0  0
 17 25  1  0  0  0  0
 18 19  1  0  0  0  0
 18 21  1  0  0  0  0
 18 26  1  0  0  0  0
 19 20  2  0  0  0  0
 19 29  1  0  0  0  0
 21 22  1  0  0  0  0
 21 27  1  0  0  0  0
 21 28  1  0  0  0  0
 22 23  1  0  0  0  0
 22 24  2  0  0  0  0
 29 30  1  0  0  0  0
 29 34  1  0  0  0  0
 30 31  1  0  0  0  0
 30 33  1  0  0  0  0
 30 35  1  0  0  0  0
 31 32  2  0  0  0  0
 31 39  1  0  0  0  0
 33 36  1  0  0  0  0
 33 37  1  0  0  0  0
 33 38  1  0  0  0  0
 39 40  1  0  0  0  0
 39 41  1  0  0  0  0
 40 42  1  0  0  0  0
 40 43  1  0  0  0  0
 40 44  1  0  0  0  0
M  CHG  1  23  -1
M  END
$$$$

  -OEChem-05262215553D

 44 43  0     1  0  0  0  0  0999 V2000
   -4.6507   -0.2016   -3.9650 C   0  0  0  0  0  0  0  0  0  0  0  0
   -4.7751   -1.4092   -3.8264 O   0  0  0  0  0  0  0  0  0  0  0  0
   -5.8452    0.6405   -4.3746 C   0  0  0  0  0  0  0  0  0  0  0  0
   -5.6456    1.1295   -5.3312 H   0  0  0  0  0  0  0  0  0  0  0  0
   -6.7340    0.0120   -4.4773 H   0  0  0  0  0  0  0  0  0  0  0  0
   -6.0392    1.4038   -3.6168 H   0  0  0  0  0  0  0  0  0  0  0  0
   -3.4358    0.4092   -3.7484 N   0  0  0  0  0  0  0  0  0  0  0  0
   -2.2801   -0.2357   -3.1132 C   0  0  2  0  0  0  0  0  0  0  0  0
   -1.5413    0.7583   -2.1910 C   0  0  0  0  0  0  0  0  0  0  0  0
   -1.7347    1.9579   -2.3544 O   0  0  0  0  0  0  0  0  0  0  0  0
   -1.3476   -0.7528   -4.2128 C   0  0  0  0  0  0  0  0  0  0  0  0
   -3.4298    1.4295   -3.7220 H   0  0  0  0  0  0  0  0  0  0  0  0
   -2.6110   -1.0751   -2.4925 H   0  0  0  0  0  0  0  0  0  0  0  0
   -0.9923    0.0762   -4.8331 H   0  0  0  0  0  0  0  0  0  0  0  0
   -0.4790   -1.2560   -3.7765 H   0  0  0  0  0  0  0  0  0  0  0  0
   -1.8760   -1.4666   -4.8520 H   0  0  0  0  0  0  0  0  0  0  0  0
   -0.5586    0.2819   -1.3433 N   0  0  0  0  0  0  0  0  0  0  0  0
    0.0044    0.8651   -0.1095 C   0  0  2  0  0  0  0  0  0  0  0  0
   -0.6890    2.0273    0.6566 C   0  0  0  0  0  0  0  0  0  0  0  0
   -1.8022    2.4669    0.3960 O   0  0  0  0  0  0  0  0  0  0  0  0
    1.4552    1.2495   -0.4680 C   0  0  0  0  0  0  0  0  0  0  0  0
    2.3348    0.0224   -0.6986 C   0  0  0  0  0  0  0  0  0  0  0  0
    2.0504   -1.0375   -0.0841 O   0  5  0  0  0  0  0  0  0  0  0  0
    3.2870    0.1429   -1.5037 O   0  0  0  0  0  0  0  0  0  0  0  0
   -0.3241   -0.6991   -1.4742 H   0  0  0  0  0  0  0  0  0  0  0  0
    0.0184    0.0613    0.6334 H   0  0  0  0  0  0  0  0  0  0  0  0
    1.9054    1.8209    0.3472 H   0  0  0  0  0  0  0  0  0  0  0  0
    1.4604    1.8806   -1.3619 H   0  0  0  0  0  0  0  0  0  0  0  0
   -0.2503    2.2797    1.9464 N   0  0  0  0  0  0  0  0  0  0  0  0
   -0.8239    3.2924    2.8428 C   0  0  2  0  0  0  0  0  0  0  0  0
    0.2646    4.0749    3.6038 C   0  0  0  0  0  0  0  0  0  0  0  0
    1.3138    3.5309    3.9292 O   0  0  0  0  0  0  0  0  0  0  0  0
   -1.7618    2.5868    3.8243 C   0  0  0  0  0  0  0  0  0  0  0  0
    0.6662    1.9069    2.1933 H   0  0  0  0  0  0  0  0  0  0  0  0
   -1.3987    4.0213    2.2623 H   0  0  0  0  0  0  0  0  0  0  0  0
   -1.2094    1.8539    4.4211 H   0  0  0  0  0  0  0  0  0  0  0  0
   -2.2239    3.3122    4.5003 H   0  0  0  0  0  0  0  0  0  0  0  0
   -2.5552    2.0663    3.2786 H   0  0  0  0  0  0  0  0  0  0  0  0
    0.0586    5.4010    3.9399 N   0  0  0  0  0  0  0  0  0  0  0  0
    1.0762    6.2262    4.5769 C   0  0  0  0  0  0  0  0  0  0  0  0
   -0.7801    5.8453    3.5783 H   0  0  0  0  0  0  0  0  0  0  0  0
    1.3810    5.7890    5.5334 H   0  0  0  0  0  0  0  0  0  0  0  0
    1.9566    6.3124    3.9313 H   0  0  0  0  0  0  0  0  0  0  0  0
    0.6841    7.2297    4.7665 H   0  0  0  0  0  0  0  0  0  0  0  0
  1  2  2  0  0  0  0
  1  3  1  0  0  0  0
  1  7  1  0  0  0  0
  3  4  1  0  0  0  0
  3  5  1  0  0  0  0
  3  6  1  0  0  0  0
  7  8  1  0  0  0  0
  7 12  1  0  0  0  0
  8  9  1  0  0  0  0
  8 11  1  0  0  0  0
  8 13  1  0  0  0  0
  9 10  2  0  0  0  0
  9 17  1  0  0  0  0
 11 14  1  0  0  0  0
 11 15  1  0  0  0  0
 11 16  1  0  0  0  0
 17 18  1  0  0  0  0
 17 25  1  0  0  0  0
 18 19  1  0  0  0  0
 18 21  1  0  0  0  0
 18 26  1  0  0  0  0
 19 20  2  0  0  0  0
 19 29  1  0  0  0  0
 21 22  1  0  0  0  0
 21 27  1  0  0  0  0
 21 28  1  0  0  0  0
 22 23  1  0  0  0  0
 22 24  2  0  0  0  0
 29 30  1  0  0  0  0
 29 34  1  0  0  0  0
 30 31  1  0  0  0  0
 30 33  1  0  0  0  0
 30 35  1  0  0  0  0
 31 32  2  0  0  0  0
 31 39  1  0  0  0  0
 33 36  1  0  0  0  0
 33 37  1  0  0  0  0
 33 38  1  0  0  0  0
 39 40  1  0  0  0  0
 39 41  1  0  0  0  0
 40 42  1  0  0  0  0
 40 43  1  0  0  0  0
 40 44  1  0  0  0  0
M  CHG  1  23  -1
M  END
$$$$

  -OEChem-05262215553D

 44 43  0     1  0  0  0  0  0999 V2000
   -4.6448   -0.0477   -3.9324 C   0  0  0  0  0  0  0  0  0  0  0  0
   -4.7629   -1.2637   -3.9581 O   0  0  0  0  0  0  0  0  0  0  0  0
   -5.8342    0.8346   -4.2646 C   0  0  0  0  0  0  0  0  0  0  0  0
   -5.6403    1.3879   -5.1866 H   0  0  0  0  0  0  0  0  0  0  0  0
   -6.7320    0.2249   -4.3990 H   0  0  0  0  0  0  0  0  0  0  0  0
   -6.0091    1.5448   -3.4526 H   0  0  0  0  0  0  0  0  0  0  0  0
   -3.4401    0.5356   -3.6081 N   0  0  0  0  0  0  0  0  0  0  0  0
   -2.2892   -0.1843   -3.0495 C   0  0  2  0  0  0  0  0  0  0  0  0
   -1.5504    0.6843   -2.0085 C   0  0  0  0  0  0  0  0  0  0  0  0
   -1.7821    1.8902   -1.9717 O   0  0  0  0  0  0  0  0  0  0  0  0
   -1.3520   -0.5668   -4.1988 C   0  0  0  0  0  0  0  0  0  0  0  0
   -3.4422    1.5430   -3.4459 H   0  0  0  0  0  0  0  0  0  0  0  0
   -2.6268   -1.0914   -2.5374 H   0  0  0  0  0  0  0  0  0  0  0  0
   -0.9878    0.3307   -4.7095 H   0  0  0  0  0  0  0  0  0  0  0  0
   -0.4894   -1.1258   -3.8231 H   0  0  0  0  0  0  0  0  0  0  0  0
   -1.8792   -1.1936   -4.9246 H   0  0  0  0  0  0  0  0  0  0  0  0
   -0.5516    0.1175   -1.2373 N   0  0  0  0  0  0  0  0  0  0  0  0
    0.1029    0.6795   -0.0427 C   0  0  2  0  0  0  0  0  0  0  0  0
   -0.7186    1.6307    0.8704 C   0  0  0  0  0  0  0  0  0  0  0  0
   -1.9458    1.5893    0.9112 O   0  0  0  0  0  0  0  0  0  0  0  0
    1.4057    1.3389   -0.5458 C   0  0  0  0  0  0  0  0  0  0  0  0
    2.4210    0.3044   -1.0291 C   0  0  0  0  0  0  0  0  0  0  0  0
    2.4021   -0.8398   -0.5069 O   0  5  0  0  0  0  0  0  0  0  0  0
    3.2143    0.6595   -1.9317 O   0  0  0  0  0  0  0  0  0  0  0  0
   -0.2874   -0.8353   -1.4730 H   0  0  0  0  0  0  0  0  0  0  0  0
    0.3572   -0.1548    0.6187 H   0  0  0  0  0  0  0  0  0  0  0  0
    1.8809    1.9022    0.2597 H   0  0  0  0  0  0  0  0  0  0  0  0
    1.1796    2.0395   -1.3550 H   0  0  0  0  0  0  0  0  0  0  0  0
   -0.1054    2.1658    1.9915 N   0  0  0  0  0  0  0  0  0  0  0  0
   -0.7844    2.9883    3.0013 C   0  0  2  0  0  0  0  0  0  0  0  0
    0.0703    4.1901    3.4528 C   0  0  0  0  0  0  0  0  0  0  0  0
    1.2947    4.1390    3.4159 O   0  0  0  0  0  0  0  0  0  0  0  0
   -1.1192    2.0926    4.1959 C   0  0  0  0  0  0  0  0  0  0  0  0
    0.9137    2.1920    1.9790 H   0  0  0  0  0  0  0  0  0  0  0  0
   -1.7131    3.3929    2.5862 H   0  0  0  0  0  0  0  0  0  0  0  0
   -0.2039    1.6802    4.6325 H   0  0  0  0  0  0  0  0  0  0  0  0
   -1.6490    2.6622    4.9649 H   0  0  0  0  0  0  0  0  0  0  0  0
   -1.7585    1.2630    3.8778 H   0  0  0  0  0  0  0  0  0  0  0  0
   -0.5437    5.3348    3.9303 N   0  0  0  0  0  0  0  0  0  0  0  0
    0.1894    6.5359    4.3086 C   0  0  0  0  0  0  0  0  0  0  0  0
   -1.5571    5.3742    3.8737 H   0  0  0  0  0  0  0  0  0  0  0  0
    0.9342    6.3060    5.0778 H   0  0  0  0  0  0  0  0  0  0  0  0
    0.7001    6.9612    3.4386 H   0  0  0  0  0  0  0  0  0  0  0  0
   -0.4983    7.2867    4.7095 H   0  0  0  0  0  0  0  0  0  0  0  0
  1  2  2  0  0  0  0
  1  3  1  0  0  0  0
  1  7  1  0  0  0  0
  3  4  1  0  0  0  0
  3  5  1  0  0  0  0
  3  6  1  0  0  0  0
  7  8  1  0  0  0  0
  7 12  1  0  0  0  0
  8  9  1  0  0  0  0
  8 11  1  0  0  0  0
  8 13  1  0  0  0  0
  9 10  2  0  0  0  0
  9 17  1  0  0  0  0
 11 14  1  0  0  0  0
 11 15  1  0  0  0  0
 11 16  1  0  0  0  0
 17 18  1  0  0  0  0
 17 25  1  0  0  0  0
 18 19  1  0  0  0  0
 18 21  1  0  0  0  0
 18 26  1  0  0  0  0
 19 20  2  0  0  0  0
 19 29  1  0  0  0  0
 21 22  1  0  0  0  0
 21 27  1  0  0  0  0
 21 28  1  0  0  0  0
 22 23  1  0  0  0  0
 22 24  2  0  0  0  0
 29 30  1  0  0  0  0
 29 34  1  0  0  0  0
 30 31  1  0  0  0  0
 30 33  1  0  0  0  0
 30 35  1  0  0  0  0
 31 32  2  0  0  0  0
 31 39  1  0  0  0  0
 33 36  1  0  0  0  0
 33 37  1  0  0  0  0
 33 38  1  0  0  0  0
 39 40  1  0  0  0  0
 39 41  1  0  0  0  0
 40 42  1  0  0  0  0
 40 43  1  0  0  0  0
 40 44  1  0  0  0  0
M  CHG  1  23  -1
M  END
$$$$

  -OEChem-05262215553D

 44 43  0     1  0  0  0  0  0999 V2000
   -4.6244   -0.0507   -3.9193 C   0  0  0  0  0  0  0  0  0  0  0  0
   -4.7082   -1.2659   -4.0167 O   0  0  0  0  0  0  0  0  0  0  0  0
   -5.8389    0.8158   -4.1986 C   0  0  0  0  0  0  0  0  0  0  0  0
   -5.6326    1.4858   -5.0368 H   0  0  0  0  0  0  0  0  0  0  0  0
   -6.7005    0.1907   -4.4486 H   0  0  0  0  0  0  0  0  0  0  0  0
   -6.0812    1.4125   -3.3156 H   0  0  0  0  0  0  0  0  0  0  0  0
   -3.4376    0.5456   -3.5548 N   0  0  0  0  0  0  0  0  0  0  0  0
   -2.2668   -0.1734   -3.0373 C   0  0  2  0  0  0  0  0  0  0  0  0
   -1.5377    0.6663   -1.9658 C   0  0  0  0  0  0  0  0  0  0  0  0
   -1.7922    1.8653   -1.8768 O   0  0  0  0  0  0  0  0  0  0  0  0
   -1.3313   -0.4895   -4.2088 C   0  0  0  0  0  0  0  0  0  0  0  0
   -3.4656    1.5427   -3.3403 H   0  0  0  0  0  0  0  0  0  0  0  0
   -2.5817   -1.1079   -2.5615 H   0  0  0  0  0  0  0  0  0  0  0  0
   -0.9866    0.4350   -4.6833 H   0  0  0  0  0  0  0  0  0  0  0  0
   -0.4560   -1.0482   -3.8628 H   0  0  0  0  0  0  0  0  0  0  0  0
   -1.8520   -1.0940   -4.9578 H   0  0  0  0  0  0  0  0  0  0  0  0
   -0.5388    0.0813   -1.2085 N   0  0  0  0  0  0  0  0  0  0  0  0
    0.1479    0.6394   -0.0309 C   0  0  2  0  0  0  0  0  0  0  0  0
   -0.6664    1.6144    0.8641 C   0  0  0  0  0  0  0  0  0  0  0  0
   -1.8678    1.4365    1.0541 O   0  0  0  0  0  0  0  0  0  0  0  0
    1.4540    1.2633   -0.5721 C   0  0  0  0  0  0  0  0  0  0  0  0
    2.4323    0.1984   -1.0654 C   0  0  0  0  0  0  0  0  0  0  0  0
    2.3993   -0.9389   -0.5296 O   0  5  0  0  0  0  0  0  0  0  0  0
    3.2036    0.5215   -1.9985 O   0  0  0  0  0  0  0  0  0  0  0  0
   -0.2664   -0.8629   -1.4692 H   0  0  0  0  0  0  0  0  0  0  0  0
    0.3980   -0.1859    0.6432 H   0  0  0  0  0  0  0  0  0  0  0  0
    1.9652    1.8182    0.2164 H   0  0  0  0  0  0  0  0  0  0  0  0
    1.2269    1.9623   -1.3828 H   0  0  0  0  0  0  0  0  0  0  0  0
   -0.0176    2.4153    1.7897 N   0  0  0  0  0  0  0  0  0  0  0  0
   -0.6971    3.3210    2.7250 C   0  0  2  0  0  0  0  0  0  0  0  0
    0.0408    4.6666    2.8779 C   0  0  0  0  0  0  0  0  0  0  0  0
    1.2587    4.7319    2.7536 O   0  0  0  0  0  0  0  0  0  0  0  0
   -0.8051    2.6173    4.0800 C   0  0  0  0  0  0  0  0  0  0  0  0
    0.9785    2.5672    1.6362 H   0  0  0  0  0  0  0  0  0  0  0  0
   -1.7038    3.5450    2.3566 H   0  0  0  0  0  0  0  0  0  0  0  0
    0.1909    2.3826    4.4690 H   0  0  0  0  0  0  0  0  0  0  0  0
   -1.3222    3.2556    4.8026 H   0  0  0  0  0  0  0  0  0  0  0  0
   -1.3679    1.6842    3.9766 H   0  0  0  0  0  0  0  0  0  0  0  0
   -0.6682    5.8134    3.1891 N   0  0  0  0  0  0  0  0  0  0  0  0
   -0.0526    7.1302    3.2853 C   0  0  0  0  0  0  0  0  0  0  0  0
   -1.6806    5.7395    3.2162 H   0  0  0  0  0  0  0  0  0  0  0  0
    0.7302    7.1326    4.0511 H   0  0  0  0  0  0  0  0  0  0  0  0
    0.3909    7.4149    2.3255 H   0  0  0  0  0  0  0  0  0  0  0  0
   -0.8029    7.8790    3.5563 H   0  0  0  0  0  0  0  0  0  0  0  0
  1  2  2  0  0  0  0
  1  3  1  0  0  0  0
  1  7  1  0  0  0  0
  3  4  1  0  0  0  0
  3  5  1  0  0  0  0
  3  6  1  0  0  0  0
  7  8  1  0  0  0  0
  7 12  1  0  0  0  0
  8  9  1  0  0  0  0
  8 11  1  0  0  0  0
  8 13  1  0  0  0  0
  9 10  2  0  0  0  0
  9 17  1  0  0  0  0
 11 14  1  0  0  0  0
 11 15  1  0  0  0  0
 11 16  1  0  0  0  0
 17 18  1  0  0  0  0
 17 25  1  0  0  0  0
 18 19  1  0  0  0  0
 18 21  1  0  0  0  0
 18 26  1  0  0  0  0
 19 20  2  0  0  0  0
 19 29  1  0  0  0  0
 21 22  1  0  0  0  0
 21 27  1  0  0  0  0
 21 28  1  0  0  0  0
 22 23  1  0  0  0  0
 22 24  2  0  0  0  0
 29 30  1  0  0  0  0
 29 34  1  0  0  0  0
 30 31  1  0  0  0  0
 30 33  1  0  0  0  0
 30 35  1  0  0  0  0
 31 32  2  0  0  0  0
 31 39  1  0  0  0  0
 33 36  1  0  0  0  0
 33 37  1  0  0  0  0
 33 38  1  0  0  0  0
 39 40  1  0  0  0  0
 39 41  1  0  0  0  0
 40 42  1  0  0  0  0
 40 43  1  0  0  0  0
 40 44  1  0  0  0  0
M  CHG  1  23  -1
M  END
$$$$

  -OEChem-05262215553D

 44 43  0     1  0  0  0  0  0999 V2000
   -4.6119   -0.0548   -3.9045 C   0  0  0  0  0  0  0  0  0  0  0  0
   -4.6800   -1.2680   -4.0325 O   0  0  0  0  0  0  0  0  0  0  0  0
   -5.8337    0.8045   -4.1745 C   0  0  0  0  0  0  0  0  0  0  0  0
   -5.6202    1.5114   -4.9799 H   0  0  0  0  0  0  0  0  0  0  0  0
   -6.6798    0.1776   -4.4695 H   0  0  0  0  0  0  0  0  0  0  0  0
   -6.1038    1.3606   -3.2733 H   0  0  0  0  0  0  0  0  0  0  0  0
   -3.4360    0.5472   -3.5146 N   0  0  0  0  0  0  0  0  0  0  0  0
   -2.2547   -0.1677   -3.0159 C   0  0  2  0  0  0  0  0  0  0  0  0
   -1.5394    0.6512   -1.9195 C   0  0  0  0  0  0  0  0  0  0  0  0
   -1.8177    1.8413   -1.7887 O   0  0  0  0  0  0  0  0  0  0  0  0
   -1.3113   -0.4308   -4.1940 C   0  0  0  0  0  0  0  0  0  0  0  0
   -3.4770    1.5390   -3.2797 H   0  0  0  0  0  0  0  0  0  0  0  0
   -2.5553   -1.1215   -2.5696 H   0  0  0  0  0  0  0  0  0  0  0  0
   -0.9873    0.5141   -4.6426 H   0  0  0  0  0  0  0  0  0  0  0  0
   -0.4236   -0.9790   -3.8625 H   0  0  0  0  0  0  0  0  0  0  0  0
   -1.8182   -1.0262   -4.9597 H   0  0  0  0  0  0  0  0  0  0  0  0
   -0.5360    0.0564   -1.1760 N   0  0  0  0  0  0  0  0  0  0  0  0
    0.1813    0.6142   -0.0175 C   0  0  2  0  0  0  0  0  0  0  0  0
   -0.6229    1.6078    0.8646 C   0  0  0  0  0  0  0  0  0  0  0  0
   -1.7700    1.3314    1.2101 O   0  0  0  0  0  0  0  0  0  0  0  0
    1.4857    1.2150   -0.5887 C   0  0  0  0  0  0  0  0  0  0  0  0
    2.4390    0.1330   -1.0924 C   0  0  0  0  0  0  0  0  0  0  0  0
    2.4019   -1.0000   -0.5487 O   0  5  0  0  0  0  0  0  0  0  0  0
    3.1904    0.4378   -2.0475 O   0  0  0  0  0  0  0  0  0  0  0  0
   -0.2513   -0.8774   -1.4607 H   0  0  0  0  0  0  0  0  0  0  0  0
    0.4319   -0.2049    0.6644 H   0  0  0  0  0  0  0  0  0  0  0  0
    2.0228    1.7632    0.1877 H   0  0  0  0  0  0  0  0  0  0  0  0
    1.2535    1.9134   -1.3983 H   0  0  0  0  0  0  0  0  0  0  0  0
    0.0074    2.6330    1.5500 N   0  0  0  0  0  0  0  0  0  0  0  0
   -0.6900    3.6071    2.3977 C   0  0  2  0  0  0  0  0  0  0  0  0
   -0.1209    5.0323    2.2443 C   0  0  0  0  0  0  0  0  0  0  0  0
    1.0681    5.2114    2.0049 O   0  0  0  0  0  0  0  0  0  0  0  0
   -0.5792    3.1417    3.8514 C   0  0  0  0  0  0  0  0  0  0  0  0
    0.9440    2.8779    1.2312 H   0  0  0  0  0  0  0  0  0  0  0  0
   -1.7466    3.6497    2.1145 H   0  0  0  0  0  0  0  0  0  0  0  0
    0.4707    3.0949    4.1582 H   0  0  0  0  0  0  0  0  0  0  0  0
   -1.1081    3.8318    4.5152 H   0  0  0  0  0  0  0  0  0  0  0  0
   -1.0199    2.1458    3.9636 H   0  0  0  0  0  0  0  0  0  0  0  0
   -0.9478    6.1292    2.4119 N   0  0  0  0  0  0  0  0  0  0  0  0
   -0.4991    7.5032    2.2287 C   0  0  0  0  0  0  0  0  0  0  0  0
   -1.9401    5.9466    2.5276 H   0  0  0  0  0  0  0  0  0  0  0  0
    0.3243    7.7317    2.9133 H   0  0  0  0  0  0  0  0  0  0  0  0
   -0.1578    7.6601    1.2002 H   0  0  0  0  0  0  0  0  0  0  0  0
   -1.3192    8.1983    2.4322 H   0  0  0  0  0  0  0  0  0  0  0  0
  1  2  2  0  0  0  0
  1  3  1  0  0  0  0
  1  7  1  0  0  0  0
  3  4  1  0  0  0  0
  3  5  1  0  0  0  0
  3  6  1  0  0  0  0
  7  8  1  0  0  0  0
  7 12  1  0  0  0  0
  8  9  1  0  0  0  0
  8 11  1  0  0  0  0
  8 13  1  0  0  0  0
  9 10  2  0  0  0  0
  9 17  1  0  0  0  0
 11 14  1  0  0  0  0
 11 15  1  0  0  0  0
 11 16  1  0  0  0  0
 17 18  1  0  0  0  0
 17 25  1  0  0  0  0
 18 19  1  0  0  0  0
 18 21  1  0  0  0  0
 18 26  1  0  0  0  0
 19 20  2  0  0  0  0
 19 29  1  0  0  0  0
 21 22  1  0  0  0  0
 21 27  1  0  0  0  0
 21 28  1  0  0  0  0
 22 23  1  0  0  0  0
 22 24  2  0  0  0  0
 29 30  1  0  0  0  0
 29 34  1  0  0  0  0
 30 31  1  0  0  0  0
 30 33  1  0  0  0  0
 30 35  1  0  0  0  0
 31 32  2  0  0  0  0
 31 39  1  0  0  0  0
 33 36  1  0  0  0  0
 33 37  1  0  0  0  0
 33 38  1  0  0  0  0
 39 40  1  0  0  0  0
 39 41  1  0  0  0  0
 40 42  1  0  0  0  0
 40 43  1  0  0  0  0
 40 44  1  0  0  0  0
M  CHG  1  23  -1
M  END
$$$$

  -OEChem-05262215553D

 44 43  0     1  0  0  0  0  0999 V2000
   -4.5934   -0.0287   -3.9176 C   0  0  0  0  0  0  0  0  0  0  0  0
   -4.6671   -1.2404   -4.0553 O   0  0  0  0  0  0  0  0  0  0  0  0
   -5.8088    0.8388   -4.1899 C   0  0  0  0  0  0  0  0  0  0  0  0
   -5.5932    1.5369   -5.0023 H   0  0  0  0  0  0  0  0  0  0  0  0
   -6.6615    0.2165   -4.4753 H   0  0  0  0  0  0  0  0  0  0  0  0
   -6.0703    1.4051   -3.2924 H   0  0  0  0  0  0  0  0  0  0  0  0
   -3.4190    0.5630   -3.5081 N   0  0  0  0  0  0  0  0  0  0  0  0
   -2.2566   -0.1655   -2.9848 C   0  0  2  0  0  0  0  0  0  0  0  0
   -1.5589    0.6411   -1.8679 C   0  0  0  0  0  0  0  0  0  0  0  0
   -1.8749    1.8162   -1.6945 O   0  0  0  0  0  0  0  0  0  0  0  0
   -1.2895   -0.4376   -4.1417 C   0  0  0  0  0  0  0  0  0  0  0  0
   -3.4608    1.5518   -3.2611 H   0  0  0  0  0  0  0  0  0  0  0  0
   -2.5768   -1.1176   -2.5486 H   0  0  0  0  0  0  0  0  0  0  0  0
   -0.9426    0.5038   -4.5798 H   0  0  0  0  0  0  0  0  0  0  0  0
   -0.4175   -0.9990   -3.7920 H   0  0  0  0  0  0  0  0  0  0  0  0
   -1.7862   -1.0241   -4.9209 H   0  0  0  0  0  0  0  0  0  0  0  0
   -0.5402    0.0489   -1.1438 N   0  0  0  0  0  0  0  0  0  0  0  0
    0.2088    0.6097   -0.0075 C   0  0  2  0  0  0  0  0  0  0  0  0
   -0.5791    1.6113    0.8779 C   0  0  0  0  0  0  0  0  0  0  0  0
   -1.6408    1.2630    1.3904 O   0  0  0  0  0  0  0  0  0  0  0  0
    1.4998    1.2042   -0.6142 C   0  0  0  0  0  0  0  0  0  0  0  0
    2.4368    0.1177   -1.1379 C   0  0  0  0  0  0  0  0  0  0  0  0
    2.4113   -1.0133   -0.5899 O   0  5  0  0  0  0  0  0  0  0  0  0
    3.1556    0.4148   -2.1202 O   0  0  0  0  0  0  0  0  0  0  0  0
   -0.2384   -0.8717   -1.4546 H   0  0  0  0  0  0  0  0  0  0  0  0
    0.4739   -0.2040    0.6754 H   0  0  0  0  0  0  0  0  0  0  0  0
    2.0551    1.7513    0.1508 H   0  0  0  0  0  0  0  0  0  0  0  0
    1.2512    1.9013   -1.4200 H   0  0  0  0  0  0  0  0  0  0  0  0
   -0.0251    2.8083    1.2985 N   0  0  0  0  0  0  0  0  0  0  0  0
   -0.7573    3.8237    2.0638 C   0  0  2  0  0  0  0  0  0  0  0  0
   -0.4196    5.2570    1.6060 C   0  0  0  0  0  0  0  0  0  0  0  0
    0.7077    5.5433    1.2181 O   0  0  0  0  0  0  0  0  0  0  0  0
   -0.4229    3.6434    3.5464 C   0  0  0  0  0  0  0  0  0  0  0  0
    0.8134    3.1108    0.8042 H   0  0  0  0  0  0  0  0  0  0  0  0
   -1.8340    3.6847    1.9211 H   0  0  0  0  0  0  0  0  0  0  0  0
    0.6498    3.7816    3.7152 H   0  0  0  0  0  0  0  0  0  0  0  0
   -0.9698    4.3714    4.1528 H   0  0  0  0  0  0  0  0  0  0  0  0
   -0.7017    2.6379    3.8768 H   0  0  0  0  0  0  0  0  0  0  0  0
   -1.3851    6.2464    1.6660 N   0  0  0  0  0  0  0  0  0  0  0  0
   -1.1659    7.6040    1.1853 C   0  0  0  0  0  0  0  0  0  0  0  0
   -2.3291    5.9542    1.8998 H   0  0  0  0  0  0  0  0  0  0  0  0
   -0.3301    8.0695    1.7181 H   0  0  0  0  0  0  0  0  0  0  0  0
   -0.9427    7.5985    0.1133 H   0  0  0  0  0  0  0  0  0  0  0  0
   -2.0609    8.2111    1.3507 H   0  0  0  0  0  0  0  0  0  0  0  0
  1  2  2  0  0  0  0
  1  3  1  0  0  0  0
  1  7  1  0  0  0  0
  3  4  1  0  0  0  0
  3  5  1  0  0  0  0
  3  6  1  0  0  0  0
  7  8  1  0  0  0  0
  7 12  1  0  0  0  0
  8  9  1  0  0  0  0
  8 11  1  0  0  0  0
  8 13  1  0  0  0  0
  9 10  2  0  0  0  0
  9 17  1  0  0  0  0
 11 14  1  0  0  0  0
 11 15  1  0  0  0  0
 11 16  1  0  0  0  0
 17 18  1  0  0  0  0
 17 25  1  0  0  0  0
 18 19  1  0  0  0  0
 18 21  1  0  0  0  0
 18 26  1  0  0  0  0
 19 20  2  0  0  0  0
 19 29  1  0  0  0  0
 21 22  1  0  0  0  0
 21 27  1  0  0  0  0
 21 28  1  0  0  0  0
 22 23  1  0  0  0  0
 22 24  2  0  0  0  0
 29 30  1  0  0  0  0
 29 34  1  0  0  0  0
 30 31  1  0  0  0  0
 30 33  1  0  0  0  0
 30 35  1  0  0  0  0
 31 32  2  0  0  0  0
 31 39  1  0  0  0  0
 33 36  1  0  0  0  0
 33 37  1  0  0  0  0
 33 38  1  0  0  0  0
 39 40  1  0  0  0  0
 39 41  1  0  0  0  0
 40 42  1  0  0  0  0
 40 43  1  0  0  0  0
 40 44  1  0  0  0  0
M  CHG  1  23  -1
M  END
$$$$

  -OEChem-05262215553D

 44 43  0     1  0  0  0  0  0999 V2000
   -4.5846   -0.0182   -3.9154 C   0  0  0  0  0  0  0  0  0  0  0  0
   -4.6546   -1.2296   -4.0555 O   0  0  0  0  0  0  0  0  0  0  0  0
   -5.7952    0.8491   -4.2085 C   0  0  0  0  0  0  0  0  0  0  0  0
   -5.5719    1.5334   -5.0305 H   0  0  0  0  0  0  0  0  0  0  0  0
   -6.6490    0.2261   -4.4888 H   0  0  0  0  0  0  0  0  0  0  0  0
   -6.0601    1.4305   -3.3220 H   0  0  0  0  0  0  0  0  0  0  0  0
   -3.4174    0.5747   -3.4878 N   0  0  0  0  0  0  0  0  0  0  0  0
   -2.2556   -0.1529   -2.9618 C   0  0  2  0  0  0  0  0  0  0  0  0
   -1.5796    0.6367   -1.8196 C   0  0  0  0  0  0  0  0  0  0  0  0
   -1.9276    1.7966   -1.6091 O   0  0  0  0  0  0  0  0  0  0  0  0
   -1.2718   -0.3933   -4.1118 C   0  0  0  0  0  0  0  0  0  0  0  0
   -3.4643    1.5627   -3.2398 H   0  0  0  0  0  0  0  0  0  0  0  0
   -2.5723   -1.1164   -2.5486 H   0  0  0  0  0  0  0  0  0  0  0  0
   -0.9241    0.5595   -4.5239 H   0  0  0  0  0  0  0  0  0  0  0  0
   -0.4012   -0.9582   -3.7639 H   0  0  0  0  0  0  0  0  0  0  0  0
   -1.7549   -0.9644   -4.9105 H   0  0  0  0  0  0  0  0  0  0  0  0
   -0.5535    0.0444   -1.1058 N   0  0  0  0  0  0  0  0  0  0  0  0
    0.2205    0.6108    0.0106 C   0  0  2  0  0  0  0  0  0  0  0  0
   -0.5446    1.6289    0.8952 C   0  0  0  0  0  0  0  0  0  0  0  0
   -1.4957    1.2468    1.5731 O   0  0  0  0  0  0  0  0  0  0  0  0
    1.4983    1.1995   -0.6281 C   0  0  0  0  0  0  0  0  0  0  0  0
    2.4233    0.1098   -1.1661 C   0  0  0  0  0  0  0  0  0  0  0  0
    2.4101   -1.0179   -0.6118 O   0  5  0  0  0  0  0  0  0  0  0  0
    3.1087    0.3971   -2.1747 O   0  0  0  0  0  0  0  0  0  0  0  0
   -0.2329   -0.8613   -1.4414 H   0  0  0  0  0  0  0  0  0  0  0  0
    0.4979   -0.1970    0.6962 H   0  0  0  0  0  0  0  0  0  0  0  0
    2.0662    1.7521    0.1242 H   0  0  0  0  0  0  0  0  0  0  0  0
    1.2335    1.8918   -1.4334 H   0  0  0  0  0  0  0  0  0  0  0  0
   -0.1164    2.9368    1.0450 N   0  0  0  0  0  0  0  0  0  0  0  0
   -0.8972    3.9758    1.7251 C   0  0  2  0  0  0  0  0  0  0  0  0
   -0.8225    5.3337    0.9979 C   0  0  0  0  0  0  0  0  0  0  0  0
    0.2270    5.7206    0.4954 O   0  0  0  0  0  0  0  0  0  0  0  0
   -0.3778    4.1063    3.1586 C   0  0  0  0  0  0  0  0  0  0  0  0
    0.6017    3.2454    0.3909 H   0  0  0  0  0  0  0  0  0  0  0  0
   -1.9519    3.6838    1.7537 H   0  0  0  0  0  0  0  0  0  0  0  0
    0.6767    4.3997    3.1574 H   0  0  0  0  0  0  0  0  0  0  0  0
   -0.9506    4.8610    3.7054 H   0  0  0  0  0  0  0  0  0  0  0  0
   -0.4734    3.1502    3.6828 H   0  0  0  0  0  0  0  0  0  0  0  0
   -1.9347    6.1560    0.9556 N   0  0  0  0  0  0  0  0  0  0  0  0
   -1.9614    7.4253    0.2414 C   0  0  0  0  0  0  0  0  0  0  0  0
   -2.8098    5.7611    1.2867 H   0  0  0  0  0  0  0  0  0  0  0  0
   -1.1856    8.0968    0.6240 H   0  0  0  0  0  0  0  0  0  0  0  0
   -1.7949    7.2662   -0.8291 H   0  0  0  0  0  0  0  0  0  0  0  0
   -2.9328    7.9109    0.3738 H   0  0  0  0  0  0  0  0  0  0  0  0
  1  2  2  0  0  0  0
  1  3  1  0  0  0  0
  1  7  1  0  0  0  0
  3  4  1  0  0  0  0
  3  5  1  0  0  0  0
  3  6  1  0  0  0  0
  7  8  1  0  0  0  0
  7 12  1  0  0  0  0
  8  9  1  0  0  0  0
  8 11  1  0  0  0  0
  8 13  1  0  0  0  0
  9 10  2  0  0  0  0
  9 17  1  0  0  0  0
 11 14  1  0  0  0  0
 11 15  1  0  0  0  0
 11 16  1  0  0  0  0
 17 18  1  0  0  0  0
 17 25  1  0  0  0  0
 18 19  1  0  0  0  0
 18 21  1  0  0  0  0
 18 26  1  0  0  0  0
 19 20  2  0  0  0  0
 19 29  1  0  0  0  0
 21 22  1  0  0  0  0
 21 27  1  0  0  0  0
 21 28  1  0  0  0  0
 22 23  1  0  0  0  0
 22 24  2  0  0  0  0
 29 30  1  0  0  0  0
 29 34  1  0  0  0  0
 30 31  1  0  0  0  0
 30 33  1  0  0  0  0
 30 35  1  0  0  0  0
 31 32  2  0  0  0  0
 31 39  1  0  0  0  0
 33 36  1  0  0  0  0
 33 37  1  0  0  0  0
 33 38  1  0  0  0  0
 39 40  1  0  0  0  0
 39 41  1  0  0  0  0
 40 42  1  0  0  0  0
 40 43  1  0  0  0  0
 40 44  1  0  0  0  0
M  CHG  1  23  -1
M  END
$$$$

  -OEChem-05262215553D

 44 43  0     1  0  0  0  0  0999 V2000
   -4.5522    0.6484   -4.0424 C   0  0  0  0  0  0  0  0  0  0  0  0
   -4.7825   -0.5435   -4.1766 O   0  0  0  0  0  0  0  0  0  0  0  0
   -5.6038    1.6729   -4.4288 C   0  0  0  0  0  0  0  0  0  0  0  0
   -5.1974    2.3631   -5.1723 H   0  0  0  0  0  0  0  0  0  0  0  0
   -6.4798    1.1743   -4.8528 H   0  0  0  0  0  0  0  0  0  0  0  0
   -5.9132    2.2402   -3.5473 H   0  0  0  0  0  0  0  0  0  0  0  0
   -3.3467    1.0767   -3.5308 N   0  0  0  0  0  0  0  0  0  0  0  0
   -2.3387    0.1994   -2.9204 C   0  0  2  0  0  0  0  0  0  0  0  0
   -1.6384    0.8998   -1.7358 C   0  0  0  0  0  0  0  0  0  0  0  0
   -1.8111    2.1042   -1.5634 O   0  0  0  0  0  0  0  0  0  0  0  0
   -1.3190   -0.1925   -3.9946 C   0  0  0  0  0  0  0  0  0  0  0  0
   -3.2661    2.0674   -3.3054 H   0  0  0  0  0  0  0  0  0  0  0  0
   -2.8169   -0.7049   -2.5291 H   0  0  0  0  0  0  0  0  0  0  0  0
   -0.8148    0.6967   -4.3870 H   0  0  0  0  0  0  0  0  0  0  0  0
   -0.5612   -0.8657   -3.5812 H   0  0  0  0  0  0  0  0  0  0  0  0
   -1.8192   -0.7051   -4.8221 H   0  0  0  0  0  0  0  0  0  0  0  0
   -0.7789    0.1799   -0.9279 N   0  0  0  0  0  0  0  0  0  0  0  0
   -0.0106    0.6533    0.2348 C   0  0  2  0  0  0  0  0  0  0  0  0
   -0.6530    1.8104    1.0428 C   0  0  0  0  0  0  0  0  0  0  0  0
   -1.5749    1.5796    1.8168 O   0  0  0  0  0  0  0  0  0  0  0  0
    1.3806    1.0376   -0.3141 C   0  0  0  0  0  0  0  0  0  0  0  0
    2.1771   -0.1804   -0.7717 C   0  0  0  0  0  0  0  0  0  0  0  0
    1.9661   -1.2843   -0.2112 O   0  5  0  0  0  0  0  0  0  0  0  0
    2.9677   -0.0055   -1.7274 O   0  0  0  0  0  0  0  0  0  0  0  0
   -0.5769   -0.7744   -1.2211 H   0  0  0  0  0  0  0  0  0  0  0  0
    0.0936   -0.1694    0.9507 H   0  0  0  0  0  0  0  0  0  0  0  0
    1.9630    1.5226    0.4735 H   0  0  0  0  0  0  0  0  0  0  0  0
    1.2775    1.7408   -1.1461 H   0  0  0  0  0  0  0  0  0  0  0  0
   -0.1788    3.1075    0.9468 N   0  0  0  0  0  0  0  0  0  0  0  0
   -0.6901    4.2497    1.7212 C   0  0  2  0  0  0  0  0  0  0  0  0
   -1.8237    5.0356    1.0186 C   0  0  0  0  0  0  0  0  0  0  0  0
   -2.1934    6.1175    1.4656 O   0  0  0  0  0  0  0  0  0  0  0  0
    0.5127    5.1505    2.0215 C   0  0  0  0  0  0  0  0  0  0  0  0
    0.5114    3.2731    0.2196 H   0  0  0  0  0  0  0  0  0  0  0  0
   -1.0943    3.8937    2.6746 H   0  0  0  0  0  0  0  0  0  0  0  0
    0.9167    5.5725    1.0961 H   0  0  0  0  0  0  0  0  0  0  0  0
    0.2172    5.9736    2.6795 H   0  0  0  0  0  0  0  0  0  0  0  0
    1.3009    4.5785    2.5206 H   0  0  0  0  0  0  0  0  0  0  0  0
   -2.3953    4.5739   -0.1520 N   0  0  0  0  0  0  0  0  0  0  0  0
   -3.4715    5.2526   -0.8559 C   0  0  0  0  0  0  0  0  0  0  0  0
   -2.1015    3.6471   -0.4781 H   0  0  0  0  0  0  0  0  0  0  0  0
   -4.3579    5.3273   -0.2180 H   0  0  0  0  0  0  0  0  0  0  0  0
   -3.1607    6.2595   -1.1525 H   0  0  0  0  0  0  0  0  0  0  0  0
   -3.7379    4.6928   -1.7574 H   0  0  0  0  0  0  0  0  0  0  0  0
  1  2  2  0  0  0  0
  1  3  1  0  0  0  0
  1  7  1  0  0  0  0
  3  4  1  0  0  0  0
  3  5  1  0  0  0  0
  3  6  1  0  0  0  0
  7  8  1  0  0  0  0
  7 12  1  0  0  0  0
  8  9  1  0  0  0  0
  8 11  1  0  0  0  0
  8 13  1  0  0  0  0
  9 10  2  0  0  0  0
  9 17  1  0  0  0  0
 11 14  1  0  0  0  0
 11 15  1  0  0  0  0
 11 16  1  0  0  0  0
 17 18  1  0  0  0  0
 17 25  1  0  0  0  0
 18 19  1  0  0  0  0
 18 21  1  0  0  0  0
 18 26  1  0  0  0  0
 19 20  2  0  0  0  0
 19 29  1  0  0  0  0
 21 22  1  0  0  0  0
 21 27  1  0  0  0  0
 21 28  1  0  0  0  0
 22 23  1  0  0  0  0
 22 24  2  0  0  0  0
 29 30  1  0  0  0  0
 29 34  1  0  0  0  0
 30 31  1  0  0  0  0
 30 33  1  0  0  0  0
 30 35  1  0  0  0  0
 31 32  2  0  0  0  0
 31 39  1  0  0  0  0
 33 36  1  0  0  0  0
 33 37  1  0  0  0  0
 33 38  1  0  0  0  0
 39 40  1  0  0  0  0
 39 41  1  0  0  0  0
 40 42  1  0  0  0  0
 40 43  1  0  0  0  0
 40 44  1  0  0  0  0
M  CHG  1  23  -1
M  END
$$$$

  -OEChem-05262215553D

 44 43  0     1  0  0  0  0  0999 V2000
   -4.5244    0.5774   -4.1757 C   0  0  0  0  0  0  0  0  0  0  0  0
   -4.8213   -0.6066   -4.2088 O   0  0  0  0  0  0  0  0  0  0  0  0
   -5.4968    1.6193   -4.6978 C   0  0  0  0  0  0  0  0  0  0  0  0
   -5.0274    2.2019   -5.4944 H   0  0  0  0  0  0  0  0  0  0  0  0
   -6.3922    1.1345   -5.0963 H   0  0  0  0  0  0  0  0  0  0  0  0
   -5.7907    2.2927   -3.8888 H   0  0  0  0  0  0  0  0  0  0  0  0
   -3.3143    0.9823   -3.6568 N   0  0  0  0  0  0  0  0  0  0  0  0
   -2.3789    0.1082   -2.9357 C   0  0  2  0  0  0  0  0  0  0  0  0
   -1.6906    0.8667   -1.7801 C   0  0  0  0  0  0  0  0  0  0  0  0
   -1.8336    2.0832   -1.6947 O   0  0  0  0  0  0  0  0  0  0  0  0
   -1.3418   -0.4176   -3.9331 C   0  0  0  0  0  0  0  0  0  0  0  0
   -3.1825    1.9836   -3.5199 H   0  0  0  0  0  0  0  0  0  0  0  0
   -2.9188   -0.7373   -2.4953 H   0  0  0  0  0  0  0  0  0  0  0  0
   -0.7756    0.4113   -4.3701 H   0  0  0  0  0  0  0  0  0  0  0  0
   -0.6383   -1.0950   -3.4385 H   0  0  0  0  0  0  0  0  0  0  0  0
   -1.8376   -0.9666   -4.7399 H   0  0  0  0  0  0  0  0  0  0  0  0
   -0.8790    0.1831   -0.8962 N   0  0  0  0  0  0  0  0  0  0  0  0
   -0.1162    0.7070    0.2500 C   0  0  2  0  0  0  0  0  0  0  0  0
   -0.7052    1.9450    0.9755 C   0  0  0  0  0  0  0  0  0  0  0  0
   -1.4480    1.7942    1.9381 O   0  0  0  0  0  0  0  0  0  0  0  0
    1.2923    1.0088   -0.3034 C   0  0  0  0  0  0  0  0  0  0  0  0
    2.0531   -0.2622   -0.6690 C   0  0  0  0  0  0  0  0  0  0  0  0
    1.7992   -1.3192   -0.0404 O   0  5  0  0  0  0  0  0  0  0  0  0
    2.8432   -0.1820   -1.6379 O   0  0  0  0  0  0  0  0  0  0  0  0
   -0.6947   -0.7931   -1.1223 H   0  0  0  0  0  0  0  0  0  0  0  0
   -0.0512   -0.0720    1.0181 H   0  0  0  0  0  0  0  0  0  0  0  0
    1.8770    1.5286    0.4600 H   0  0  0  0  0  0  0  0  0  0  0  0
    1.2248    1.6588   -1.1808 H   0  0  0  0  0  0  0  0  0  0  0  0
   -0.3804    3.2343    0.5903 N   0  0  0  0  0  0  0  0  0  0  0  0
   -0.8581    4.4527    1.2646 C   0  0  2  0  0  0  0  0  0  0  0  0
   -2.2477    4.9474    0.7958 C   0  0  0  0  0  0  0  0  0  0  0  0
   -2.7303    5.9701    1.2730 O   0  0  0  0  0  0  0  0  0  0  0  0
    0.2083    5.5287    1.0399 C   0  0  0  0  0  0  0  0  0  0  0  0
    0.0775    3.3158   -0.3139 H   0  0  0  0  0  0  0  0  0  0  0  0
   -0.9330    4.2631    2.3407 H   0  0  0  0  0  0  0  0  0  0  0  0
    0.2929    5.7674   -0.0248 H   0  0  0  0  0  0  0  0  0  0  0  0
   -0.0527    6.4430    1.5820 H   0  0  0  0  0  0  0  0  0  0  0  0
    1.1811    5.1806    1.4006 H   0  0  0  0  0  0  0  0  0  0  0  0
   -2.9292    4.3052   -0.2199 N   0  0  0  0  0  0  0  0  0  0  0  0
   -4.2449    4.6977   -0.6983 C   0  0  0  0  0  0  0  0  0  0  0  0
   -2.5004    3.4523   -0.5913 H   0  0  0  0  0  0  0  0  0  0  0  0
   -4.9734    4.6665    0.1184 H   0  0  0  0  0  0  0  0  0  0  0  0
   -4.2150    5.7113   -1.1105 H   0  0  0  0  0  0  0  0  0  0  0  0
   -4.5754    4.0123   -1.4843 H   0  0  0  0  0  0  0  0  0  0  0  0
  1  2  2  0  0  0  0
  1  3  1  0  0  0  0
  1  7  1  0  0  0  0
  3  4  1  0  0  0  0
  3  5  1  0  0  0  0
  3  6  1  0  0  0  0
  7  8  1  0  0  0  0
  7 12  1  0  0  0  0
  8  9  1  0  0  0  0
  8 11  1  0  0  0  0
  8 13  1  0  0  0  0
  9 10  2  0  0  0  0
  9 17  1  0  0  0  0
 11 14  1  0  0  0  0
 11 15  1  0  0  0  0
 11 16  1  0  0  0  0
 17 18  1  0  0  0  0
 17 25  1  0  0  0  0
 18 19  1  0  0  0  0
 18 21  1  0  0  0  0
 18 26  1  0  0  0  0
 19 20  2  0  0  0  0
 19 29  1  0  0  0  0
 21 22  1  0  0  0  0
 21 27  1  0  0  0  0
 21 28  1  0  0  0  0
 22 23  1  0  0  0  0
 22 24  2  0  0  0  0
 29 30  1  0  0  0  0
 29 34  1  0  0  0  0
 30 31  1  0  0  0  0
 30 33  1  0  0  0  0
 30 35  1  0  0  0  0
 31 32  2  0  0  0  0
 31 39  1  0  0  0  0
 33 36  1  0  0  0  0
 33 37  1  0  0  0  0
 33 38  1  0  0  0  0
 39 40  1  0  0  0  0
 39 41  1  0  0  0  0
 40 42  1  0  0  0  0
 40 43  1  0  0  0  0
 40 44  1  0  0  0  0
M  CHG  1  23  -1
M  END
$$$$

  -OEChem-05262215553D

 44 43  0     1  0  0  0  0  0999 V2000
   -4.5599    0.3143   -4.1912 C   0  0  0  0  0  0  0  0  0  0  0  0
   -4.8524   -0.8683   -4.1076 O   0  0  0  0  0  0  0  0  0  0  0  0
   -5.5544    1.3023   -4.7735 C   0  0  0  0  0  0  0  0  0  0  0  0
   -5.1042    1.8314   -5.6172 H   0  0  0  0  0  0  0  0  0  0  0  0
   -6.4482    0.7780   -5.1231 H   0  0  0  0  0  0  0  0  0  0  0  0
   -5.8470    2.0293   -4.0119 H   0  0  0  0  0  0  0  0  0  0  0  0
   -3.3364    0.7685   -3.7490 N   0  0  0  0  0  0  0  0  0  0  0  0
   -2.3855   -0.0303   -2.9630 C   0  0  2  0  0  0  0  0  0  0  0  0
   -1.7595    0.8059   -1.8260 C   0  0  0  0  0  0  0  0  0  0  0  0
   -1.9409    2.0200   -1.8068 O   0  0  0  0  0  0  0  0  0  0  0  0
   -1.2990   -0.5543   -3.9072 C   0  0  0  0  0  0  0  0  0  0  0  0
   -3.2131    1.7788   -3.7029 H   0  0  0  0  0  0  0  0  0  0  0  0
   -2.8981   -0.8797   -2.4984 H   0  0  0  0  0  0  0  0  0  0  0  0
   -0.7576    0.2778   -4.3686 H   0  0  0  0  0  0  0  0  0  0  0  0
   -0.5796   -1.1749   -3.3629 H   0  0  0  0  0  0  0  0  0  0  0  0
   -1.7473   -1.1622   -4.6992 H   0  0  0  0  0  0  0  0  0  0  0  0
   -0.9594    0.1858   -0.8870 N   0  0  0  0  0  0  0  0  0  0  0  0
   -0.2096    0.7603    0.2457 C   0  0  2  0  0  0  0  0  0  0  0  0
   -0.7713    2.0347    0.9296 C   0  0  0  0  0  0  0  0  0  0  0  0
   -1.2904    1.9527    2.0362 O   0  0  0  0  0  0  0  0  0  0  0  0
    1.1966    1.0427   -0.3216 C   0  0  0  0  0  0  0  0  0  0  0  0
    1.9612   -0.2404   -0.6335 C   0  0  0  0  0  0  0  0  0  0  0  0
    1.7114   -1.2703    0.0401 O   0  5  0  0  0  0  0  0  0  0  0  0
    2.7313   -0.2058   -1.6213 O   0  0  0  0  0  0  0  0  0  0  0  0
   -0.7462   -0.7936   -1.0729 H   0  0  0  0  0  0  0  0  0  0  0  0
   -0.1454    0.0097    1.0416 H   0  0  0  0  0  0  0  0  0  0  0  0
    1.7793    1.5989    0.4176 H   0  0  0  0  0  0  0  0  0  0  0  0
    1.1264    1.6559   -1.2249 H   0  0  0  0  0  0  0  0  0  0  0  0
   -0.6782    3.2822    0.3386 N   0  0  0  0  0  0  0  0  0  0  0  0
   -1.1970    4.5254    0.9337 C   0  0  2  0  0  0  0  0  0  0  0  0
   -2.6748    4.8277    0.5907 C   0  0  0  0  0  0  0  0  0  0  0  0
   -3.2247    5.8229    1.0522 O   0  0  0  0  0  0  0  0  0  0  0  0
   -0.2852    5.6588    0.4563 C   0  0  0  0  0  0  0  0  0  0  0  0
   -0.5040    3.2566   -0.6654 H   0  0  0  0  0  0  0  0  0  0  0  0
   -1.1259    4.4655    2.0250 H   0  0  0  0  0  0  0  0  0  0  0  0
   -0.3554    5.7758   -0.6296 H   0  0  0  0  0  0  0  0  0  0  0  0
   -0.5738    6.6032    0.9281 H   0  0  0  0  0  0  0  0  0  0  0  0
    0.7552    5.4451    0.7199 H   0  0  0  0  0  0  0  0  0  0  0  0
   -3.3668    4.0472   -0.3160 N   0  0  0  0  0  0  0  0  0  0  0  0
   -4.7436    4.2845   -0.7180 C   0  0  0  0  0  0  0  0  0  0  0  0
   -2.8626    3.2489   -0.7113 H   0  0  0  0  0  0  0  0  0  0  0  0
   -5.4092    4.2335    0.1495 H   0  0  0  0  0  0  0  0  0  0  0  0
   -4.8408    5.2702   -1.1842 H   0  0  0  0  0  0  0  0  0  0  0  0
   -5.0577    3.5259   -1.4409 H   0  0  0  0  0  0  0  0  0  0  0  0
  1  2  2  0  0  0  0
  1  3  1  0  0  0  0
  1  7  1  0  0  0  0
  3  4  1  0  0  0  0
  3  5  1  0  0  0  0
  3  6  1  0  0  0  0
  7  8  1  0  0  0  0
  7 12  1  0  0  0  0
  8  9  1  0  0  0  0
  8 11  1  0  0  0  0
  8 13  1  0  0  0  0
  9 10  2  0  0  0  0
  9 17  1  0  0  0  0
 11 14  1  0  0  0  0
 11 15  1  0  0  0  0
 11 16  1  0  0  0  0
 17 18  1  0  0  0  0
 17 25  1  0  0  0  0
 18 19  1  0  0  0  0
 18 21  1  0  0  0  0
 18 26  1  0  0  0  0
 19 20  2  0  0  0  0
 19 29  1  0  0  0  0
 21 22  1  0  0  0  0
 21 27  1  0  0  0  0
 21 28  1  0  0  0  0
 22 23  1  0  0  0  0
 22 24  2  0  0  0  0
 29 30  1  0  0  0  0
 29 34  1  0  0  0  0
 30 31  1  0  0  0  0
 30 33  1  0  0  0  0
 30 35  1  0  0  0  0
 31 32  2  0  0  0  0
 31 39  1  0  0  0  0
 33 36  1  0  0  0  0
 33 37  1  0  0  0  0
 33 38  1  0  0  0  0
 39 40  1  0  0  0  0
 39 41  1  0  0  0  0
 40 42  1  0  0  0  0
 40 43  1  0  0  0  0
 40 44  1  0  0  0  0
M  CHG  1  23  -1
M  END
$$$$

  -OEChem-05262215553D

 44 43  0     1  0  0  0  0  0999 V2000
   -4.5760    0.1134   -4.2240 C   0  0  0  0  0  0  0  0  0  0  0  0
   -4.8493   -1.0637   -4.0504 O   0  0  0  0  0  0  0  0  0  0  0  0
   -5.6141    1.0538   -4.8085 C   0  0  0  0  0  0  0  0  0  0  0  0
   -5.2410    1.4877   -5.7394 H   0  0  0  0  0  0  0  0  0  0  0  0
   -6.5406    0.5120   -5.0181 H   0  0  0  0  0  0  0  0  0  0  0  0
   -5.8291    1.8580   -4.1002 H   0  0  0  0  0  0  0  0  0  0  0  0
   -3.3372    0.6085   -3.8784 N   0  0  0  0  0  0  0  0  0  0  0  0
   -2.3480   -0.1178   -3.0686 C   0  0  2  0  0  0  0  0  0  0  0  0
   -1.8140    0.7597   -1.9156 C   0  0  0  0  0  0  0  0  0  0  0  0
   -2.0717    1.9596   -1.9123 O   0  0  0  0  0  0  0  0  0  0  0  0
   -1.2029   -0.5497   -3.9895 C   0  0  0  0  0  0  0  0  0  0  0  0
   -3.2388    1.6221   -3.8917 H   0  0  0  0  0  0  0  0  0  0  0  0
   -2.7999   -1.0086   -2.6185 H   0  0  0  0  0  0  0  0  0  0  0  0
   -0.7173    0.3250   -4.4340 H   0  0  0  0  0  0  0  0  0  0  0  0
   -0.4499   -1.1159   -3.4312 H   0  0  0  0  0  0  0  0  0  0  0  0
   -1.5843   -1.1854   -4.7946 H   0  0  0  0  0  0  0  0  0  0  0  0
   -1.0210    0.1825   -0.9432 N   0  0  0  0  0  0  0  0  0  0  0  0
   -0.2841    0.7706    0.1949 C   0  0  2  0  0  0  0  0  0  0  0  0
   -0.8168    2.0551    0.8873 C   0  0  0  0  0  0  0  0  0  0  0  0
   -1.1114    2.0205    2.0758 O   0  0  0  0  0  0  0  0  0  0  0  0
    1.1197    1.0540   -0.3761 C   0  0  0  0  0  0  0  0  0  0  0  0
    1.8893   -0.2289   -0.6779 C   0  0  0  0  0  0  0  0  0  0  0  0
    1.6445   -1.2543    0.0043 O   0  5  0  0  0  0  0  0  0  0  0  0
    2.6469   -0.2031   -1.6756 O   0  0  0  0  0  0  0  0  0  0  0  0
   -0.7675   -0.7885   -1.1257 H   0  0  0  0  0  0  0  0  0  0  0  0
   -0.2202    0.0205    0.9915 H   0  0  0  0  0  0  0  0  0  0  0  0
    1.7014    1.6159    0.3596 H   0  0  0  0  0  0  0  0  0  0  0  0
    1.0469    1.6637   -1.2817 H   0  0  0  0  0  0  0  0  0  0  0  0
   -0.9852    3.2490    0.2105 N   0  0  0  0  0  0  0  0  0  0  0  0
   -1.6041    4.4541    0.7884 C   0  0  2  0  0  0  0  0  0  0  0  0
   -3.1363    4.5240    0.5905 C   0  0  0  0  0  0  0  0  0  0  0  0
   -3.7854    5.4334    1.0973 O   0  0  0  0  0  0  0  0  0  0  0  0
   -0.9187    5.6605    0.1420 C   0  0  0  0  0  0  0  0  0  0  0  0
   -0.9843    3.1483   -0.8062 H   0  0  0  0  0  0  0  0  0  0  0  0
   -1.4142    4.4891    1.8663 H   0  0  0  0  0  0  0  0  0  0  0  0
   -1.1054    5.6754   -0.9364 H   0  0  0  0  0  0  0  0  0  0  0  0
   -1.2987    6.5911    0.5751 H   0  0  0  0  0  0  0  0  0  0  0  0
    0.1619    5.6170    0.3107 H   0  0  0  0  0  0  0  0  0  0  0  0
   -3.7823    3.6295   -0.2427 N   0  0  0  0  0  0  0  0  0  0  0  0
   -5.2083    3.6580   -0.5259 C   0  0  0  0  0  0  0  0  0  0  0  0
   -3.1955    2.9322   -0.7070 H   0  0  0  0  0  0  0  0  0  0  0  0
   -5.7840    3.5753    0.4016 H   0  0  0  0  0  0  0  0  0  0  0  0
   -5.4798    4.5909   -1.0300 H   0  0  0  0  0  0  0  0  0  0  0  0
   -5.4773    2.8201   -1.1761 H   0  0  0  0  0  0  0  0  0  0  0  0
  1  2  2  0  0  0  0
  1  3  1  0  0  0  0
  1  7  1  0  0  0  0
  3  4  1  0  0  0  0
  3  5  1  0  0  0  0
  3  6  1  0  0  0  0
  7  8  1  0  0  0  0
  7 12  1  0  0  0  0
  8  9  1  0  0  0  0
  8 11  1  0  0  0  0
  8 13  1  0  0  0  0
  9 10  2  0  0  0  0
  9 17  1  0  0  0  0
 11 14  1  0  0  0  0
 11 15  1  0  0  0  0
 11 16  1  0  0  0  0
 17 18  1  0  0  0  0
 17 25  1  0  0  0  0
 18 19  1  0  0  0  0
 18 21  1  0  0  0  0
 18 26  1  0  0  0  0
 19 20  2  0  0  0  0
 19 29  1  0  0  0  0
 21 22  1  0  0  0  0
 21 27  1  0  0  0  0
 21 28  1  0  0  0  0
 22 23  1  0  0  0  0
 22 24  2  0  0  0  0
 29 30  1  0  0  0  0
 29 34  1  0  0  0  0
 30 31  1  0  0  0  0
 30 33  1  0  0  0  0
 30 35  1  0  0  0  0
 31 32  2  0  0  0  0
 31 39  1  0  0  0  0
 33 36  1  0  0  0  0
 33 37  1  0  0  0  0
 33 38  1  0  0  0  0
 39 40  1  0  0  0  0
 39 41  1  0  0  0  0
 40 42  1  0  0  0  0
 40 43  1  0  0  0  0
 40 44  1  0  0  0  0
M  CHG  1  23  -1
M  END
$$$$

  -OEChem-05262215553D

 44 43  0     1  0  0  0  0  0999 V2000
   -4.5600   -0.2439   -4.3063 C   0  0  0  0  0  0  0  0  0  0  0  0
   -4.7304   -1.4396   -4.1284 O   0  0  0  0  0  0  0  0  0  0  0  0
   -5.6382    0.5806   -4.9854 C   0  0  0  0  0  0  0  0  0  0  0  0
   -5.2272    1.0775   -5.8676 H   0  0  0  0  0  0  0  0  0  0  0  0
   -6.4658   -0.0626   -5.2975 H   0  0  0  0  0  0  0  0  0  0  0  0
   -6.0195    1.3367   -4.2945 H   0  0  0  0  0  0  0  0  0  0  0  0
   -3.4018    0.3724   -3.8839 N   0  0  0  0  0  0  0  0  0  0  0  0
   -2.3827   -0.2606   -3.0337 C   0  0  2  0  0  0  0  0  0  0  0  0
   -1.9113    0.6851   -1.9077 C   0  0  0  0  0  0  0  0  0  0  0  0
   -2.2765    1.8562   -1.9263 O   0  0  0  0  0  0  0  0  0  0  0  0
   -1.2031   -0.6646   -3.9233 C   0  0  0  0  0  0  0  0  0  0  0  0
   -3.3878    1.3901   -3.9174 H   0  0  0  0  0  0  0  0  0  0  0  0
   -2.7917   -1.1565   -2.5543 H   0  0  0  0  0  0  0  0  0  0  0  0
   -0.7613    0.2169   -4.3988 H   0  0  0  0  0  0  0  0  0  0  0  0
   -0.4265   -1.1639   -3.3344 H   0  0  0  0  0  0  0  0  0  0  0  0
   -1.5378   -1.3535   -4.7051 H   0  0  0  0  0  0  0  0  0  0  0  0
   -1.0796    0.1832   -0.9245 N   0  0  0  0  0  0  0  0  0  0  0  0
   -0.3234    0.8202    0.1772 C   0  0  2  0  0  0  0  0  0  0  0  0
   -0.8237    2.1196    0.8688 C   0  0  0  0  0  0  0  0  0  0  0  0
   -0.8547    2.1665    2.0922 O   0  0  0  0  0  0  0  0  0  0  0  0
    1.0524    1.1094   -0.4563 C   0  0  0  0  0  0  0  0  0  0  0  0
    1.8335   -0.1688   -0.7473 C   0  0  0  0  0  0  0  0  0  0  0  0
    1.6340   -1.1758   -0.0244 O   0  5  0  0  0  0  0  0  0  0  0  0
    2.5349   -0.1677   -1.7856 O   0  0  0  0  0  0  0  0  0  0  0  0
   -0.7767   -0.7759   -1.0968 H   0  0  0  0  0  0  0  0  0  0  0  0
   -0.2194    0.0901    0.9879 H   0  0  0  0  0  0  0  0  0  0  0  0
    1.6525    1.7026    0.2389 H   0  0  0  0  0  0  0  0  0  0  0  0
    0.9345    1.6909   -1.3756 H   0  0  0  0  0  0  0  0  0  0  0  0
   -1.3040    3.2126    0.1738 N   0  0  0  0  0  0  0  0  0  0  0  0
   -2.0083    4.3577    0.7744 C   0  0  2  0  0  0  0  0  0  0  0  0
   -3.5466    4.2477    0.6681 C   0  0  0  0  0  0  0  0  0  0  0  0
   -4.2677    5.0663    1.2290 O   0  0  0  0  0  0  0  0  0  0  0  0
   -1.5039    5.6158    0.0643 C   0  0  0  0  0  0  0  0  0  0  0  0
   -1.4193    3.0516   -0.8287 H   0  0  0  0  0  0  0  0  0  0  0  0
   -1.7612    4.4417    1.8380 H   0  0  0  0  0  0  0  0  0  0  0  0
   -1.7615    5.5859   -0.9991 H   0  0  0  0  0  0  0  0  0  0  0  0
   -1.9543    6.5091    0.5081 H   0  0  0  0  0  0  0  0  0  0  0  0
   -0.4164    5.6933    0.1598 H   0  0  0  0  0  0  0  0  0  0  0  0
   -4.1295    3.2848   -0.1361 N   0  0  0  0  0  0  0  0  0  0  0  0
   -5.5640    3.1352   -0.3228 C   0  0  0  0  0  0  0  0  0  0  0  0
   -3.4936    2.6722   -0.6518 H   0  0  0  0  0  0  0  0  0  0  0  0
   -6.0597    2.9739    0.6399 H   0  0  0  0  0  0  0  0  0  0  0  0
   -5.9846    4.0296   -0.7934 H   0  0  0  0  0  0  0  0  0  0  0  0
   -5.7699    2.2743   -0.9657 H   0  0  0  0  0  0  0  0  0  0  0  0
  1  2  2  0  0  0  0
  1  3  1  0  0  0  0
  1  7  1  0  0  0  0
  3  4  1  0  0  0  0
  3  5  1  0  0  0  0
  3  6  1  0  0  0  0
  7  8  1  0  0  0  0
  7 12  1  0  0  0  0
  8  9  1  0  0  0  0
  8 11  1  0  0  0  0
  8 13  1  0  0  0  0
  9 10  2  0  0  0  0
  9 17  1  0  0  0  0
 11 14  1  0  0  0  0
 11 15  1  0  0  0  0
 11 16  1  0  0  0  0
 17 18  1  0  0  0  0
 17 25  1  0  0  0  0
 18 19  1  0  0  0  0
 18 21  1  0  0  0  0
 18 26  1  0  0  0  0
 19 20  2  0  0  0  0
 19 29  1  0  0  0  0
 21 22  1  0  0  0  0
 21 27  1  0  0  0  0
 21 28  1  0  0  0  0
 22 23  1  0  0  0  0
 22 24  2  0  0  0  0
 29 30  1  0  0  0  0
 29 34  1  0  0  0  0
 30 31  1  0  0  0  0
 30 33  1  0  0  0  0
 30 35  1  0  0  0  0
 31 32  2  0  0  0  0
 31 39  1  0  0  0  0
 33 36  1  0  0  0  0
 33 37  1  0  0  0  0
 33 38  1  0  0  0  0
 39 40  1  0  0  0  0
 39 41  1  0  0  0  0
 40 42  1  0  0  0  0
 40 43  1  0  0  0  0
 40 44  1  0  0  0  0
M  CHG  1  23  -1
M  END
$$$$

  -OEChem-05262215553D

 44 43  0     1  0  0  0  0  0999 V2000
   -4.7017    0.4640   -3.7225 C   0  0  0  0  0  0  0  0  0  0  0  0
   -4.7521   -0.7027   -4.0836 O   0  0  0  0  0  0  0  0  0  0  0  0
   -5.9707    1.2950   -3.6720 C   0  0  0  0  0  0  0  0  0  0  0  0
   -5.8117    2.2491   -4.1807 H   0  0  0  0  0  0  0  0  0  0  0  0
   -6.7912    0.7652   -4.1629 H   0  0  0  0  0  0  0  0  0  0  0  0
   -6.2470    1.4918   -2.6337 H   0  0  0  0  0  0  0  0  0  0  0  0
   -3.4983    1.0290   -3.3617 N   0  0  0  0  0  0  0  0  0  0  0  0
   -2.2133    0.3135   -3.3205 C   0  0  2  0  0  0  0  0  0  0  0  0
   -1.2595    0.9763   -2.3062 C   0  0  0  0  0  0  0  0  0  0  0  0
   -0.8897    2.1267   -2.5041 O   0  0  0  0  0  0  0  0  0  0  0  0
   -1.6001    0.2951   -4.7253 C   0  0  0  0  0  0  0  0  0  0  0  0
   -3.5439    1.9664   -2.9506 H   0  0  0  0  0  0  0  0  0  0  0  0
   -2.3792   -0.7202   -2.9994 H   0  0  0  0  0  0  0  0  0  0  0  0
   -1.4438    1.3152   -5.0902 H   0  0  0  0  0  0  0  0  0  0  0  0
   -0.6355   -0.2216   -4.7117 H   0  0  0  0  0  0  0  0  0  0  0  0
   -2.2626   -0.2265   -5.4228 H   0  0  0  0  0  0  0  0  0  0  0  0
   -0.9028    0.2901   -1.1585 N   0  0  0  0  0  0  0  0  0  0  0  0
   -0.4761    0.7642    0.1800 C   0  0  2  0  0  0  0  0  0  0  0  0
   -1.0020    2.1220    0.7291 C   0  0  0  0  0  0  0  0  0  0  0  0
   -1.5124    2.1284    1.8468 O   0  0  0  0  0  0  0  0  0  0  0  0
    1.0629    0.7810    0.1513 C   0  0  0  0  0  0  0  0  0  0  0  0
    1.6539   -0.6264    0.0917 C   0  0  0  0  0  0  0  0  0  0  0  0
    1.0049   -1.5727    0.6068 O   0  5  0  0  0  0  0  0  0  0  0  0
    2.7568   -0.7551   -0.4894 O   0  0  0  0  0  0  0  0  0  0  0  0
   -1.0665   -0.7137   -1.1994 H   0  0  0  0  0  0  0  0  0  0  0  0
   -0.8123    0.0233    0.9142 H   0  0  0  0  0  0  0  0  0  0  0  0
    1.4380    1.2548    1.0624 H   0  0  0  0  0  0  0  0  0  0  0  0
    1.4167    1.3657   -0.7031 H   0  0  0  0  0  0  0  0  0  0  0  0
   -1.3308    3.1899   -0.0822 N   0  0  0  0  0  0  0  0  0  0  0  0
   -2.5808    3.9433    0.0633 C   0  0  2  0  0  0  0  0  0  0  0  0
   -3.7878    3.0525   -0.3199 C   0  0  0  0  0  0  0  0  0  0  0  0
   -4.3453    3.1394   -1.4121 O   0  0  0  0  0  0  0  0  0  0  0  0
   -2.4662    5.1959   -0.8116 C   0  0  0  0  0  0  0  0  0  0  0  0
   -0.9919    3.0765   -1.0414 H   0  0  0  0  0  0  0  0  0  0  0  0
   -2.7101    4.2650    1.1018 H   0  0  0  0  0  0  0  0  0  0  0  0
   -2.3016    4.9206   -1.8587 H   0  0  0  0  0  0  0  0  0  0  0  0
   -3.3827    5.7901   -0.7467 H   0  0  0  0  0  0  0  0  0  0  0  0
   -1.6265    5.8137   -0.4788 H   0  0  0  0  0  0  0  0  0  0  0  0
   -4.1626    2.0453    0.5482 N   0  0  0  0  0  0  0  0  0  0  0  0
   -5.0773    0.9707    0.1922 C   0  0  0  0  0  0  0  0  0  0  0  0
   -3.5212    1.8974    1.3331 H   0  0  0  0  0  0  0  0  0  0  0  0
   -6.0453    1.3769   -0.1178 H   0  0  0  0  0  0  0  0  0  0  0  0
   -4.6637    0.3709   -0.6248 H   0  0  0  0  0  0  0  0  0  0  0  0
   -5.2396    0.3164    1.0541 H   0  0  0  0  0  0  0  0  0  0  0  0
  1  2  2  0  0  0  0
  1  3  1  0  0  0  0
  1  7  1  0  0  0  0
  3  4  1  0  0  0  0
  3  5  1  0  0  0  0
  3  6  1  0  0  0  0
  7  8  1  0  0  0  0
  7 12  1  0  0  0  0
  8  9  1  0  0  0  0
  8 11  1  0  0  0  0
  8 13  1  0  0  0  0
  9 10  2  0  0  0  0
  9 17  1  0  0  0  0
 11 14  1  0  0  0  0
 11 15  1  0  0  0  0
 11 16  1  0  0  0  0
 17 18  1  0  0  0  0
 17 25  1  0  0  0  0
 18 19  1  0  0  0  0
 18 21  1  0  0  0  0
 18 26  1  0  0  0  0
 19 20  2  0  0  0  0
 19 29  1  0  0  0  0
 21 22  1  0  0  0  0
 21 27  1  0  0  0  0
 21 28  1  0  0  0  0
 22 23  1  0  0  0  0
 22 24  2  0  0  0  0
 29 30  1  0  0  0  0
 29 34  1  0  0  0  0
 30 31  1  0  0  0  0
 30 33  1  0  0  0  0
 30 35  1  0  0  0  0
 31 32  2  0  0  0  0
 31 39  1  0  0  0  0
 33 36  1  0  0  0  0
 33 37  1  0  0  0  0
 33 38  1  0  0  0  0
 39 40  1  0  0  0  0
 39 41  1  0  0  0  0
 40 42  1  0  0  0  0
 40 43  1  0  0  0  0
 40 44  1  0  0  0  0
M  CHG  1  23  -1
M  END
$$$$

  -OEChem-05262215553D

 44 43  0     1  0  0  0  0  0999 V2000
   -4.3961   -0.2015   -3.5863 C   0  0  0  0  0  0  0  0  0  0  0  0
   -4.1035   -1.1354   -4.3170 O   0  0  0  0  0  0  0  0  0  0  0  0
   -5.8362   -0.0141   -3.1457 C   0  0  0  0  0  0  0  0  0  0  0  0
   -6.0627    1.0499   -3.0370 H   0  0  0  0  0  0  0  0  0  0  0  0
   -6.5147   -0.4426   -3.8880 H   0  0  0  0  0  0  0  0  0  0  0  0
   -5.9980   -0.5109   -2.1865 H   0  0  0  0  0  0  0  0  0  0  0  0
   -3.4263    0.6807   -3.1624 N   0  0  0  0  0  0  0  0  0  0  0  0
   -2.0094    0.6256   -3.5581 C   0  0  2  0  0  0  0  0  0  0  0  0
   -1.1078    1.1119   -2.4027 C   0  0  0  0  0  0  0  0  0  0  0  0
   -0.5876    2.2202   -2.4438 O   0  0  0  0  0  0  0  0  0  0  0  0
   -1.8399    1.4480   -4.8426 C   0  0  0  0  0  0  0  0  0  0  0  0
   -3.7454    1.4641   -2.5824 H   0  0  0  0  0  0  0  0  0  0  0  0
   -1.7172   -0.4081   -3.7730 H   0  0  0  0  0  0  0  0  0  0  0  0
   -2.1452    2.4864   -4.6788 H   0  0  0  0  0  0  0  0  0  0  0  0
   -0.7939    1.4386   -5.1640 H   0  0  0  0  0  0  0  0  0  0  0  0
   -2.4521    1.0269   -5.6458 H   0  0  0  0  0  0  0  0  0  0  0  0
   -0.9861    0.3117   -1.2810 N   0  0  0  0  0  0  0  0  0  0  0  0
   -0.6944    0.6429    0.1344 C   0  0  2  0  0  0  0  0  0  0  0  0
   -1.1372    2.0124    0.7276 C   0  0  0  0  0  0  0  0  0  0  0  0
   -1.5663    2.0255    1.8791 O   0  0  0  0  0  0  0  0  0  0  0  0
    0.8243    0.4616    0.3096 C   0  0  0  0  0  0  0  0  0  0  0  0
    1.2452   -1.0044    0.2187 C   0  0  0  0  0  0  0  0  0  0  0  0
    0.4222   -1.8893    0.5686 O   0  5  0  0  0  0  0  0  0  0  0  0
    2.3984   -1.2381   -0.2135 O   0  0  0  0  0  0  0  0  0  0  0  0
   -1.2871   -0.6509   -1.4222 H   0  0  0  0  0  0  0  0  0  0  0  0
   -1.2151   -0.0962    0.7534 H   0  0  0  0  0  0  0  0  0  0  0  0
    1.1223    0.8258    1.2964 H   0  0  0  0  0  0  0  0  0  0  0  0
    1.3610    1.0473   -0.4425 H   0  0  0  0  0  0  0  0  0  0  0  0
   -1.5271    3.0811   -0.0556 N   0  0  0  0  0  0  0  0  0  0  0  0
   -2.8256    3.7401    0.1154 C   0  0  2  0  0  0  0  0  0  0  0  0
   -3.9755    2.7399   -0.1588 C   0  0  0  0  0  0  0  0  0  0  0  0
   -4.5097    2.6477   -1.2624 O   0  0  0  0  0  0  0  0  0  0  0  0
   -2.8568    4.9453   -0.8301 C   0  0  0  0  0  0  0  0  0  0  0  0
   -1.1776    3.0207   -1.0146 H   0  0  0  0  0  0  0  0  0  0  0  0
   -2.9268    4.1075    1.1421 H   0  0  0  0  0  0  0  0  0  0  0  0
   -2.7255    4.6244   -1.8690 H   0  0  0  0  0  0  0  0  0  0  0  0
   -3.8130    5.4705   -0.7453 H   0  0  0  0  0  0  0  0  0  0  0  0
   -2.0525    5.6434   -0.5789 H   0  0  0  0  0  0  0  0  0  0  0  0
   -4.2965    1.8199    0.8200 N   0  0  0  0  0  0  0  0  0  0  0  0
   -5.1112    0.6399    0.5706 C   0  0  0  0  0  0  0  0  0  0  0  0
   -3.6300    1.7847    1.5974 H   0  0  0  0  0  0  0  0  0  0  0  0
   -6.0804    0.9223    0.1472 H   0  0  0  0  0  0  0  0  0  0  0  0
   -4.6011   -0.0346   -0.1247 H   0  0  0  0  0  0  0  0  0  0  0  0
   -5.2891    0.1035    1.5075 H   0  0  0  0  0  0  0  0  0  0  0  0
  1  2  2  0  0  0  0
  1  3  1  0  0  0  0
  1  7  1  0  0  0  0
  3  4  1  0  0  0  0
  3  5  1  0  0  0  0
  3  6  1  0  0  0  0
  7  8  1  0  0  0  0
  7 12  1  0  0  0  0
  8  9  1  0  0  0  0
  8 11  1  0  0  0  0
  8 13  1  0  0  0  0
  9 10  2  0  0  0  0
  9 17  1  0  0  0  0
 11 14  1  0  0  0  0
 11 15  1  0  0  0  0
 11 16  1  0  0  0  0
 17 18  1  0  0  0  0
 17 25  1  0  0  0  0
 18 19  1  0  0  0  0
 18 21  1  0  0  0  0
 18 26  1  0  0  0  0
 19 20  2  0  0  0  0
 19 29  1  0  0  0  0
 21 22  1  0  0  0  0
 21 27  1  0  0  0  0
 21 28  1  0  0  0  0
 22 23  1  0  0  0  0
 22 24  2  0  0  0  0
 29 30  1  0  0  0  0
 29 34  1  0  0  0  0
 30 31  1  0  0  0  0
 30 33  1  0  0  0  0
 30 35  1  0  0  0  0
 31 32  2  0  0  0  0
 31 39  1  0  0  0  0
 33 36  1  0  0  0  0
 33 37  1  0  0  0  0
 33 38  1  0  0  0  0
 39 40  1  0  0  0  0
 39 41  1  0  0  0  0
 40 42  1  0  0  0  0
 40 43  1  0  0  0  0
 40 44  1  0  0  0  0
M  CHG  1  23  -1
M  END
$$$$

  -OEChem-05262215553D

 44 43  0     1  0  0  0  0  0999 V2000
   -4.3800   -0.6020   -3.8273 C   0  0  0  0  0  0  0  0  0  0  0  0
   -4.3010   -1.8139   -3.6909 O   0  0  0  0  0  0  0  0  0  0  0  0
   -5.7384    0.0748   -3.8200 C   0  0  0  0  0  0  0  0  0  0  0  0
   -5.9085    0.5827   -4.7721 H   0  0  0  0  0  0  0  0  0  0  0  0
   -6.5293   -0.6643   -3.6663 H   0  0  0  0  0  0  0  0  0  0  0  0
   -5.7819    0.8091   -3.0106 H   0  0  0  0  0  0  0  0  0  0  0  0
   -3.2452    0.1660   -3.9806 N   0  0  0  0  0  0  0  0  0  0  0  0
   -1.9045   -0.2859   -3.5807 C   0  0  2  0  0  0  0  0  0  0  0  0
   -1.3893    0.5820   -2.4159 C   0  0  0  0  0  0  0  0  0  0  0  0
   -1.7639    1.7476   -2.3492 O   0  0  0  0  0  0  0  0  0  0  0  0
   -0.9705   -0.1803   -4.7870 C   0  0  0  0  0  0  0  0  0  0  0  0
   -3.3976    1.1707   -3.8948 H   0  0  0  0  0  0  0  0  0  0  0  0
   -1.9263   -1.3270   -3.2417 H   0  0  0  0  0  0  0  0  0  0  0  0
   -0.9164    0.8541   -5.1414 H   0  0  0  0  0  0  0  0  0  0  0  0
    0.0388   -0.5079   -4.5172 H   0  0  0  0  0  0  0  0  0  0  0  0
   -1.3344   -0.8122   -5.6030 H   0  0  0  0  0  0  0  0  0  0  0  0
   -0.5288    0.0420   -1.4791 N   0  0  0  0  0  0  0  0  0  0  0  0
   -0.0762    0.5506   -0.1644 C   0  0  2  0  0  0  0  0  0  0  0  0
   -1.0023    1.4619    0.6972 C   0  0  0  0  0  0  0  0  0  0  0  0
   -0.6808    1.7324    1.8505 O   0  0  0  0  0  0  0  0  0  0  0  0
    1.2569    1.2635   -0.4704 C   0  0  0  0  0  0  0  0  0  0  0  0
    2.3552    0.2789   -0.8694 C   0  0  0  0  0  0  0  0  0  0  0  0
    2.3128   -0.8914   -0.4101 O   0  5  0  0  0  0  0  0  0  0  0  0
    3.2051    0.6841   -1.6975 O   0  0  0  0  0  0  0  0  0  0  0  0
   -0.1220   -0.8561   -1.7347 H   0  0  0  0  0  0  0  0  0  0  0  0
    0.1108   -0.3135    0.4821 H   0  0  0  0  0  0  0  0  0  0  0  0
    1.6032    1.7910    0.4219 H   0  0  0  0  0  0  0  0  0  0  0  0
    1.1148    2.0041   -1.2629 H   0  0  0  0  0  0  0  0  0  0  0  0
   -2.2703    1.8470    0.3075 N   0  0  0  0  0  0  0  0  0  0  0  0
   -3.2305    2.6071    1.1112 C   0  0  2  0  0  0  0  0  0  0  0  0
   -4.6919    2.2832    0.7309 C   0  0  0  0  0  0  0  0  0  0  0  0
   -5.0043    1.9686   -0.4141 O   0  0  0  0  0  0  0  0  0  0  0  0
   -2.9465    4.0989    0.9193 C   0  0  0  0  0  0  0  0  0  0  0  0
   -2.4603    1.7666   -0.6942 H   0  0  0  0  0  0  0  0  0  0  0  0
   -3.1025    2.3510    2.1675 H   0  0  0  0  0  0  0  0  0  0  0  0
   -3.0559    4.3750   -0.1345 H   0  0  0  0  0  0  0  0  0  0  0  0
   -3.6402    4.7008    1.5134 H   0  0  0  0  0  0  0  0  0  0  0  0
   -1.9252    4.3335    1.2359 H   0  0  0  0  0  0  0  0  0  0  0  0
   -5.6827    2.3651    1.6937 N   0  0  0  0  0  0  0  0  0  0  0  0
   -7.0740    2.0144    1.4424 C   0  0  0  0  0  0  0  0  0  0  0  0
   -5.3887    2.5649    2.6450 H   0  0  0  0  0  0  0  0  0  0  0  0
   -7.4936    2.6503    0.6560 H   0  0  0  0  0  0  0  0  0  0  0  0
   -7.1542    0.9676    1.1312 H   0  0  0  0  0  0  0  0  0  0  0  0
   -7.6674    2.1522    2.3511 H   0  0  0  0  0  0  0  0  0  0  0  0
  1  2  2  0  0  0  0
  1  3  1  0  0  0  0
  1  7  1  0  0  0  0
  3  4  1  0  0  0  0
  3  5  1  0  0  0  0
  3  6  1  0  0  0  0
  7  8  1  0  0  0  0
  7 12  1  0  0  0  0
  8  9  1  0  0  0  0
  8 11  1  0  0  0  0
  8 13  1  0  0  0  0
  9 10  2  0  0  0  0
  9 17  1  0  0  0  0
 11 14  1  0  0  0  0
 11 15  1  0  0  0  0
 11 16  1  0  0  0  0
 17 18  1  0  0  0  0
 17 25  1  0  0  0  0
 18 19  1  0  0  0  0
 18 21  1  0  0  0  0
 18 26  1  0  0  0  0
 19 20  2  0  0  0  0
 19 29  1  0  0  0  0
 21 22  1  0  0  0  0
 21 27  1  0  0  0  0
 21 28  1  0  0  0  0
 22 23  1  0  0  0  0
 22 24  2  0  0  0  0
 29 30  1  0  0  0  0
 29 34  1  0  0  0  0
 30 31  1  0  0  0  0
 30 33  1  0  0  0  0
 30 35  1  0  0  0  0
 31 32  2  0  0  0  0
 31 39  1  0  0  0  0
 33 36  1  0  0  0  0
 33 37  1  0  0  0  0
 33 38  1  0  0  0  0
 39 40  1  0  0  0  0
 39 41  1  0  0  0  0
 40 42  1  0  0  0  0
 40 43  1  0  0  0  0
 40 44  1  0  0  0  0
M  CHG  1  23  -1
M  END
$$$$

  -OEChem-05262215553D

 44 43  0     1  0  0  0  0  0999 V2000
   -4.2546   -0.7229   -4.4377 C   0  0  0  0  0  0  0  0  0  0  0  0
   -3.9901   -1.9002   -4.6278 O   0  0  0  0  0  0  0  0  0  0  0  0
   -5.6825   -0.2332   -4.5943 C   0  0  0  0  0  0  0  0  0  0  0  0
   -5.7304    0.5371   -5.3677 H   0  0  0  0  0  0  0  0  0  0  0  0
   -6.3376   -1.0613   -4.8784 H   0  0  0  0  0  0  0  0  0  0  0  0
   -6.0366    0.1875   -3.6495 H   0  0  0  0  0  0  0  0  0  0  0  0
   -3.2715    0.1693   -4.0684 N   0  0  0  0  0  0  0  0  0  0  0  0
   -1.9500   -0.2262   -3.5611 C   0  0  2  0  0  0  0  0  0  0  0  0
   -1.6360    0.5031   -2.2384 C   0  0  0  0  0  0  0  0  0  0  0  0
   -2.2367    1.5408   -1.9830 O   0  0  0  0  0  0  0  0  0  0  0  0
   -0.8986    0.1137   -4.6201 C   0  0  0  0  0  0  0  0  0  0  0  0
   -3.5947    1.0871   -3.7634 H   0  0  0  0  0  0  0  0  0  0  0  0
   -1.9213   -1.3024   -3.3602 H   0  0  0  0  0  0  0  0  0  0  0  0
   -0.8991    1.1883   -4.8295 H   0  0  0  0  0  0  0  0  0  0  0  0
    0.1003   -0.1709   -4.2732 H   0  0  0  0  0  0  0  0  0  0  0  0
   -1.1089   -0.4245   -5.5494 H   0  0  0  0  0  0  0  0  0  0  0  0
   -0.6792   -0.0179   -1.3877 N   0  0  0  0  0  0  0  0  0  0  0  0
   -0.1312    0.4864   -0.1091 C   0  0  2  0  0  0  0  0  0  0  0  0
   -1.0060    1.3525    0.8469 C   0  0  0  0  0  0  0  0  0  0  0  0
   -0.5090    1.8496    1.8539 O   0  0  0  0  0  0  0  0  0  0  0  0
    1.1437    1.2444   -0.5419 C   0  0  0  0  0  0  0  0  0  0  0  0
    2.2251    0.2973   -1.0587 C   0  0  0  0  0  0  0  0  0  0  0  0
    2.2649   -0.8759   -0.6083 O   0  5  0  0  0  0  0  0  0  0  0  0
    2.9451    0.7212   -1.9933 O   0  0  0  0  0  0  0  0  0  0  0  0
   -0.1489   -0.7989   -1.7733 H   0  0  0  0  0  0  0  0  0  0  0  0
    0.1437   -0.3780    0.5044 H   0  0  0  0  0  0  0  0  0  0  0  0
    1.5673    1.7753    0.3144 H   0  0  0  0  0  0  0  0  0  0  0  0
    0.8998    1.9874   -1.3073 H   0  0  0  0  0  0  0  0  0  0  0  0
   -2.3799    1.4455    0.7264 N   0  0  0  0  0  0  0  0  0  0  0  0
   -3.2407    2.2709    1.5806 C   0  0  2  0  0  0  0  0  0  0  0  0
   -4.7044    1.7816    1.6098 C   0  0  0  0  0  0  0  0  0  0  0  0
   -5.2143    1.2154    0.6482 O   0  0  0  0  0  0  0  0  0  0  0  0
   -3.1807    3.7148    1.0714 C   0  0  0  0  0  0  0  0  0  0  0  0
   -2.7328    1.2310   -0.2091 H   0  0  0  0  0  0  0  0  0  0  0  0
   -2.8670    2.2368    2.6088 H   0  0  0  0  0  0  0  0  0  0  0  0
   -3.5411    3.7696    0.0389 H   0  0  0  0  0  0  0  0  0  0  0  0
   -3.7996    4.3673    1.6942 H   0  0  0  0  0  0  0  0  0  0  0  0
   -2.1514    4.0859    1.0993 H   0  0  0  0  0  0  0  0  0  0  0  0
   -5.4796    2.0193    2.7316 N   0  0  0  0  0  0  0  0  0  0  0  0
   -6.8630    1.5815    2.8586 C   0  0  0  0  0  0  0  0  0  0  0  0
   -5.0252    2.4592    3.5261 H   0  0  0  0  0  0  0  0  0  0  0  0
   -7.4833    2.0461    2.0852 H   0  0  0  0  0  0  0  0  0  0  0  0
   -6.9301    0.4930    2.7591 H   0  0  0  0  0  0  0  0  0  0  0  0
   -7.2603    1.8657    3.8377 H   0  0  0  0  0  0  0  0  0  0  0  0
  1  2  2  0  0  0  0
  1  3  1  0  0  0  0
  1  7  1  0  0  0  0
  3  4  1  0  0  0  0
  3  5  1  0  0  0  0
  3  6  1  0  0  0  0
  7  8  1  0  0  0  0
  7 12  1  0  0  0  0
  8  9  1  0  0  0  0
  8 11  1  0  0  0  0
  8 13  1  0  0  0  0
  9 10  2  0  0  0  0
  9 17  1  0  0  0  0
 11 14  1  0  0  0  0
 11 15  1  0  0  0  0
 11 16  1  0  0  0  0
 17 18  1  0  0  0  0
 17 25  1  0  0  0  0
 18 19  1  0  0  0  0
 18 21  1  0  0  0  0
 18 26  1  0  0  0  0
 19 20  2  0  0  0  0
 19 29  1  0  0  0  0
 21 22  1  0  0  0  0
 21 27  1  0  0  0  0
 21 28  1  0  0  0  0
 22 23  1  0  0  0  0
 22 24  2  0  0  0  0
 29 30  1  0  0  0  0
 29 34  1  0  0  0  0
 30 31  1  0  0  0  0
 30 33  1  0  0  0  0
 30 35  1  0  0  0  0
 31 32  2  0  0  0  0
 31 39  1  0  0  0  0
 33 36  1  0  0  0  0
 33 37  1  0  0  0  0
 33 38  1  0  0  0  0
 39 40  1  0  0  0  0
 39 41  1  0  0  0  0
 40 42  1  0  0  0  0
 40 43  1  0  0  0  0
 40 44  1  0  0  0  0
M  CHG  1  23  -1
M  END
$$$$

  -OEChem-05262215553D

 44 43  0     1  0  0  0  0  0999 V2000
   -4.2903   -0.5653   -4.5356 C   0  0  0  0  0  0  0  0  0  0  0  0
   -3.9949   -1.7029   -4.8677 O   0  0  0  0  0  0  0  0  0  0  0  0
   -5.6949   -0.0456   -4.7812 C   0  0  0  0  0  0  0  0  0  0  0  0
   -5.6588    0.8324   -5.4307 H   0  0  0  0  0  0  0  0  0  0  0  0
   -6.3051   -0.8158   -5.2613 H   0  0  0  0  0  0  0  0  0  0  0  0
   -6.1598    0.2310   -3.8314 H   0  0  0  0  0  0  0  0  0  0  0  0
   -3.3632    0.2535   -3.9290 N   0  0  0  0  0  0  0  0  0  0  0  0
   -2.0653   -0.2007   -3.4119 C   0  0  2  0  0  0  0  0  0  0  0  0
   -1.7404    0.4728   -2.0616 C   0  0  0  0  0  0  0  0  0  0  0  0
   -2.4089    1.4351   -1.7009 O   0  0  0  0  0  0  0  0  0  0  0  0
   -0.9857    0.1261   -4.4471 C   0  0  0  0  0  0  0  0  0  0  0  0
   -3.7123    1.1268   -3.5351 H   0  0  0  0  0  0  0  0  0  0  0  0
   -2.0847   -1.2828   -3.2423 H   0  0  0  0  0  0  0  0  0  0  0  0
   -0.9385    1.2053   -4.6249 H   0  0  0  0  0  0  0  0  0  0  0  0
   -0.0034   -0.2105   -4.0994 H   0  0  0  0  0  0  0  0  0  0  0  0
   -1.2064   -0.3757   -5.3942 H   0  0  0  0  0  0  0  0  0  0  0  0
   -0.7152   -0.0347   -1.2857 N   0  0  0  0  0  0  0  0  0  0  0  0
   -0.0825    0.5021   -0.0620 C   0  0  2  0  0  0  0  0  0  0  0  0
   -0.9268    1.3735    0.9144 C   0  0  0  0  0  0  0  0  0  0  0  0
   -0.3863    2.1034    1.7415 O   0  0  0  0  0  0  0  0  0  0  0  0
    1.1487    1.2638   -0.6043 C   0  0  0  0  0  0  0  0  0  0  0  0
    2.1993    0.3164   -1.1792 C   0  0  0  0  0  0  0  0  0  0  0  0
    2.2846   -0.8454   -0.7074 O   0  5  0  0  0  0  0  0  0  0  0  0
    2.8289    0.7187   -2.1856 O   0  0  0  0  0  0  0  0  0  0  0  0
   -0.1632   -0.7637   -1.7378 H   0  0  0  0  0  0  0  0  0  0  0  0
    0.2463   -0.3409    0.5540 H   0  0  0  0  0  0  0  0  0  0  0  0
    1.6311    1.8151    0.2065 H   0  0  0  0  0  0  0  0  0  0  0  0
    0.8415    1.9898   -1.3629 H   0  0  0  0  0  0  0  0  0  0  0  0
   -2.2904    1.1823    1.0457 N   0  0  0  0  0  0  0  0  0  0  0  0
   -3.1549    1.9842    1.9192 C   0  0  2  0  0  0  0  0  0  0  0  0
   -4.4919    1.2838    2.2415 C   0  0  0  0  0  0  0  0  0  0  0  0
   -5.0264    0.5218    1.4423 O   0  0  0  0  0  0  0  0  0  0  0  0
   -3.4255    3.3286    1.2345 C   0  0  0  0  0  0  0  0  0  0  0  0
   -2.7301    0.7871    0.2132 H   0  0  0  0  0  0  0  0  0  0  0  0
   -2.6410    2.1612    2.8693 H   0  0  0  0  0  0  0  0  0  0  0  0
   -3.9251    3.1716    0.2730 H   0  0  0  0  0  0  0  0  0  0  0  0
   -4.0631    3.9579    1.8621 H   0  0  0  0  0  0  0  0  0  0  0  0
   -2.4865    3.8612    1.0534 H   0  0  0  0  0  0  0  0  0  0  0  0
   -5.1306    1.5502    3.4401 N   0  0  0  0  0  0  0  0  0  0  0  0
   -6.3923    0.9369    3.8319 C   0  0  0  0  0  0  0  0  0  0  0  0
   -4.6511    2.1587    4.0966 H   0  0  0  0  0  0  0  0  0  0  0  0
   -7.1792    1.1880    3.1133 H   0  0  0  0  0  0  0  0  0  0  0  0
   -6.2908   -0.1524    3.8787 H   0  0  0  0  0  0  0  0  0  0  0  0
   -6.6968    1.2995    4.8183 H   0  0  0  0  0  0  0  0  0  0  0  0
  1  2  2  0  0  0  0
  1  3  1  0  0  0  0
  1  7  1  0  0  0  0
  3  4  1  0  0  0  0
  3  5  1  0  0  0  0
  3  6  1  0  0  0  0
  7  8  1  0  0  0  0
  7 12  1  0  0  0  0
  8  9  1  0  0  0  0
  8 11  1  0  0  0  0
  8 13  1  0  0  0  0
  9 10  2  0  0  0  0
  9 17  1  0  0  0  0
 11 14  1  0  0  0  0
 11 15  1  0  0  0  0
 11 16  1  0  0  0  0
 17 18  1  0  0  0  0
 17 25  1  0  0  0  0
 18 19  1  0  0  0  0
 18 21  1  0  0  0  0
 18 26  1  0  0  0  0
 19 20  2  0  0  0  0
 19 29  1  0  0  0  0
 21 22  1  0  0  0  0
 21 27  1  0  0  0  0
 21 28  1  0  0  0  0
 22 23  1  0  0  0  0
 22 24  2  0  0  0  0
 29 30  1  0  0  0  0
 29 34  1  0  0  0  0
 30 31  1  0  0  0  0
 30 33  1  0  0  0  0
 30 35  1  0  0  0  0
 31 32  2  0  0  0  0
 31 39  1  0  0  0  0
 33 36  1  0  0  0  0
 33 37  1  0  0  0  0
 33 38  1  0  0  0  0
 39 40  1  0  0  0  0
 39 41  1  0  0  0  0
 40 42  1  0  0  0  0
 40 43  1  0  0  0  0
 40 44  1  0  0  0  0
M  CHG  1  23  -1
M  END
$$$$

  -OEChem-05262215553D

 44 43  0     1  0  0  0  0  0999 V2000
   -4.3645   -0.4241   -4.4407 C   0  0  0  0  0  0  0  0  0  0  0  0
   -4.1108   -1.5627   -4.8026 O   0  0  0  0  0  0  0  0  0  0  0  0
   -5.7400    0.1630   -4.7004 C   0  0  0  0  0  0  0  0  0  0  0  0
   -5.6546    1.0337   -5.3551 H   0  0  0  0  0  0  0  0  0  0  0  0
   -6.3831   -0.5795   -5.1813 H   0  0  0  0  0  0  0  0  0  0  0  0
   -6.1996    0.4687   -3.7570 H   0  0  0  0  0  0  0  0  0  0  0  0
   -3.4153    0.3352   -3.7924 N   0  0  0  0  0  0  0  0  0  0  0  0
   -2.1378   -0.1828   -3.2852 C   0  0  2  0  0  0  0  0  0  0  0  0
   -1.7810    0.4559   -1.9256 C   0  0  0  0  0  0  0  0  0  0  0  0
   -2.4562    1.3914   -1.5109 O   0  0  0  0  0  0  0  0  0  0  0  0
   -1.0480    0.1103   -4.3213 C   0  0  0  0  0  0  0  0  0  0  0  0
   -3.7317    1.2094   -3.3739 H   0  0  0  0  0  0  0  0  0  0  0  0
   -2.2044   -1.2652   -3.1306 H   0  0  0  0  0  0  0  0  0  0  0  0
   -0.9466    1.1892   -4.4763 H   0  0  0  0  0  0  0  0  0  0  0  0
   -0.0817   -0.2836   -3.9890 H   0  0  0  0  0  0  0  0  0  0  0  0
   -1.2992   -0.3588   -5.2775 H   0  0  0  0  0  0  0  0  0  0  0  0
   -0.7130   -0.0468   -1.2062 N   0  0  0  0  0  0  0  0  0  0  0  0
   -0.0221    0.5259   -0.0336 C   0  0  2  0  0  0  0  0  0  0  0  0
   -0.8529    1.4140    0.9362 C   0  0  0  0  0  0  0  0  0  0  0  0
   -0.3696    2.3831    1.5164 O   0  0  0  0  0  0  0  0  0  0  0  0
    1.1821    1.2740   -0.6498 C   0  0  0  0  0  0  0  0  0  0  0  0
    2.2071    0.3119   -1.2449 C   0  0  0  0  0  0  0  0  0  0  0  0
    2.3137   -0.8365   -0.7449 O   0  5  0  0  0  0  0  0  0  0  0  0
    2.7885    0.6847   -2.2909 O   0  0  0  0  0  0  0  0  0  0  0  0
   -0.1634   -0.7519   -1.6974 H   0  0  0  0  0  0  0  0  0  0  0  0
    0.3380   -0.2950    0.5945 H   0  0  0  0  0  0  0  0  0  0  0  0
    1.6977    1.8456    0.1257 H   0  0  0  0  0  0  0  0  0  0  0  0
    0.8394    1.9795   -1.4126 H   0  0  0  0  0  0  0  0  0  0  0  0
   -2.1116    0.9996    1.3343 N   0  0  0  0  0  0  0  0  0  0  0  0
   -3.0024    1.7755    2.2047 C   0  0  2  0  0  0  0  0  0  0  0  0
   -4.1127    0.9112    2.8381 C   0  0  0  0  0  0  0  0  0  0  0  0
   -4.5075   -0.1173    2.2980 O   0  0  0  0  0  0  0  0  0  0  0  0
   -3.6312    2.9063    1.3826 C   0  0  0  0  0  0  0  0  0  0  0  0
   -2.5463    0.3014    0.7346 H   0  0  0  0  0  0  0  0  0  0  0  0
   -2.4162    2.2079    3.0220 H   0  0  0  0  0  0  0  0  0  0  0  0
   -4.2191    2.4942    0.5562 H   0  0  0  0  0  0  0  0  0  0  0  0
   -4.2873    3.5175    2.0089 H   0  0  0  0  0  0  0  0  0  0  0  0
   -2.8535    3.5529    0.9638 H   0  0  0  0  0  0  0  0  0  0  0  0
   -4.7022    1.3128    4.0241 N   0  0  0  0  0  0  0  0  0  0  0  0
   -5.7508    0.5574    4.6962 C   0  0  0  0  0  0  0  0  0  0  0  0
   -4.3380    2.1527    4.4634 H   0  0  0  0  0  0  0  0  0  0  0  0
   -6.6277    0.4594    4.0478 H   0  0  0  0  0  0  0  0  0  0  0  0
   -5.3928   -0.4432    4.9603 H   0  0  0  0  0  0  0  0  0  0  0  0
   -6.0554    1.0697    5.6136 H   0  0  0  0  0  0  0  0  0  0  0  0
  1  2  2  0  0  0  0
  1  3  1  0  0  0  0
  1  7  1  0  0  0  0
  3  4  1  0  0  0  0
  3  5  1  0  0  0  0
  3  6  1  0  0  0  0
  7  8  1  0  0  0  0
  7 12  1  0  0  0  0
  8  9  1  0  0  0  0
  8 11  1  0  0  0  0
  8 13  1  0  0  0  0
  9 10  2  0  0  0  0
  9 17  1  0  0  0  0
 11 14  1  0  0  0  0
 11 15  1  0  0  0  0
 11 16  1  0  0  0  0
 17 18  1  0  0  0  0
 17 25  1  0  0  0  0
 18 19  1  0  0  0  0
 18 21  1  0  0  0  0
 18 26  1  0  0  0  0
 19 20  2  0  0  0  0
 19 29  1  0  0  0  0
 21 22  1  0  0  0  0
 21 27  1  0  0  0  0
 21 28  1  0  0  0  0
 22 23  1  0  0  0  0
 22 24  2  0  0  0  0
 29 30  1  0  0  0  0
 29 34  1  0  0  0  0
 30 31  1  0  0  0  0
 30 33  1  0  0  0  0
 30 35  1  0  0  0  0
 31 32  2  0  0  0  0
 31 39  1  0  0  0  0
 33 36  1  0  0  0  0
 33 37  1  0  0  0  0
 33 38  1  0  0  0  0
 39 40  1  0  0  0  0
 39 41  1  0  0  0  0
 40 42  1  0  0  0  0
 40 43  1  0  0  0  0
 40 44  1  0  0  0  0
M  CHG  1  23  -1
M  END
$$$$

  -OEChem-05262215553D

 44 43  0     1  0  0  0  0  0999 V2000
   -4.4262   -0.3462   -4.3242 C   0  0  0  0  0  0  0  0  0  0  0  0
   -4.2227   -1.4993   -4.6718 O   0  0  0  0  0  0  0  0  0  0  0  0
   -5.7854    0.2866   -4.5612 C   0  0  0  0  0  0  0  0  0  0  0  0
   -5.7031    1.0722   -5.3163 H   0  0  0  0  0  0  0  0  0  0  0  0
   -6.4973   -0.4667   -4.9095 H   0  0  0  0  0  0  0  0  0  0  0  0
   -6.1612    0.7229   -3.6323 H   0  0  0  0  0  0  0  0  0  0  0  0
   -3.4359    0.3903   -3.7123 N   0  0  0  0  0  0  0  0  0  0  0  0
   -2.1715   -0.1661   -3.2124 C   0  0  2  0  0  0  0  0  0  0  0  0
   -1.7916    0.4580   -1.8516 C   0  0  0  0  0  0  0  0  0  0  0  0
   -2.4724    1.3774   -1.4093 O   0  0  0  0  0  0  0  0  0  0  0  0
   -1.0806    0.1008   -4.2544 C   0  0  0  0  0  0  0  0  0  0  0  0
   -3.7178    1.2760   -3.2928 H   0  0  0  0  0  0  0  0  0  0  0  0
   -2.2676   -1.2464   -3.0606 H   0  0  0  0  0  0  0  0  0  0  0  0
   -0.9547    1.1770   -4.4098 H   0  0  0  0  0  0  0  0  0  0  0  0
   -0.1220   -0.3158   -3.9282 H   0  0  0  0  0  0  0  0  0  0  0  0
   -1.3490   -0.3619   -5.2092 H   0  0  0  0  0  0  0  0  0  0  0  0
   -0.7094   -0.0503   -1.1564 N   0  0  0  0  0  0  0  0  0  0  0  0
    0.0121    0.5439   -0.0152 C   0  0  2  0  0  0  0  0  0  0  0  0
   -0.8145    1.4549    0.9330 C   0  0  0  0  0  0  0  0  0  0  0  0
   -0.4503    2.5802    1.2661 O   0  0  0  0  0  0  0  0  0  0  0  0
    1.2150    1.2675   -0.6606 C   0  0  0  0  0  0  0  0  0  0  0  0
    2.2233    0.2840   -1.2488 C   0  0  0  0  0  0  0  0  0  0  0  0
    2.3235   -0.8545   -0.7256 O   0  5  0  0  0  0  0  0  0  0  0  0
    2.7984    0.6286   -2.3076 O   0  0  0  0  0  0  0  0  0  0  0  0
   -0.1658   -0.7480   -1.6640 H   0  0  0  0  0  0  0  0  0  0  0  0
    0.3769   -0.2621    0.6295 H   0  0  0  0  0  0  0  0  0  0  0  0
    1.7424    1.8504    0.0988 H   0  0  0  0  0  0  0  0  0  0  0  0
    0.8697    1.9599   -1.4341 H   0  0  0  0  0  0  0  0  0  0  0  0
   -1.9074    0.9139    1.5869 N   0  0  0  0  0  0  0  0  0  0  0  0
   -2.8084    1.6699    2.4634 C   0  0  2  0  0  0  0  0  0  0  0  0
   -3.6319    0.7582    3.3966 C   0  0  0  0  0  0  0  0  0  0  0  0
   -3.8458   -0.4163    3.1140 O   0  0  0  0  0  0  0  0  0  0  0  0
   -3.7500    2.5088    1.5921 C   0  0  0  0  0  0  0  0  0  0  0  0
   -2.2312    0.0105    1.2500 H   0  0  0  0  0  0  0  0  0  0  0  0
   -2.2142    2.3363    3.0971 H   0  0  0  0  0  0  0  0  0  0  0  0
   -4.3358    1.8614    0.9316 H   0  0  0  0  0  0  0  0  0  0  0  0
   -4.4373    3.0885    2.2149 H   0  0  0  0  0  0  0  0  0  0  0  0
   -3.1765    3.2052    0.9719 H   0  0  0  0  0  0  0  0  0  0  0  0
   -4.1621    1.2752    4.5656 N   0  0  0  0  0  0  0  0  0  0  0  0
   -4.9414    0.4890    5.5124 C   0  0  0  0  0  0  0  0  0  0  0  0
   -3.9471    2.2431    4.7850 H   0  0  0  0  0  0  0  0  0  0  0  0
   -5.8348    0.0810    5.0281 H   0  0  0  0  0  0  0  0  0  0  0  0
   -4.3429   -0.3390    5.9064 H   0  0  0  0  0  0  0  0  0  0  0  0
   -5.2596    1.1163    6.3504 H   0  0  0  0  0  0  0  0  0  0  0  0
  1  2  2  0  0  0  0
  1  3  1  0  0  0  0
  1  7  1  0  0  0  0
  3  4  1  0  0  0  0
  3  5  1  0  0  0  0
  3  6  1  0  0  0  0
  7  8  1  0  0  0  0
  7 12  1  0  0  0  0
  8  9  1  0  0  0  0
  8 11  1  0  0  0  0
  8 13  1  0  0  0  0
  9 10  2  0  0  0  0
  9 17  1  0  0  0  0
 11 14  1  0  0  0  0
 11 15  1  0  0  0  0
 11 16  1  0  0  0  0
 17 18  1  0  0  0  0
 17 25  1  0  0  0  0
 18 19  1  0  0  0  0
 18 21  1  0  0  0  0
 18 26  1  0  0  0  0
 19 20  2  0  0  0  0
 19 29  1  0  0  0  0
 21 22  1  0  0  0  0
 21 27  1  0  0  0  0
 21 28  1  0  0  0  0
 22 23  1  0  0  0  0
 22 24  2  0  0  0  0
 29 30  1  0  0  0  0
 29 34  1  0  0  0  0
 30 31  1  0  0  0  0
 30 33  1  0  0  0  0
 30 35  1  0  0  0  0
 31 32  2  0  0  0  0
 31 39  1  0  0  0  0
 33 36  1  0  0  0  0
 33 37  1  0  0  0  0
 33 38  1  0  0  0  0
 39 40  1  0  0  0  0
 39 41  1  0  0  0  0
 40 42  1  0  0  0  0
 40 43  1  0  0  0  0
 40 44  1  0  0  0  0
M  CHG  1  23  -1
M  END
$$$$

  -OEChem-05262215553D

 44 43  0     1  0  0  0  0  0999 V2000
   -4.4412   -0.3284   -4.2938 C   0  0  0  0  0  0  0  0  0  0  0  0
   -4.2520   -1.4864   -4.6336 O   0  0  0  0  0  0  0  0  0  0  0  0
   -5.7968    0.3145   -4.5248 C   0  0  0  0  0  0  0  0  0  0  0  0
   -5.7066    1.1136   -5.2645 H   0  0  0  0  0  0  0  0  0  0  0  0
   -6.5104   -0.4288   -4.8911 H   0  0  0  0  0  0  0  0  0  0  0  0
   -6.1758    0.7347   -3.5897 H   0  0  0  0  0  0  0  0  0  0  0  0
   -3.4405    0.4052   -3.6958 N   0  0  0  0  0  0  0  0  0  0  0  0
   -2.1829   -0.1610   -3.1893 C   0  0  2  0  0  0  0  0  0  0  0  0
   -1.8279    0.4263   -1.8052 C   0  0  0  0  0  0  0  0  0  0  0  0
   -2.5418    1.3039   -1.3309 O   0  0  0  0  0  0  0  0  0  0  0  0
   -1.0766    0.1402   -4.2056 C   0  0  0  0  0  0  0  0  0  0  0  0
   -3.7197    1.2891   -3.2713 H   0  0  0  0  0  0  0  0  0  0  0  0
   -2.2743   -1.2457   -3.0694 H   0  0  0  0  0  0  0  0  0  0  0  0
   -0.9437    1.2208   -4.3180 H   0  0  0  0  0  0  0  0  0  0  0  0
   -0.1238   -0.2928   -3.8834 H   0  0  0  0  0  0  0  0  0  0  0  0
   -1.3342   -0.2837   -5.1810 H   0  0  0  0  0  0  0  0  0  0  0  0
   -0.7399   -0.0811   -1.1184 N   0  0  0  0  0  0  0  0  0  0  0  0
   -0.0007    0.5336   -0.0004 C   0  0  2  0  0  0  0  0  0  0  0  0
   -0.8140    1.4698    0.9330 C   0  0  0  0  0  0  0  0  0  0  0  0
   -0.5863    2.6729    1.0384 O   0  0  0  0  0  0  0  0  0  0  0  0
    1.1938    1.2456   -0.6733 C   0  0  0  0  0  0  0  0  0  0  0  0
    2.1950    0.2528   -1.2576 C   0  0  0  0  0  0  0  0  0  0  0  0
    2.3023   -0.8763   -0.7161 O   0  5  0  0  0  0  0  0  0  0  0  0
    2.7559    0.5791   -2.3294 O   0  0  0  0  0  0  0  0  0  0  0  0
   -0.1909   -0.7628   -1.6411 H   0  0  0  0  0  0  0  0  0  0  0  0
    0.3745   -0.2591    0.6548 H   0  0  0  0  0  0  0  0  0  0  0  0
    1.7273    1.8434    0.0700 H   0  0  0  0  0  0  0  0  0  0  0  0
    0.8380    1.9246   -1.4543 H   0  0  0  0  0  0  0  0  0  0  0  0
   -1.6917    0.9008    1.8389 N   0  0  0  0  0  0  0  0  0  0  0  0
   -2.5610    1.6640    2.7408 C   0  0  2  0  0  0  0  0  0  0  0  0
   -3.0731    0.8191    3.9256 C   0  0  0  0  0  0  0  0  0  0  0  0
   -3.1340   -0.4042    3.8533 O   0  0  0  0  0  0  0  0  0  0  0  0
   -3.7479    2.2039    1.9343 C   0  0  0  0  0  0  0  0  0  0  0  0
   -1.8857   -0.0917    1.7280 H   0  0  0  0  0  0  0  0  0  0  0  0
   -1.9957    2.5046    3.1561 H   0  0  0  0  0  0  0  0  0  0  0  0
   -4.3232    1.3785    1.5029 H   0  0  0  0  0  0  0  0  0  0  0  0
   -4.4087    2.7962    2.5737 H   0  0  0  0  0  0  0  0  0  0  0  0
   -3.3963    2.8428    1.1176 H   0  0  0  0  0  0  0  0  0  0  0  0
   -3.4968    1.4463    5.0840 N   0  0  0  0  0  0  0  0  0  0  0  0
   -3.9861    0.7283    6.2530 C   0  0  0  0  0  0  0  0  0  0  0  0
   -3.4063    2.4571    5.1257 H   0  0  0  0  0  0  0  0  0  0  0  0
   -4.8479    0.1069    5.9881 H   0  0  0  0  0  0  0  0  0  0  0  0
   -3.2005    0.0861    6.6646 H   0  0  0  0  0  0  0  0  0  0  0  0
   -4.2966    1.4366    7.0269 H   0  0  0  0  0  0  0  0  0  0  0  0
  1  2  2  0  0  0  0
  1  3  1  0  0  0  0
  1  7  1  0  0  0  0
  3  4  1  0  0  0  0
  3  5  1  0  0  0  0
  3  6  1  0  0  0  0
  7  8  1  0  0  0  0
  7 12  1  0  0  0  0
  8  9  1  0  0  0  0
  8 11  1  0  0  0  0
  8 13  1  0  0  0  0
  9 10  2  0  0  0  0
  9 17  1  0  0  0  0
 11 14  1  0  0  0  0
 11 15  1  0  0  0  0
 11 16  1  0  0  0  0
 17 18  1  0  0  0  0
 17 25  1  0  0  0  0
 18 19  1  0  0  0  0
 18 21  1  0  0  0  0
 18 26  1  0  0  0  0
 19 20  2  0  0  0  0
 19 29  1  0  0  0  0
 21 22  1  0  0  0  0
 21 27  1  0  0  0  0
 21 28  1  0  0  0  0
 22 23  1  0  0  0  0
 22 24  2  0  0  0  0
 29 30  1  0  0  0  0
 29 34  1  0  0  0  0
 30 31  1  0  0  0  0
 30 33  1  0  0  0  0
 30 35  1  0  0  0  0
 31 32  2  0  0  0  0
 31 39  1  0  0  0  0
 33 36  1  0  0  0  0
 33 37  1  0  0  0  0
 33 38  1  0  0  0  0
 39 40  1  0  0  0  0
 39 41  1  0  0  0  0
 40 42  1  0  0  0  0
 40 43  1  0  0  0  0
 40 44  1  0  0  0  0
M  CHG  1  23  -1
M  END
$$$$

  -OEChem-05262215553D

 44 43  0     1  0  0  0  0  0999 V2000
   -4.4192   -0.3430   -4.3642 C   0  0  0  0  0  0  0  0  0  0  0  0
   -4.1762   -1.4719   -4.7626 O   0  0  0  0  0  0  0  0  0  0  0  0
   -5.7892    0.2640   -4.6076 C   0  0  0  0  0  0  0  0  0  0  0  0
   -5.7022    1.1187   -5.2830 H   0  0  0  0  0  0  0  0  0  0  0  0
   -6.4565   -0.4763   -5.0576 H   0  0  0  0  0  0  0  0  0  0  0  0
   -6.2223    0.5991   -3.6618 H   0  0  0  0  0  0  0  0  0  0  0  0
   -3.4666    0.3879   -3.6883 N   0  0  0  0  0  0  0  0  0  0  0  0
   -2.2020   -0.1613   -3.1801 C   0  0  2  0  0  0  0  0  0  0  0  0
   -1.8890    0.3794   -1.7669 C   0  0  0  0  0  0  0  0  0  0  0  0
   -2.6494    1.1981   -1.2606 O   0  0  0  0  0  0  0  0  0  0  0  0
   -1.0848    0.2115   -4.1609 C   0  0  0  0  0  0  0  0  0  0  0  0
   -3.7902    1.2348   -3.2214 H   0  0  0  0  0  0  0  0  0  0  0  0
   -2.2650   -1.2521   -3.1054 H   0  0  0  0  0  0  0  0  0  0  0  0
   -0.9834    1.2991   -4.2324 H   0  0  0  0  0  0  0  0  0  0  0  0
   -0.1259   -0.2032   -3.8329 H   0  0  0  0  0  0  0  0  0  0  0  0
   -1.3072   -0.1852   -5.1561 H   0  0  0  0  0  0  0  0  0  0  0  0
   -0.7988   -0.1242   -1.0808 N   0  0  0  0  0  0  0  0  0  0  0  0
   -0.0493    0.5125    0.0175 C   0  0  2  0  0  0  0  0  0  0  0  0
   -0.8393    1.4773    0.9421 C   0  0  0  0  0  0  0  0  0  0  0  0
   -0.7662    2.7002    0.8432 O   0  0  0  0  0  0  0  0  0  0  0  0
    1.1405    1.2112   -0.6764 C   0  0  0  0  0  0  0  0  0  0  0  0
    2.1403    0.2110   -1.2498 C   0  0  0  0  0  0  0  0  0  0  0  0
    2.2530   -0.9076   -0.6886 O   0  5  0  0  0  0  0  0  0  0  0  0
    2.6945    0.5196   -2.3304 O   0  0  0  0  0  0  0  0  0  0  0  0
   -0.2384   -0.7874   -1.6155 H   0  0  0  0  0  0  0  0  0  0  0  0
    0.3320   -0.2701    0.6814 H   0  0  0  0  0  0  0  0  0  0  0  0
    1.6753    1.8234    0.0542 H   0  0  0  0  0  0  0  0  0  0  0  0
    0.7799    1.8753   -1.4680 H   0  0  0  0  0  0  0  0  0  0  0  0
   -1.4625    0.9655    2.0670 N   0  0  0  0  0  0  0  0  0  0  0  0
   -2.2543    1.7611    3.0125 C   0  0  2  0  0  0  0  0  0  0  0  0
   -2.4466    1.0508    4.3683 C   0  0  0  0  0  0  0  0  0  0  0  0
   -2.3531   -0.1688    4.4621 O   0  0  0  0  0  0  0  0  0  0  0  0
   -3.6198    2.0545    2.3795 C   0  0  0  0  0  0  0  0  0  0  0  0
   -1.4964   -0.0473    2.1593 H   0  0  0  0  0  0  0  0  0  0  0  0
   -1.7362    2.7057    3.2074 H   0  0  0  0  0  0  0  0  0  0  0  0
   -4.1516    1.1208    2.1700 H   0  0  0  0  0  0  0  0  0  0  0  0
   -4.2319    2.6632    3.0513 H   0  0  0  0  0  0  0  0  0  0  0  0
   -3.4955    2.5998    1.4385 H   0  0  0  0  0  0  0  0  0  0  0  0
   -2.7542    1.7911    5.4963 N   0  0  0  0  0  0  0  0  0  0  0  0
   -2.9323    1.2044    6.8177 C   0  0  0  0  0  0  0  0  0  0  0  0
   -2.7904    2.8010    5.3945 H   0  0  0  0  0  0  0  0  0  0  0  0
   -3.7201    0.4442    6.7961 H   0  0  0  0  0  0  0  0  0  0  0  0
   -2.0012    0.7396    7.1578 H   0  0  0  0  0  0  0  0  0  0  0  0
   -3.2183    1.9764    7.5380 H   0  0  0  0  0  0  0  0  0  0  0  0
  1  2  2  0  0  0  0
  1  3  1  0  0  0  0
  1  7  1  0  0  0  0
  3  4  1  0  0  0  0
  3  5  1  0  0  0  0
  3  6  1  0  0  0  0
  7  8  1  0  0  0  0
  7 12  1  0  0  0  0
  8  9  1  0  0  0  0
  8 11  1  0  0  0  0
  8 13  1  0  0  0  0
  9 10  2  0  0  0  0
  9 17  1  0  0  0  0
 11 14  1  0  0  0  0
 11 15  1  0  0  0  0
 11 16  1  0  0  0  0
 17 18  1  0  0  0  0
 17 25  1  0  0  0  0
 18 19  1  0  0  0  0
 18 21  1  0  0  0  0
 18 26  1  0  0  0  0
 19 20  2  0  0  0  0
 19 29  1  0  0  0  0
 21 22  1  0  0  0  0
 21 27  1  0  0  0  0
 21 28  1  0  0  0  0
 22 23  1  0  0  0  0
 22 24  2  0  0  0  0
 29 30  1  0  0  0  0
 29 34  1  0  0  0  0
 30 31  1  0  0  0  0
 30 33  1  0  0  0  0
 30 35  1  0  0  0  0
 31 32  2  0  0  0  0
 31 39  1  0  0  0  0
 33 36  1  0  0  0  0
 33 37  1  0  0  0  0
 33 38  1  0  0  0  0
 39 40  1  0  0  0  0
 39 41  1  0  0  0  0
 40 42  1  0  0  0  0
 40 43  1  0  0  0  0
 40 44  1  0  0  0  0
M  CHG  1  23  -1
M  END
$$$$

  -OEChem-05262215553D

 44 43  0     1  0  0  0  0  0999 V2000
   -4.3724   -0.3790   -4.4681 C   0  0  0  0  0  0  0  0  0  0  0  0
   -4.0496   -1.4606   -4.9351 O   0  0  0  0  0  0  0  0  0  0  0  0
   -5.7632    0.1702   -4.7296 C   0  0  0  0  0  0  0  0  0  0  0  0
   -5.6960    1.0906   -5.3149 H   0  0  0  0  0  0  0  0  0  0  0  0
   -6.3598   -0.5592   -5.2845 H   0  0  0  0  0  0  0  0  0  0  0  0
   -6.2632    0.3857   -3.7819 H   0  0  0  0  0  0  0  0  0  0  0  0
   -3.4927    0.3473   -3.6959 N   0  0  0  0  0  0  0  0  0  0  0  0
   -2.2186   -0.1679   -3.1765 C   0  0  2  0  0  0  0  0  0  0  0  0
   -1.9605    0.3329   -1.7383 C   0  0  0  0  0  0  0  0  0  0  0  0
   -2.7752    1.0850   -1.2142 O   0  0  0  0  0  0  0  0  0  0  0  0
   -1.0931    0.2829   -4.1135 C   0  0  0  0  0  0  0  0  0  0  0  0
   -3.8782    1.1441   -3.1892 H   0  0  0  0  0  0  0  0  0  0  0  0
   -2.2411   -1.2623   -3.1421 H   0  0  0  0  0  0  0  0  0  0  0  0
   -1.0275    1.3753   -4.1359 H   0  0  0  0  0  0  0  0  0  0  0  0
   -0.1285   -0.1135   -3.7800 H   0  0  0  0  0  0  0  0  0  0  0  0
   -1.2790   -0.0774   -5.1299 H   0  0  0  0  0  0  0  0  0  0  0  0
   -0.8736   -0.1598   -1.0400 N   0  0  0  0  0  0  0  0  0  0  0  0
   -0.1305    0.4994    0.0493 C   0  0  2  0  0  0  0  0  0  0  0  0
   -0.9112    1.4851    0.9594 C   0  0  0  0  0  0  0  0  0  0  0  0
   -0.9967    2.6851    0.7075 O   0  0  0  0  0  0  0  0  0  0  0  0
    1.0603    1.1946   -0.6450 C   0  0  0  0  0  0  0  0  0  0  0  0
    2.0714    0.1943   -1.1967 C   0  0  0  0  0  0  0  0  0  0  0  0
    2.1876   -0.9156   -0.6196 O   0  5  0  0  0  0  0  0  0  0  0  0
    2.6353    0.4948   -2.2742 O   0  0  0  0  0  0  0  0  0  0  0  0
   -0.2945   -0.8019   -1.5800 H   0  0  0  0  0  0  0  0  0  0  0  0
    0.2497   -0.2743    0.7235 H   0  0  0  0  0  0  0  0  0  0  0  0
    1.5835    1.8233    0.0801 H   0  0  0  0  0  0  0  0  0  0  0  0
    0.7014    1.8431   -1.4499 H   0  0  0  0  0  0  0  0  0  0  0  0
   -1.2658    1.0852    2.2364 N   0  0  0  0  0  0  0  0  0  0  0  0
   -1.9402    1.9403    3.2196 C   0  0  2  0  0  0  0  0  0  0  0  0
   -1.7973    1.4076    4.6600 C   0  0  0  0  0  0  0  0  0  0  0  0
   -1.5590    0.2235    4.8752 O   0  0  0  0  0  0  0  0  0  0  0  0
   -3.4229    2.0424    2.8435 C   0  0  0  0  0  0  0  0  0  0  0  0
   -1.1209    0.1076    2.4802 H   0  0  0  0  0  0  0  0  0  0  0  0
   -1.4912    2.9384    3.1929 H   0  0  0  0  0  0  0  0  0  0  0  0
   -3.8875    1.0514    2.8512 H   0  0  0  0  0  0  0  0  0  0  0  0
   -3.9555    2.6842    3.5512 H   0  0  0  0  0  0  0  0  0  0  0  0
   -3.5338    2.4690    1.8411 H   0  0  0  0  0  0  0  0  0  0  0  0
   -1.9591    2.2682    5.7312 N   0  0  0  0  0  0  0  0  0  0  0  0
   -1.8075    1.8575    7.1205 C   0  0  0  0  0  0  0  0  0  0  0  0
   -2.1123    3.2496    5.5195 H   0  0  0  0  0  0  0  0  0  0  0  0
   -2.4927    1.0361    7.3545 H   0  0  0  0  0  0  0  0  0  0  0  0
   -0.7811    1.5276    7.3119 H   0  0  0  0  0  0  0  0  0  0  0  0
   -2.0335    2.6947    7.7875 H   0  0  0  0  0  0  0  0  0  0  0  0
  1  2  2  0  0  0  0
  1  3  1  0  0  0  0
  1  7  1  0  0  0  0
  3  4  1  0  0  0  0
  3  5  1  0  0  0  0
  3  6  1  0  0  0  0
  7  8  1  0  0  0  0
  7 12  1  0  0  0  0
  8  9  1  0  0  0  0
  8 11  1  0  0  0  0
  8 13  1  0  0  0  0
  9 10  2  0  0  0  0
  9 17  1  0  0  0  0
 11 14  1  0  0  0  0
 11 15  1  0  0  0  0
 11 16  1  0  0  0  0
 17 18  1  0  0  0  0
 17 25  1  0  0  0  0
 18 19  1  0  0  0  0
 18 21  1  0  0  0  0
 18 26  1  0  0  0  0
 19 20  2  0  0  0  0
 19 29  1  0  0  0  0
 21 22  1  0  0  0  0
 21 27  1  0  0  0  0
 21 28  1  0  0  0  0
 22 23  1  0  0  0  0
 22 24  2  0  0  0  0
 29 30  1  0  0  0  0
 29 34  1  0  0  0  0
 30 31  1  0  0  0  0
 30 33  1  0  0  0  0
 30 35  1  0  0  0  0
 31 32  2  0  0  0  0
 31 39  1  0  0  0  0
 33 36  1  0  0  0  0
 33 37  1  0  0  0  0
 33 38  1  0  0  0  0
 39 40  1  0  0  0  0
 39 41  1  0  0  0  0
 40 42  1  0  0  0  0
 40 43  1  0  0  0  0
 40 44  1  0  0  0  0
M  CHG  1  23  -1
M  END
$$$$

  -OEChem-05262215553D

 44 43  0     1  0  0  0  0  0999 V2000
   -4.3375   -0.4081   -4.5175 C   0  0  0  0  0  0  0  0  0  0  0  0
   -3.9750   -1.4656   -5.0101 O   0  0  0  0  0  0  0  0  0  0  0  0
   -5.7375    0.1098   -4.7917 C   0  0  0  0  0  0  0  0  0  0  0  0
   -5.6831    1.0471   -5.3503 H   0  0  0  0  0  0  0  0  0  0  0  0
   -6.3020   -0.6200   -5.3789 H   0  0  0  0  0  0  0  0  0  0  0  0
   -6.2619    0.2860   -3.8492 H   0  0  0  0  0  0  0  0  0  0  0  0
   -3.4941    0.3201   -3.7077 N   0  0  0  0  0  0  0  0  0  0  0  0
   -2.2212   -0.1799   -3.1704 C   0  0  2  0  0  0  0  0  0  0  0  0
   -2.0224    0.2688   -1.7053 C   0  0  0  0  0  0  0  0  0  0  0  0
   -2.9028    0.9254   -1.1603 O   0  0  0  0  0  0  0  0  0  0  0  0
   -1.0838    0.3414   -4.0544 C   0  0  0  0  0  0  0  0  0  0  0  0
   -3.9171    1.0831   -3.1793 H   0  0  0  0  0  0  0  0  0  0  0  0
   -2.2108   -1.2748   -3.1805 H   0  0  0  0  0  0  0  0  0  0  0  0
   -1.0571    1.4356   -4.0392 H   0  0  0  0  0  0  0  0  0  0  0  0
   -0.1166   -0.0328   -3.7030 H   0  0  0  0  0  0  0  0  0  0  0  0
   -1.2250    0.0090   -5.0874 H   0  0  0  0  0  0  0  0  0  0  0  0
   -0.9292   -0.1949   -0.9975 N   0  0  0  0  0  0  0  0  0  0  0  0
   -0.2028    0.4961    0.0846 C   0  0  2  0  0  0  0  0  0  0  0  0
   -0.9851    1.4864    0.9885 C   0  0  0  0  0  0  0  0  0  0  0  0
   -1.2648    2.6251    0.6214 O   0  0  0  0  0  0  0  0  0  0  0  0
    0.9743    1.2115   -0.6128 C   0  0  0  0  0  0  0  0  0  0  0  0
    2.0119    0.2310   -1.1495 C   0  0  0  0  0  0  0  0  0  0  0  0
    2.1523   -0.8689   -0.5595 O   0  5  0  0  0  0  0  0  0  0  0  0
    2.5749    0.5346   -2.2265 O   0  0  0  0  0  0  0  0  0  0  0  0
   -0.3219   -0.8046   -1.5437 H   0  0  0  0  0  0  0  0  0  0  0  0
    0.1901   -0.2656    0.7652 H   0  0  0  0  0  0  0  0  0  0  0  0
    1.4801    1.8605    0.1069 H   0  0  0  0  0  0  0  0  0  0  0  0
    0.6037    1.8426   -1.4259 H   0  0  0  0  0  0  0  0  0  0  0  0
   -1.0556    1.2424    2.3498 N   0  0  0  0  0  0  0  0  0  0  0  0
   -1.6394    2.1611    3.3340 C   0  0  2  0  0  0  0  0  0  0  0  0
   -1.1576    1.8679    4.7691 C   0  0  0  0  0  0  0  0  0  0  0  0
   -0.7258    0.7614    5.0753 O   0  0  0  0  0  0  0  0  0  0  0  0
   -3.1664    2.0486    3.2606 C   0  0  0  0  0  0  0  0  0  0  0  0
   -0.6969    0.3520    2.6899 H   0  0  0  0  0  0  0  0  0  0  0  0
   -1.3398    3.1862    3.0918 H   0  0  0  0  0  0  0  0  0  0  0  0
   -3.4840    1.0258    3.4865 H   0  0  0  0  0  0  0  0  0  0  0  0
   -3.6375    2.7281    3.9768 H   0  0  0  0  0  0  0  0  0  0  0  0
   -3.5196    2.3079    2.2573 H   0  0  0  0  0  0  0  0  0  0  0  0
   -1.2278    2.8559    5.7352 N   0  0  0  0  0  0  0  0  0  0  0  0
   -0.7593    2.6743    7.1023 C   0  0  0  0  0  0  0  0  0  0  0  0
   -1.5487    3.7731    5.4399 H   0  0  0  0  0  0  0  0  0  0  0  0
   -1.2880    1.8434    7.5807 H   0  0  0  0  0  0  0  0  0  0  0  0
    0.3151    2.4633    7.1135 H   0  0  0  0  0  0  0  0  0  0  0  0
   -0.9411    3.5812    7.6865 H   0  0  0  0  0  0  0  0  0  0  0  0
  1  2  2  0  0  0  0
  1  3  1  0  0  0  0
  1  7  1  0  0  0  0
  3  4  1  0  0  0  0
  3  5  1  0  0  0  0
  3  6  1  0  0  0  0
  7  8  1  0  0  0  0
  7 12  1  0  0  0  0
  8  9  1  0  0  0  0
  8 11  1  0  0  0  0
  8 13  1  0  0  0  0
  9 10  2  0  0  0  0
  9 17  1  0  0  0  0
 11 14  1  0  0  0  0
 11 15  1  0  0  0  0
 11 16  1  0  0  0  0
 17 18  1  0  0  0  0
 17 25  1  0  0  0  0
 18 19  1  0  0  0  0
 18 21  1  0  0  0  0
 18 26  1  0  0  0  0
 19 20  2  0  0  0  0
 19 29  1  0  0  0  0
 21 22  1  0  0  0  0
 21 27  1  0  0  0  0
 21 28  1  0  0  0  0
 22 23  1  0  0  0  0
 22 24  2  0  0  0  0
 29 30  1  0  0  0  0
 29 34  1  0  0  0  0
 30 31  1  0  0  0  0
 30 33  1  0  0  0  0
 30 35  1  0  0  0  0
 31 32  2  0  0  0  0
 31 39  1  0  0  0  0
 33 36  1  0  0  0  0
 33 37  1  0  0  0  0
 33 38  1  0  0  0  0
 39 40  1  0  0  0  0
 39 41  1  0  0  0  0
 40 42  1  0  0  0  0
 40 43  1  0  0  0  0
 40 44  1  0  0  0  0
M  CHG  1  23  -1
M  END
$$$$

  -OEChem-05262215553D

 44 43  0     1  0  0  0  0  0999 V2000
   -4.2482   -0.4514   -4.6350 C   0  0  0  0  0  0  0  0  0  0  0  0
   -3.7639   -1.4151   -5.2090 O   0  0  0  0  0  0  0  0  0  0  0  0
   -5.6727   -0.0274   -4.9422 C   0  0  0  0  0  0  0  0  0  0  0  0
   -5.6760    0.9777   -5.3708 H   0  0  0  0  0  0  0  0  0  0  0  0
   -6.1274   -0.7187   -5.6570 H   0  0  0  0  0  0  0  0  0  0  0  0
   -6.2667   -0.0272   -4.0250 H   0  0  0  0  0  0  0  0  0  0  0  0
   -3.5207    0.2565   -3.7040 N   0  0  0  0  0  0  0  0  0  0  0  0
   -2.2283   -0.1724   -3.1536 C   0  0  2  0  0  0  0  0  0  0  0  0
   -2.1105    0.2024   -1.6589 C   0  0  0  0  0  0  0  0  0  0  0  0
   -3.0664    0.7300   -1.1014 O   0  0  0  0  0  0  0  0  0  0  0  0
   -1.1109    0.4864   -3.9690 C   0  0  0  0  0  0  0  0  0  0  0  0
   -4.0350    0.9266   -3.1323 H   0  0  0  0  0  0  0  0  0  0  0  0
   -2.1322   -1.2609   -3.2258 H   0  0  0  0  0  0  0  0  0  0  0  0
   -1.1651    1.5764   -3.8835 H   0  0  0  0  0  0  0  0  0  0  0  0
   -0.1280    0.1597   -3.6139 H   0  0  0  0  0  0  0  0  0  0  0  0
   -1.2008    0.2130   -5.0248 H   0  0  0  0  0  0  0  0  0  0  0  0
   -1.0142   -0.2286   -0.9369 N   0  0  0  0  0  0  0  0  0  0  0  0
   -0.3197    0.4877    0.1500 C   0  0  2  0  0  0  0  0  0  0  0  0
   -1.1101    1.4687    1.0574 C   0  0  0  0  0  0  0  0  0  0  0  0
   -1.5869    2.5169    0.6304 O   0  0  0  0  0  0  0  0  0  0  0  0
    0.8372    1.2415   -0.5393 C   0  0  0  0  0  0  0  0  0  0  0  0
    1.9128    0.2985   -1.0677 C   0  0  0  0  0  0  0  0  0  0  0  0
    2.0884   -0.7953   -0.4765 O   0  5  0  0  0  0  0  0  0  0  0  0
    2.4727    0.6236   -2.1396 O   0  0  0  0  0  0  0  0  0  0  0  0
   -0.3699   -0.7899   -1.4921 H   0  0  0  0  0  0  0  0  0  0  0  0
    0.0884   -0.2661    0.8305 H   0  0  0  0  0  0  0  0  0  0  0  0
    1.3147    1.9086    0.1833 H   0  0  0  0  0  0  0  0  0  0  0  0
    0.4494    1.8588   -1.3555 H   0  0  0  0  0  0  0  0  0  0  0  0
   -0.9115    1.4069    2.4273 N   0  0  0  0  0  0  0  0  0  0  0  0
   -1.3591    2.4247    3.3865 C   0  0  2  0  0  0  0  0  0  0  0  0
   -0.5704    2.3713    4.7110 C   0  0  0  0  0  0  0  0  0  0  0  0
   -0.0163    1.3387    5.0729 O   0  0  0  0  0  0  0  0  0  0  0  0
   -2.8543    2.2223    3.6554 C   0  0  0  0  0  0  0  0  0  0  0  0
   -0.3478    0.6378    2.7863 H   0  0  0  0  0  0  0  0  0  0  0  0
   -1.2023    3.4186    2.9546 H   0  0  0  0  0  0  0  0  0  0  0  0
   -3.0337    1.2329    4.0878 H   0  0  0  0  0  0  0  0  0  0  0  0
   -3.2250    2.9811    4.3505 H   0  0  0  0  0  0  0  0  0  0  0  0
   -3.4229    2.3028    2.7233 H   0  0  0  0  0  0  0  0  0  0  0  0
   -0.4959    3.4948    5.5148 N   0  0  0  0  0  0  0  0  0  0  0  0
    0.2599    3.5415    6.7591 C   0  0  0  0  0  0  0  0  0  0  0  0
   -0.9179    4.3479    5.1604 H   0  0  0  0  0  0  0  0  0  0  0  0
   -0.1077    2.7837    7.4588 H   0  0  0  0  0  0  0  0  0  0  0  0
    1.3231    3.3608    6.5687 H   0  0  0  0  0  0  0  0  0  0  0  0
    0.1530    4.5242    7.2278 H   0  0  0  0  0  0  0  0  0  0  0  0
  1  2  2  0  0  0  0
  1  3  1  0  0  0  0
  1  7  1  0  0  0  0
  3  4  1  0  0  0  0
  3  5  1  0  0  0  0
  3  6  1  0  0  0  0
  7  8  1  0  0  0  0
  7 12  1  0  0  0  0
  8  9  1  0  0  0  0
  8 11  1  0  0  0  0
  8 13  1  0  0  0  0
  9 10  2  0  0  0  0
  9 17  1  0  0  0  0
 11 14  1  0  0  0  0
 11 15  1  0  0  0  0
 11 16  1  0  0  0  0
 17 18  1  0  0  0  0
 17 25  1  0  0  0  0
 18 19  1  0  0  0  0
 18 21  1  0  0  0  0
 18 26  1  0  0  0  0
 19 20  2  0  0  0  0
 19 29  1  0  0  0  0
 21 22  1  0  0  0  0
 21 27  1  0  0  0  0
 21 28  1  0  0  0  0
 22 23  1  0  0  0  0
 22 24  2  0  0  0  0
 29 30  1  0  0  0  0
 29 34  1  0  0  0  0
 30 31  1  0  0  0  0
 30 33  1  0  0  0  0
 30 35  1  0  0  0  0
 31 32  2  0  0  0  0
 31 39  1  0  0  0  0
 33 36  1  0  0  0  0
 33 37  1  0  0  0  0
 33 38  1  0  0  0  0
 39 40  1  0  0  0  0
 39 41  1  0  0  0  0
 40 42  1  0  0  0  0
 40 43  1  0  0  0  0
 40 44  1  0  0  0  0
M  CHG  1  23  -1
M  END
$$$$

  -OEChem-05262215553D

 44 43  0     1  0  0  0  0  0999 V2000
   -4.6228   -0.2156   -4.0072 C   0  0  0  0  0  0  0  0  0  0  0  0
   -4.6796   -1.4360   -3.9796 O   0  0  0  0  0  0  0  0  0  0  0  0
   -5.8647    0.5939   -4.3322 C   0  0  0  0  0  0  0  0  0  0  0  0
   -5.6845    1.2137   -5.2140 H   0  0  0  0  0  0  0  0  0  0  0  0
   -6.7091   -0.0710   -4.5337 H   0  0  0  0  0  0  0  0  0  0  0  0
   -6.1173    1.2400   -3.4876 H   0  0  0  0  0  0  0  0  0  0  0  0
   -3.4425    0.4412   -3.7400 N   0  0  0  0  0  0  0  0  0  0  0  0
   -2.2525   -0.1886   -3.1554 C   0  0  2  0  0  0  0  0  0  0  0  0
   -1.6058    0.7434   -2.1074 C   0  0  0  0  0  0  0  0  0  0  0  0
   -1.8944    1.9341   -2.1352 O   0  0  0  0  0  0  0  0  0  0  0  0
   -1.2680   -0.5039   -4.2849 C   0  0  0  0  0  0  0  0  0  0  0  0
   -3.4990    1.4524   -3.6122 H   0  0  0  0  0  0  0  0  0  0  0  0
   -2.5283   -1.1166   -2.6443 H   0  0  0  0  0  0  0  0  0  0  0  0
   -0.9675    0.4156   -4.7974 H   0  0  0  0  0  0  0  0  0  0  0  0
   -0.3703   -0.9889   -3.8894 H   0  0  0  0  0  0  0  0  0  0  0  0
   -1.7308   -1.1757   -5.0144 H   0  0  0  0  0  0  0  0  0  0  0  0
   -0.6230    0.2373   -1.2759 N   0  0  0  0  0  0  0  0  0  0  0  0
   -0.0449    0.7928   -0.0369 C   0  0  2  0  0  0  0  0  0  0  0  0
   -0.8734    1.6950    0.9223 C   0  0  0  0  0  0  0  0  0  0  0  0
   -1.9551    2.2048    0.6596 O   0  0  0  0  0  0  0  0  0  0  0  0
    1.2603    1.5027   -0.4459 C   0  0  0  0  0  0  0  0  0  0  0  0
    2.3360    0.5153   -0.8950 C   0  0  0  0  0  0  0  0  0  0  0  0
    2.3233   -0.6423   -0.4023 O   0  5  0  0  0  0  0  0  0  0  0  0
    3.1714    0.9191   -1.7371 O   0  0  0  0  0  0  0  0  0  0  0  0
   -0.2899   -0.6925   -1.5167 H   0  0  0  0  0  0  0  0  0  0  0  0
    0.2020   -0.0694    0.5905 H   0  0  0  0  0  0  0  0  0  0  0  0
    1.6610    2.0582    0.4057 H   0  0  0  0  0  0  0  0  0  0  0  0
    1.0572    2.2182   -1.2486 H   0  0  0  0  0  0  0  0  0  0  0  0
   -0.5469    1.6557    2.2689 N   0  0  0  0  0  0  0  0  0  0  0  0
   -1.2512    2.4002    3.3221 C   0  0  2  0  0  0  0  0  0  0  0  0
   -0.2901    2.9447    4.3977 C   0  0  0  0  0  0  0  0  0  0  0  0
    0.7431    2.3459    4.6743 O   0  0  0  0  0  0  0  0  0  0  0  0
   -2.2883    1.4695    3.9559 C   0  0  0  0  0  0  0  0  0  0  0  0
    0.3594    1.2541    2.5089 H   0  0  0  0  0  0  0  0  0  0  0  0
   -1.7653    3.2621    2.8843 H   0  0  0  0  0  0  0  0  0  0  0  0
   -1.7976    0.6013    4.4071 H   0  0  0  0  0  0  0  0  0  0  0  0
   -2.8514    1.9960    4.7319 H   0  0  0  0  0  0  0  0  0  0  0  0
   -2.9929    1.1168    3.1960 H   0  0  0  0  0  0  0  0  0  0  0  0
   -0.5985    4.1102    5.0765 N   0  0  0  0  0  0  0  0  0  0  0  0
    0.2930    4.7251    6.0509 C   0  0  0  0  0  0  0  0  0  0  0  0
   -1.4215    4.6209    4.7707 H   0  0  0  0  0  0  0  0  0  0  0  0
    0.4966    4.0329    6.8743 H   0  0  0  0  0  0  0  0  0  0  0  0
    1.2416    5.0025    5.5797 H   0  0  0  0  0  0  0  0  0  0  0  0
   -0.1657    5.6279    6.4648 H   0  0  0  0  0  0  0  0  0  0  0  0
  1  2  2  0  0  0  0
  1  3  1  0  0  0  0
  1  7  1  0  0  0  0
  3  4  1  0  0  0  0
  3  5  1  0  0  0  0
  3  6  1  0  0  0  0
  7  8  1  0  0  0  0
  7 12  1  0  0  0  0
  8  9  1  0  0  0  0
  8 11  1  0  0  0  0
  8 13  1  0  0  0  0
  9 10  2  0  0  0  0
  9 17  1  0  0  0  0
 11 14  1  0  0  0  0
 11 15  1  0  0  0  0
 11 16  1  0  0  0  0
 17 18  1  0  0  0  0
 17 25  1  0  0  0  0
 18 19  1  0  0  0  0
 18 21  1  0  0  0  0
 18 26  1  0  0  0  0
 19 20  2  0  0  0  0
 19 29  1  0  0  0  0
 21 22  1  0  0  0  0
 21 27  1  0  0  0  0
 21 28  1  0  0  0  0
 22 23  1  0  0  0  0
 22 24  2  0  0  0  0
 29 30  1  0  0  0  0
 29 34  1  0  0  0  0
 30 31  1  0  0  0  0
 30 33  1  0  0  0  0
 30 35  1  0  0  0  0
 31 32  2  0  0  0  0
 31 39  1  0  0  0  0
 33 36  1  0  0  0  0
 33 37  1  0  0  0  0
 33 38  1  0  0  0  0
 39 40  1  0  0  0  0
 39 41  1  0  0  0  0
 40 42  1  0  0  0  0
 40 43  1  0  0  0  0
 40 44  1  0  0  0  0
M  CHG  1  23  -1
M  END
$$$$

  -OEChem-05262215553D

 44 43  0     1  0  0  0  0  0999 V2000
   -4.6374   -0.1263   -3.9663 C   0  0  0  0  0  0  0  0  0  0  0  0
   -4.7126   -1.3459   -3.9867 O   0  0  0  0  0  0  0  0  0  0  0  0
   -5.8624    0.7118   -4.2842 C   0  0  0  0  0  0  0  0  0  0  0  0
   -5.6784    1.3162   -5.1758 H   0  0  0  0  0  0  0  0  0  0  0  0
   -6.7264    0.0663   -4.4658 H   0  0  0  0  0  0  0  0  0  0  0  0
   -6.0883    1.3741   -3.4447 H   0  0  0  0  0  0  0  0  0  0  0  0
   -3.4507    0.4996   -3.6553 N   0  0  0  0  0  0  0  0  0  0  0  0
   -2.2739   -0.1765   -3.0963 C   0  0  2  0  0  0  0  0  0  0  0  0
   -1.5660    0.7254   -2.0623 C   0  0  0  0  0  0  0  0  0  0  0  0
   -1.8076    1.9289   -2.0671 O   0  0  0  0  0  0  0  0  0  0  0  0
   -1.3258   -0.5332   -4.2450 C   0  0  0  0  0  0  0  0  0  0  0  0
   -3.4840    1.5081   -3.5026 H   0  0  0  0  0  0  0  0  0  0  0  0
   -2.5779   -1.0920   -2.5781 H   0  0  0  0  0  0  0  0  0  0  0  0
   -0.9900    0.3734   -4.7585 H   0  0  0  0  0  0  0  0  0  0  0  0
   -0.4461   -1.0642   -3.8677 H   0  0  0  0  0  0  0  0  0  0  0  0
   -1.8338   -1.1778   -4.9690 H   0  0  0  0  0  0  0  0  0  0  0  0
   -0.5745    0.1852   -1.2636 N   0  0  0  0  0  0  0  0  0  0  0  0
    0.0330    0.7417   -0.0412 C   0  0  2  0  0  0  0  0  0  0  0  0
   -0.8003    1.6586    0.8966 C   0  0  0  0  0  0  0  0  0  0  0  0
   -2.0076    1.8393    0.7736 O   0  0  0  0  0  0  0  0  0  0  0  0
    1.3356    1.4386   -0.4860 C   0  0  0  0  0  0  0  0  0  0  0  0
    2.3907    0.4372   -0.9529 C   0  0  0  0  0  0  0  0  0  0  0  0
    2.3794   -0.7169   -0.4522 O   0  5  0  0  0  0  0  0  0  0  0  0
    3.2088    0.8278   -1.8179 O   0  0  0  0  0  0  0  0  0  0  0  0
   -0.2861   -0.7613   -1.4954 H   0  0  0  0  0  0  0  0  0  0  0  0
    0.2852   -0.1078    0.6012 H   0  0  0  0  0  0  0  0  0  0  0  0
    1.7650    1.9977    0.3489 H   0  0  0  0  0  0  0  0  0  0  0  0
    1.1206    2.1496   -1.2895 H   0  0  0  0  0  0  0  0  0  0  0  0
   -0.2982    1.8955    2.1660 N   0  0  0  0  0  0  0  0  0  0  0  0
   -0.9909    2.6660    3.2076 C   0  0  2  0  0  0  0  0  0  0  0  0
   -0.0282    3.5808    3.9913 C   0  0  0  0  0  0  0  0  0  0  0  0
    1.1508    3.2760    4.1320 O   0  0  0  0  0  0  0  0  0  0  0  0
   -1.6856    1.6825    4.1526 C   0  0  0  0  0  0  0  0  0  0  0  0
    0.6998    1.7308    2.2967 H   0  0  0  0  0  0  0  0  0  0  0  0
   -1.7461    3.3122    2.7483 H   0  0  0  0  0  0  0  0  0  0  0  0
   -0.9511    1.0220    4.6243 H   0  0  0  0  0  0  0  0  0  0  0  0
   -2.2259    2.2217    4.9360 H   0  0  0  0  0  0  0  0  0  0  0  0
   -2.4018    1.0685    3.5972 H   0  0  0  0  0  0  0  0  0  0  0  0
   -0.4941    4.7562    4.5531 N   0  0  0  0  0  0  0  0  0  0  0  0
    0.3725    5.7186    5.2200 C   0  0  0  0  0  0  0  0  0  0  0  0
   -1.4540    5.0177    4.3491 H   0  0  0  0  0  0  0  0  0  0  0  0
    0.8945    5.2480    6.0598 H   0  0  0  0  0  0  0  0  0  0  0  0
    1.1153    6.1135    4.5188 H   0  0  0  0  0  0  0  0  0  0  0  0
   -0.2190    6.5540    5.6066 H   0  0  0  0  0  0  0  0  0  0  0  0
  1  2  2  0  0  0  0
  1  3  1  0  0  0  0
  1  7  1  0  0  0  0
  3  4  1  0  0  0  0
  3  5  1  0  0  0  0
  3  6  1  0  0  0  0
  7  8  1  0  0  0  0
  7 12  1  0  0  0  0
  8  9  1  0  0  0  0
  8 11  1  0  0  0  0
  8 13  1  0  0  0  0
  9 10  2  0  0  0  0
  9 17  1  0  0  0  0
 11 14  1  0  0  0  0
 11 15  1  0  0  0  0
 11 16  1  0  0  0  0
 17 18  1  0  0  0  0
 17 25  1  0  0  0  0
 18 19  1  0  0  0  0
 18 21  1  0  0  0  0
 18 26  1  0  0  0  0
 19 20  2  0  0  0  0
 19 29  1  0  0  0  0
 21 22  1  0  0  0  0
 21 27  1  0  0  0  0
 21 28  1  0  0  0  0
 22 23  1  0  0  0  0
 22 24  2  0  0  0  0
 29 30  1  0  0  0  0
 29 34  1  0  0  0  0
 30 31  1  0  0  0  0
 30 33  1  0  0  0  0
 30 35  1  0  0  0  0
 31 32  2  0  0  0  0
 31 39  1  0  0  0  0
 33 36  1  0  0  0  0
 33 37  1  0  0  0  0
 33 38  1  0  0  0  0
 39 40  1  0  0  0  0
 39 41  1  0  0  0  0
 40 42  1  0  0  0  0
 40 43  1  0  0  0  0
 40 44  1  0  0  0  0
M  CHG  1  23  -1
M  END
$$$$

  -OEChem-05262215553D

 44 43  0     1  0  0  0  0  0999 V2000
   -4.6057   -0.1122   -4.0013 C   0  0  0  0  0  0  0  0  0  0  0  0
   -4.5758   -1.3112   -4.2349 O   0  0  0  0  0  0  0  0  0  0  0  0
   -5.8870    0.6692   -4.2266 C   0  0  0  0  0  0  0  0  0  0  0  0
   -5.7195    1.4526   -4.9695 H   0  0  0  0  0  0  0  0  0  0  0  0
   -6.6774    0.0040   -4.5852 H   0  0  0  0  0  0  0  0  0  0  0  0
   -6.2114    1.1291   -3.2898 H   0  0  0  0  0  0  0  0  0  0  0  0
   -3.4884    0.5416   -3.5316 N   0  0  0  0  0  0  0  0  0  0  0  0
   -2.2668   -0.1241   -3.0634 C   0  0  2  0  0  0  0  0  0  0  0  0
   -1.6503    0.6348   -1.8685 C   0  0  0  0  0  0  0  0  0  0  0  0
   -2.0181    1.7852   -1.6415 O   0  0  0  0  0  0  0  0  0  0  0  0
   -1.2740   -0.1937   -4.2281 C   0  0  0  0  0  0  0  0  0  0  0  0
   -3.6116    1.5021   -3.2104 H   0  0  0  0  0  0  0  0  0  0  0  0
   -2.5001   -1.1383   -2.7227 H   0  0  0  0  0  0  0  0  0  0  0  0
   -1.0148    0.8139   -4.5689 H   0  0  0  0  0  0  0  0  0  0  0  0
   -0.3543   -0.7021   -3.9218 H   0  0  0  0  0  0  0  0  0  0  0  0
   -1.7107   -0.7457   -5.0663 H   0  0  0  0  0  0  0  0  0  0  0  0
   -0.6345    0.0388   -1.1423 N   0  0  0  0  0  0  0  0  0  0  0  0
    0.0705    0.5993    0.0218 C   0  0  2  0  0  0  0  0  0  0  0  0
   -0.8048    1.2672    1.1164 C   0  0  0  0  0  0  0  0  0  0  0  0
   -2.0025    1.0185    1.2325 O   0  0  0  0  0  0  0  0  0  0  0  0
    1.1562    1.5495   -0.5309 C   0  0  0  0  0  0  0  0  0  0  0  0
    2.2677    0.7865   -1.2497 C   0  0  0  0  0  0  0  0  0  0  0  0
    2.5217   -0.3881   -0.8786 O   0  5  0  0  0  0  0  0  0  0  0  0
    2.8520    1.3762   -2.1884 O   0  0  0  0  0  0  0  0  0  0  0  0
   -0.2444   -0.8164   -1.5290 H   0  0  0  0  0  0  0  0  0  0  0  0
    0.5573   -0.2280    0.5470 H   0  0  0  0  0  0  0  0  0  0  0  0
    1.6238    2.1022    0.2869 H   0  0  0  0  0  0  0  0  0  0  0  0
    0.7083    2.2785   -1.2128 H   0  0  0  0  0  0  0  0  0  0  0  0
   -0.1872    1.8133    2.2295 N   0  0  0  0  0  0  0  0  0  0  0  0
   -0.8987    2.3985    3.3736 C   0  0  2  0  0  0  0  0  0  0  0  0
   -0.1790    3.6391    3.9409 C   0  0  0  0  0  0  0  0  0  0  0  0
    1.0400    3.7458    3.8664 O   0  0  0  0  0  0  0  0  0  0  0  0
   -1.0384    1.3241    4.4552 C   0  0  0  0  0  0  0  0  0  0  0  0
    0.8098    2.0095    2.1477 H   0  0  0  0  0  0  0  0  0  0  0  0
   -1.8966    2.7207    3.0584 H   0  0  0  0  0  0  0  0  0  0  0  0
   -0.0518    0.9872    4.7887 H   0  0  0  0  0  0  0  0  0  0  0  0
   -1.5842    1.7181    5.3174 H   0  0  0  0  0  0  0  0  0  0  0  0
   -1.5869    0.4621    4.0624 H   0  0  0  0  0  0  0  0  0  0  0  0
   -0.9078    4.6365    4.5645 N   0  0  0  0  0  0  0  0  0  0  0  0
   -0.3115    5.8694    5.0617 C   0  0  0  0  0  0  0  0  0  0  0  0
   -1.9199    4.5563    4.5360 H   0  0  0  0  0  0  0  0  0  0  0  0
    0.4770    5.6484    5.7885 H   0  0  0  0  0  0  0  0  0  0  0  0
    0.1198    6.4458    4.2369 H   0  0  0  0  0  0  0  0  0  0  0  0
   -1.0715    6.4832    5.5539 H   0  0  0  0  0  0  0  0  0  0  0  0
  1  2  2  0  0  0  0
  1  3  1  0  0  0  0
  1  7  1  0  0  0  0
  3  4  1  0  0  0  0
  3  5  1  0  0  0  0
  3  6  1  0  0  0  0
  7  8  1  0  0  0  0
  7 12  1  0  0  0  0
  8  9  1  0  0  0  0
  8 11  1  0  0  0  0
  8 13  1  0  0  0  0
  9 10  2  0  0  0  0
  9 17  1  0  0  0  0
 11 14  1  0  0  0  0
 11 15  1  0  0  0  0
 11 16  1  0  0  0  0
 17 18  1  0  0  0  0
 17 25  1  0  0  0  0
 18 19  1  0  0  0  0
 18 21  1  0  0  0  0
 18 26  1  0  0  0  0
 19 20  2  0  0  0  0
 19 29  1  0  0  0  0
 21 22  1  0  0  0  0
 21 27  1  0  0  0  0
 21 28  1  0  0  0  0
 22 23  1  0  0  0  0
 22 24  2  0  0  0  0
 29 30  1  0  0  0  0
 29 34  1  0  0  0  0
 30 31  1  0  0  0  0
 30 33  1  0  0  0  0
 30 35  1  0  0  0  0
 31 32  2  0  0  0  0
 31 39  1  0  0  0  0
 33 36  1  0  0  0  0
 33 37  1  0  0  0  0
 33 38  1  0  0  0  0
 39 40  1  0  0  0  0
 39 41  1  0  0  0  0
 40 42  1  0  0  0  0
 40 43  1  0  0  0  0
 40 44  1  0  0  0  0
M  CHG  1  23  -1
M  END
$$$$

  -OEChem-05262215553D

 44 43  0     1  0  0  0  0  0999 V2000
   -4.5958   -0.0992   -3.9729 C   0  0  0  0  0  0  0  0  0  0  0  0
   -4.5551   -1.2905   -4.2416 O   0  0  0  0  0  0  0  0  0  0  0  0
   -5.8797    0.6807   -4.1897 C   0  0  0  0  0  0  0  0  0  0  0  0
   -5.7066    1.4917   -4.9015 H   0  0  0  0  0  0  0  0  0  0  0  0
   -6.6591    0.0237   -4.5855 H   0  0  0  0  0  0  0  0  0  0  0  0
   -6.2230    1.1043   -3.2425 H   0  0  0  0  0  0  0  0  0  0  0  0
   -3.4873    0.5474   -3.4729 N   0  0  0  0  0  0  0  0  0  0  0  0
   -2.2599   -0.1225   -3.0258 C   0  0  2  0  0  0  0  0  0  0  0  0
   -1.6379    0.6133   -1.8196 C   0  0  0  0  0  0  0  0  0  0  0  0
   -2.0215    1.7502   -1.5524 O   0  0  0  0  0  0  0  0  0  0  0  0
   -1.2724   -0.1653   -4.1964 C   0  0  0  0  0  0  0  0  0  0  0  0
   -3.6178    1.4982   -3.1274 H   0  0  0  0  0  0  0  0  0  0  0  0
   -2.4874   -1.1443   -2.7043 H   0  0  0  0  0  0  0  0  0  0  0  0
   -1.0167    0.8493   -4.5182 H   0  0  0  0  0  0  0  0  0  0  0  0
   -0.3505   -0.6780   -3.9049 H   0  0  0  0  0  0  0  0  0  0  0  0
   -1.7115   -0.7004   -5.0438 H   0  0  0  0  0  0  0  0  0  0  0  0
   -0.6107    0.0099   -1.1159 N   0  0  0  0  0  0  0  0  0  0  0  0
    0.1269    0.5774    0.0236 C   0  0  2  0  0  0  0  0  0  0  0  0
   -0.7472    1.2589    1.1106 C   0  0  0  0  0  0  0  0  0  0  0  0
   -1.8798    0.8504    1.3598 O   0  0  0  0  0  0  0  0  0  0  0  0
    1.2045    1.5134   -0.5718 C   0  0  0  0  0  0  0  0  0  0  0  0
    2.2894    0.7327   -1.3114 C   0  0  0  0  0  0  0  0  0  0  0  0
    2.5467   -0.4391   -0.9344 O   0  5  0  0  0  0  0  0  0  0  0  0
    2.8453    1.3055   -2.2772 O   0  0  0  0  0  0  0  0  0  0  0  0
   -0.2184   -0.8349   -1.5224 H   0  0  0  0  0  0  0  0  0  0  0  0
    0.6221   -0.2413    0.5559 H   0  0  0  0  0  0  0  0  0  0  0  0
    1.7036    2.0694    0.2238 H   0  0  0  0  0  0  0  0  0  0  0  0
    0.7431    2.2387   -1.2485 H   0  0  0  0  0  0  0  0  0  0  0  0
   -0.1659    2.0896    2.0534 N   0  0  0  0  0  0  0  0  0  0  0  0
   -0.9014    2.7575    3.1334 C   0  0  2  0  0  0  0  0  0  0  0  0
   -0.3611    4.1735    3.4195 C   0  0  0  0  0  0  0  0  0  0  0  0
    0.8195    4.4457    3.2314 O   0  0  0  0  0  0  0  0  0  0  0  0
   -0.8072    1.8868    4.3890 C   0  0  0  0  0  0  0  0  0  0  0  0
    0.7673    2.4383    1.8382 H   0  0  0  0  0  0  0  0  0  0  0  0
   -1.9531    2.8645    2.8478 H   0  0  0  0  0  0  0  0  0  0  0  0
    0.2376    1.7684    4.6937 H   0  0  0  0  0  0  0  0  0  0  0  0
   -1.3634    2.3417    5.2138 H   0  0  0  0  0  0  0  0  0  0  0  0
   -1.2277    0.8955    4.1932 H   0  0  0  0  0  0  0  0  0  0  0  0
   -1.2066    5.1482    3.9193 N   0  0  0  0  0  0  0  0  0  0  0  0
   -0.7883    6.5237    4.1557 C   0  0  0  0  0  0  0  0  0  0  0  0
   -2.1926    4.9149    3.9883 H   0  0  0  0  0  0  0  0  0  0  0  0
    0.0398    6.5552    4.8714 H   0  0  0  0  0  0  0  0  0  0  0  0
   -0.4646    6.9911    3.2198 H   0  0  0  0  0  0  0  0  0  0  0  0
   -1.6198    7.1051    4.5654 H   0  0  0  0  0  0  0  0  0  0  0  0
  1  2  2  0  0  0  0
  1  3  1  0  0  0  0
  1  7  1  0  0  0  0
  3  4  1  0  0  0  0
  3  5  1  0  0  0  0
  3  6  1  0  0  0  0
  7  8  1  0  0  0  0
  7 12  1  0  0  0  0
  8  9  1  0  0  0  0
  8 11  1  0  0  0  0
  8 13  1  0  0  0  0
  9 10  2  0  0  0  0
  9 17  1  0  0  0  0
 11 14  1  0  0  0  0
 11 15  1  0  0  0  0
 11 16  1  0  0  0  0
 17 18  1  0  0  0  0
 17 25  1  0  0  0  0
 18 19  1  0  0  0  0
 18 21  1  0  0  0  0
 18 26  1  0  0  0  0
 19 20  2  0  0  0  0
 19 29  1  0  0  0  0
 21 22  1  0  0  0  0
 21 27  1  0  0  0  0
 21 28  1  0  0  0  0
 22 23  1  0  0  0  0
 22 24  2  0  0  0  0
 29 30  1  0  0  0  0
 29 34  1  0  0  0  0
 30 31  1  0  0  0  0
 30 33  1  0  0  0  0
 30 35  1  0  0  0  0
 31 32  2  0  0  0  0
 31 39  1  0  0  0  0
 33 36  1  0  0  0  0
 33 37  1  0  0  0  0
 33 38  1  0  0  0  0
 39 40  1  0  0  0  0
 39 41  1  0  0  0  0
 40 42  1  0  0  0  0
 40 43  1  0  0  0  0
 40 44  1  0  0  0  0
M  CHG  1  23  -1
M  END
$$$$

  -OEChem-05262215553D

 44 43  0     1  0  0  0  0  0999 V2000
   -4.5857   -0.0868   -3.9497 C   0  0  0  0  0  0  0  0  0  0  0  0
   -4.5528   -1.2782   -4.2184 O   0  0  0  0  0  0  0  0  0  0  0  0
   -5.8646    0.7018   -4.1636 C   0  0  0  0  0  0  0  0  0  0  0  0
   -5.6828    1.5229   -4.8615 H   0  0  0  0  0  0  0  0  0  0  0  0
   -6.6441    0.0543   -4.5746 H   0  0  0  0  0  0  0  0  0  0  0  0
   -6.2116    1.1123   -3.2121 H   0  0  0  0  0  0  0  0  0  0  0  0
   -3.4734    0.5530   -3.4496 N   0  0  0  0  0  0  0  0  0  0  0  0
   -2.2515   -0.1247   -2.9993 C   0  0  2  0  0  0  0  0  0  0  0  0
   -1.6366    0.5946   -1.7792 C   0  0  0  0  0  0  0  0  0  0  0  0
   -2.0426    1.7155   -1.4791 O   0  0  0  0  0  0  0  0  0  0  0  0
   -1.2568   -0.1551   -4.1641 C   0  0  0  0  0  0  0  0  0  0  0  0
   -3.5999    1.5039   -3.1032 H   0  0  0  0  0  0  0  0  0  0  0  0
   -2.4837   -1.1499   -2.6921 H   0  0  0  0  0  0  0  0  0  0  0  0
   -0.9900    0.8628   -4.4661 H   0  0  0  0  0  0  0  0  0  0  0  0
   -0.3412   -0.6809   -3.8753 H   0  0  0  0  0  0  0  0  0  0  0  0
   -1.6954   -0.6713   -5.0238 H   0  0  0  0  0  0  0  0  0  0  0  0
   -0.5993   -0.0081   -1.0905 N   0  0  0  0  0  0  0  0  0  0  0  0
    0.1659    0.5712    0.0244 C   0  0  2  0  0  0  0  0  0  0  0  0
   -0.6989    1.2708    1.1072 C   0  0  0  0  0  0  0  0  0  0  0  0
   -1.7379    0.7467    1.5040 O   0  0  0  0  0  0  0  0  0  0  0  0
    1.2374    1.4889   -0.6084 C   0  0  0  0  0  0  0  0  0  0  0  0
    2.2993    0.6865   -1.3585 C   0  0  0  0  0  0  0  0  0  0  0  0
    2.5557   -0.4814   -0.9696 O   0  5  0  0  0  0  0  0  0  0  0  0
    2.8303    1.2365   -2.3513 O   0  0  0  0  0  0  0  0  0  0  0  0
   -0.1953   -0.8371   -1.5191 H   0  0  0  0  0  0  0  0  0  0  0  0
    0.6664   -0.2395    0.5633 H   0  0  0  0  0  0  0  0  0  0  0  0
    1.7617    2.0469    0.1697 H   0  0  0  0  0  0  0  0  0  0  0  0
    0.7688    2.2108   -1.2838 H   0  0  0  0  0  0  0  0  0  0  0  0
   -0.2091    2.3396    1.8386 N   0  0  0  0  0  0  0  0  0  0  0  0
   -0.9824    3.0668    2.8520 C   0  0  2  0  0  0  0  0  0  0  0  0
   -0.6689    4.5770    2.8558 C   0  0  0  0  0  0  0  0  0  0  0  0
    0.4440    4.9884    2.5467 O   0  0  0  0  0  0  0  0  0  0  0  0
   -0.6771    2.4570    4.2227 C   0  0  0  0  0  0  0  0  0  0  0  0
    0.6206    2.7992    1.4655 H   0  0  0  0  0  0  0  0  0  0  0  0
   -2.0513    2.9589    2.6409 H   0  0  0  0  0  0  0  0  0  0  0  0
    0.3886    2.5533    4.4543 H   0  0  0  0  0  0  0  0  0  0  0  0
   -1.2527    2.9626    5.0035 H   0  0  0  0  0  0  0  0  0  0  0  0
   -0.9414    1.3949    4.2313 H   0  0  0  0  0  0  0  0  0  0  0  0
   -1.6400    5.4841    3.2421 N   0  0  0  0  0  0  0  0  0  0  0  0
   -1.4412    6.9269    3.2087 C   0  0  0  0  0  0  0  0  0  0  0  0
   -2.5732    5.1195    3.4075 H   0  0  0  0  0  0  0  0  0  0  0  0
   -0.5867    7.2109    3.8321 H   0  0  0  0  0  0  0  0  0  0  0  0
   -1.2578    7.2633    2.1828 H   0  0  0  0  0  0  0  0  0  0  0  0
   -2.3300    7.4391    3.5892 H   0  0  0  0  0  0  0  0  0  0  0  0
  1  2  2  0  0  0  0
  1  3  1  0  0  0  0
  1  7  1  0  0  0  0
  3  4  1  0  0  0  0
  3  5  1  0  0  0  0
  3  6  1  0  0  0  0
  7  8  1  0  0  0  0
  7 12  1  0  0  0  0
  8  9  1  0  0  0  0
  8 11  1  0  0  0  0
  8 13  1  0  0  0  0
  9 10  2  0  0  0  0
  9 17  1  0  0  0  0
 11 14  1  0  0  0  0
 11 15  1  0  0  0  0
 11 16  1  0  0  0  0
 17 18  1  0  0  0  0
 17 25  1  0  0  0  0
 18 19  1  0  0  0  0
 18 21  1  0  0  0  0
 18 26  1  0  0  0  0
 19 20  2  0  0  0  0
 19 29  1  0  0  0  0
 21 22  1  0  0  0  0
 21 27  1  0  0  0  0
 21 28  1  0  0  0  0
 22 23  1  0  0  0  0
 22 24  2  0  0  0  0
 29 30  1  0  0  0  0
 29 34  1  0  0  0  0
 30 31  1  0  0  0  0
 30 33  1  0  0  0  0
 30 35  1  0  0  0  0
 31 32  2  0  0  0  0
 31 39  1  0  0  0  0
 33 36  1  0  0  0  0
 33 37  1  0  0  0  0
 33 38  1  0  0  0  0
 39 40  1  0  0  0  0
 39 41  1  0  0  0  0
 40 42  1  0  0  0  0
 40 43  1  0  0  0  0
 40 44  1  0  0  0  0
M  CHG  1  23  -1
M  END
$$$$

  -OEChem-05262215553D

 44 43  0     1  0  0  0  0  0999 V2000
   -4.5769   -0.0744   -3.9401 C   0  0  0  0  0  0  0  0  0  0  0  0
   -4.5411   -1.2632   -4.2197 O   0  0  0  0  0  0  0  0  0  0  0  0
   -5.8510    0.7177   -4.1695 C   0  0  0  0  0  0  0  0  0  0  0  0
   -5.6633    1.5250   -4.8819 H   0  0  0  0  0  0  0  0  0  0  0  0
   -6.6343    0.0678   -4.5699 H   0  0  0  0  0  0  0  0  0  0  0  0
   -6.1973    1.1470   -3.2262 H   0  0  0  0  0  0  0  0  0  0  0  0
   -3.4717    0.5594   -3.4167 N   0  0  0  0  0  0  0  0  0  0  0  0
   -2.2510   -0.1213   -2.9673 C   0  0  2  0  0  0  0  0  0  0  0  0
   -1.6400    0.5863   -1.7383 C   0  0  0  0  0  0  0  0  0  0  0  0
   -2.0659    1.6920   -1.4101 O   0  0  0  0  0  0  0  0  0  0  0  0
   -1.2512   -0.1408   -4.1280 C   0  0  0  0  0  0  0  0  0  0  0  0
   -3.6018    1.5073   -3.0642 H   0  0  0  0  0  0  0  0  0  0  0  0
   -2.4837   -1.1495   -2.6709 H   0  0  0  0  0  0  0  0  0  0  0  0
   -0.9832    0.8802   -4.4189 H   0  0  0  0  0  0  0  0  0  0  0  0
   -0.3364   -0.6692   -3.8413 H   0  0  0  0  0  0  0  0  0  0  0  0
   -1.6854   -0.6490   -4.9944 H   0  0  0  0  0  0  0  0  0  0  0  0
   -0.5933   -0.0144   -1.0623 N   0  0  0  0  0  0  0  0  0  0  0  0
    0.1953    0.5753    0.0302 C   0  0  2  0  0  0  0  0  0  0  0  0
   -0.6546    1.2907    1.1126 C   0  0  0  0  0  0  0  0  0  0  0  0
   -1.5758    0.6909    1.6626 O   0  0  0  0  0  0  0  0  0  0  0  0
    1.2592    1.4811   -0.6315 C   0  0  0  0  0  0  0  0  0  0  0  0
    2.3048    0.6672   -1.3913 C   0  0  0  0  0  0  0  0  0  0  0  0
    2.5645   -0.4971   -0.9950 O   0  5  0  0  0  0  0  0  0  0  0  0
    2.8118    1.2016   -2.4047 O   0  0  0  0  0  0  0  0  0  0  0  0
   -0.1827   -0.8323   -1.5066 H   0  0  0  0  0  0  0  0  0  0  0  0
    0.7011   -0.2302    0.5722 H   0  0  0  0  0  0  0  0  0  0  0  0
    1.7977    2.0427    0.1350 H   0  0  0  0  0  0  0  0  0  0  0  0
    0.7829    2.1982   -1.3064 H   0  0  0  0  0  0  0  0  0  0  0  0
   -0.3037    2.5336    1.6107 N   0  0  0  0  0  0  0  0  0  0  0  0
   -1.1315    3.3016    2.5470 C   0  0  2  0  0  0  0  0  0  0  0  0
   -1.0768    4.8174    2.2684 C   0  0  0  0  0  0  0  0  0  0  0  0
   -0.0641    5.3373    1.8128 O   0  0  0  0  0  0  0  0  0  0  0  0
   -0.6564    3.0032    3.9712 C   0  0  0  0  0  0  0  0  0  0  0  0
    0.3929    3.0491    1.0737 H   0  0  0  0  0  0  0  0  0  0  0  0
   -2.1770    2.9924    2.4460 H   0  0  0  0  0  0  0  0  0  0  0  0
    0.3874    3.3080    4.0974 H   0  0  0  0  0  0  0  0  0  0  0  0
   -1.2696    3.5421    4.6993 H   0  0  0  0  0  0  0  0  0  0  0  0
   -0.7345    1.9312    4.1784 H   0  0  0  0  0  0  0  0  0  0  0  0
   -2.1685    5.6142    2.5650 N   0  0  0  0  0  0  0  0  0  0  0  0
   -2.2197    7.0391    2.2670 C   0  0  0  0  0  0  0  0  0  0  0  0
   -3.0177    5.1421    2.8602 H   0  0  0  0  0  0  0  0  0  0  0  0
   -1.4035    7.5658    2.7719 H   0  0  0  0  0  0  0  0  0  0  0  0
   -2.1351    7.2073    1.1884 H   0  0  0  0  0  0  0  0  0  0  0  0
   -3.1678    7.4626    2.6114 H   0  0  0  0  0  0  0  0  0  0  0  0
  1  2  2  0  0  0  0
  1  3  1  0  0  0  0
  1  7  1  0  0  0  0
  3  4  1  0  0  0  0
  3  5  1  0  0  0  0
  3  6  1  0  0  0  0
  7  8  1  0  0  0  0
  7 12  1  0  0  0  0
  8  9  1  0  0  0  0
  8 11  1  0  0  0  0
  8 13  1  0  0  0  0
  9 10  2  0  0  0  0
  9 17  1  0  0  0  0
 11 14  1  0  0  0  0
 11 15  1  0  0  0  0
 11 16  1  0  0  0  0
 17 18  1  0  0  0  0
 17 25  1  0  0  0  0
 18 19  1  0  0  0  0
 18 21  1  0  0  0  0
 18 26  1  0  0  0  0
 19 20  2  0  0  0  0
 19 29  1  0  0  0  0
 21 22  1  0  0  0  0
 21 27  1  0  0  0  0
 21 28  1  0  0  0  0
 22 23  1  0  0  0  0
 22 24  2  0  0  0  0
 29 30  1  0  0  0  0
 29 34  1  0  0  0  0
 30 31  1  0  0  0  0
 30 33  1  0  0  0  0
 30 35  1  0  0  0  0
 31 32  2  0  0  0  0
 31 39  1  0  0  0  0
 33 36  1  0  0  0  0
 33 37  1  0  0  0  0
 33 38  1  0  0  0  0
 39 40  1  0  0  0  0
 39 41  1  0  0  0  0
 40 42  1  0  0  0  0
 40 43  1  0  0  0  0
 40 44  1  0  0  0  0
M  CHG  1  23  -1
M  END
$$$$

  -OEChem-05262215553D

 44 43  0     1  0  0  0  0  0999 V2000
   -4.5608   -0.1250   -3.9508 C   0  0  0  0  0  0  0  0  0  0  0  0
   -4.4994   -1.3118   -4.2338 O   0  0  0  0  0  0  0  0  0  0  0  0
   -5.8554    0.6371   -4.1673 C   0  0  0  0  0  0  0  0  0  0  0  0
   -5.6777    1.4959   -4.8192 H   0  0  0  0  0  0  0  0  0  0  0  0
   -6.6023   -0.0114   -4.6335 H   0  0  0  0  0  0  0  0  0  0  0  0
   -6.2434    0.9906   -3.2089 H   0  0  0  0  0  0  0  0  0  0  0  0
   -3.4693    0.5307   -3.4252 N   0  0  0  0  0  0  0  0  0  0  0  0
   -2.2427   -0.1301   -2.9618 C   0  0  2  0  0  0  0  0  0  0  0  0
   -1.6690    0.5732   -1.7125 C   0  0  0  0  0  0  0  0  0  0  0  0
   -2.1373    1.6543   -1.3613 O   0  0  0  0  0  0  0  0  0  0  0  0
   -1.2196   -0.1167   -4.1029 C   0  0  0  0  0  0  0  0  0  0  0  0
   -3.6221    1.4732   -3.0677 H   0  0  0  0  0  0  0  0  0  0  0  0
   -2.4590   -1.1667   -2.6820 H   0  0  0  0  0  0  0  0  0  0  0  0
   -0.9769    0.9122   -4.3875 H   0  0  0  0  0  0  0  0  0  0  0  0
   -0.2945   -0.6172   -3.7991 H   0  0  0  0  0  0  0  0  0  0  0  0
   -1.6206   -0.6364   -4.9785 H   0  0  0  0  0  0  0  0  0  0  0  0
   -0.6112   -0.0099   -1.0394 N   0  0  0  0  0  0  0  0  0  0  0  0
    0.1925    0.6010    0.0296 C   0  0  2  0  0  0  0  0  0  0  0  0
   -0.6401    1.3353    1.1108 C   0  0  0  0  0  0  0  0  0  0  0  0
   -1.4202    0.7013    1.8176 O   0  0  0  0  0  0  0  0  0  0  0  0
    1.2319    1.5065   -0.6694 C   0  0  0  0  0  0  0  0  0  0  0  0
    2.2681    0.6917   -1.4406 C   0  0  0  0  0  0  0  0  0  0  0  0
    2.5488   -0.4638   -1.0339 O   0  5  0  0  0  0  0  0  0  0  0  0
    2.7338    1.2105   -2.4816 O   0  0  0  0  0  0  0  0  0  0  0  0
   -0.1795   -0.8079   -1.5001 H   0  0  0  0  0  0  0  0  0  0  0  0
    0.7158   -0.1913    0.5751 H   0  0  0  0  0  0  0  0  0  0  0  0
    1.7774    2.0856    0.0797 H   0  0  0  0  0  0  0  0  0  0  0  0
    0.7341    2.2086   -1.3449 H   0  0  0  0  0  0  0  0  0  0  0  0
   -0.4749    2.6859    1.3627 N   0  0  0  0  0  0  0  0  0  0  0  0
   -1.3628    3.4667    2.2298 C   0  0  2  0  0  0  0  0  0  0  0  0
   -1.5257    4.9200    1.7405 C   0  0  0  0  0  0  0  0  0  0  0  0
   -0.5969    5.5115    1.2009 O   0  0  0  0  0  0  0  0  0  0  0  0
   -0.8002    3.4452    3.6535 C   0  0  0  0  0  0  0  0  0  0  0  0
    0.0767    3.1998    0.6761 H   0  0  0  0  0  0  0  0  0  0  0  0
   -2.3583    3.0112    2.2304 H   0  0  0  0  0  0  0  0  0  0  0  0
    0.2001    3.8896    3.6760 H   0  0  0  0  0  0  0  0  0  0  0  0
   -1.4497    4.0091    4.3294 H   0  0  0  0  0  0  0  0  0  0  0  0
   -0.7327    2.4155    4.0183 H   0  0  0  0  0  0  0  0  0  0  0  0
   -2.7202    5.5870    1.9471 N   0  0  0  0  0  0  0  0  0  0  0  0
   -2.9759    6.9332    1.4535 C   0  0  0  0  0  0  0  0  0  0  0  0
   -3.4956    5.0400    2.3085 H   0  0  0  0  0  0  0  0  0  0  0  0
   -2.2497    7.6385    1.8708 H   0  0  0  0  0  0  0  0  0  0  0  0
   -2.9068    6.9591    0.3610 H   0  0  0  0  0  0  0  0  0  0  0  0
   -3.9790    7.2573    1.7459 H   0  0  0  0  0  0  0  0  0  0  0  0
  1  2  2  0  0  0  0
  1  3  1  0  0  0  0
  1  7  1  0  0  0  0
  3  4  1  0  0  0  0
  3  5  1  0  0  0  0
  3  6  1  0  0  0  0
  7  8  1  0  0  0  0
  7 12  1  0  0  0  0
  8  9  1  0  0  0  0
  8 11  1  0  0  0  0
  8 13  1  0  0  0  0
  9 10  2  0  0  0  0
  9 17  1  0  0  0  0
 11 14  1  0  0  0  0
 11 15  1  0  0  0  0
 11 16  1  0  0  0  0
 17 18  1  0  0  0  0
 17 25  1  0  0  0  0
 18 19  1  0  0  0  0
 18 21  1  0  0  0  0
 18 26  1  0  0  0  0
 19 20  2  0  0  0  0
 19 29  1  0  0  0  0
 21 22  1  0  0  0  0
 21 27  1  0  0  0  0
 21 28  1  0  0  0  0
 22 23  1  0  0  0  0
 22 24  2  0  0  0  0
 29 30  1  0  0  0  0
 29 34  1  0  0  0  0
 30 31  1  0  0  0  0
 30 33  1  0  0  0  0
 30 35  1  0  0  0  0
 31 32  2  0  0  0  0
 31 39  1  0  0  0  0
 33 36  1  0  0  0  0
 33 37  1  0  0  0  0
 33 38  1  0  0  0  0
 39 40  1  0  0  0  0
 39 41  1  0  0  0  0
 40 42  1  0  0  0  0
 40 43  1  0  0  0  0
 40 44  1  0  0  0  0
M  CHG  1  23  -1
M  END
$$$$

  -OEChem-05262215553D

 44 43  0     1  0  0  0  0  0999 V2000
   -4.6082    0.8094   -3.9452 C   0  0  0  0  0  0  0  0  0  0  0  0
   -4.8891   -0.3657   -4.1238 O   0  0  0  0  0  0  0  0  0  0  0  0
   -5.5932    1.8939   -4.3432 C   0  0  0  0  0  0  0  0  0  0  0  0
   -5.1290    2.5757   -5.0599 H   0  0  0  0  0  0  0  0  0  0  0  0
   -6.4799    1.4494   -4.8036 H   0  0  0  0  0  0  0  0  0  0  0  0
   -5.9006    2.4600   -3.4604 H   0  0  0  0  0  0  0  0  0  0  0  0
   -3.4064    1.1639   -3.3727 N   0  0  0  0  0  0  0  0  0  0  0  0
   -2.4572    0.2199   -2.7668 C   0  0  2  0  0  0  0  0  0  0  0  0
   -1.7607    0.8425   -1.5373 C   0  0  0  0  0  0  0  0  0  0  0  0
   -1.9494    2.0283   -1.2739 O   0  0  0  0  0  0  0  0  0  0  0  0
   -1.4275   -0.1802   -3.8290 C   0  0  0  0  0  0  0  0  0  0  0  0
   -3.2867    2.1427   -3.1154 H   0  0  0  0  0  0  0  0  0  0  0  0
   -2.9871   -0.6747   -2.4222 H   0  0  0  0  0  0  0  0  0  0  0  0
   -0.8692    0.6974   -4.1706 H   0  0  0  0  0  0  0  0  0  0  0  0
   -0.7153   -0.9067   -3.4253 H   0  0  0  0  0  0  0  0  0  0  0  0
   -1.9285   -0.6335   -4.6901 H   0  0  0  0  0  0  0  0  0  0  0  0
   -0.9013    0.0783   -0.7708 N   0  0  0  0  0  0  0  0  0  0  0  0
   -0.0416    0.5538    0.3245 C   0  0  2  0  0  0  0  0  0  0  0  0
   -0.7418    1.5139    1.3196 C   0  0  0  0  0  0  0  0  0  0  0  0
   -1.5169    1.0717    2.1595 O   0  0  0  0  0  0  0  0  0  0  0  0
    1.2014    1.1938   -0.3326 C   0  0  0  0  0  0  0  0  0  0  0  0
    2.0868    0.1561   -1.0154 C   0  0  0  0  0  0  0  0  0  0  0  0
    2.1002   -1.0161   -0.5646 O   0  5  0  0  0  0  0  0  0  0  0  0
    2.7135    0.5363   -2.0314 O   0  0  0  0  0  0  0  0  0  0  0  0
   -0.6559   -0.8343   -1.1499 H   0  0  0  0  0  0  0  0  0  0  0  0
    0.2715   -0.3047    0.9289 H   0  0  0  0  0  0  0  0  0  0  0  0
    1.8090    1.6785    0.4360 H   0  0  0  0  0  0  0  0  0  0  0  0
    0.9019    1.9541   -1.0597 H   0  0  0  0  0  0  0  0  0  0  0  0
   -0.4906    2.8749    1.3052 N   0  0  0  0  0  0  0  0  0  0  0  0
   -1.1058    3.8466    2.2231 C   0  0  2  0  0  0  0  0  0  0  0  0
   -2.5041    4.3478    1.7865 C   0  0  0  0  0  0  0  0  0  0  0  0
   -3.0800    5.2101    2.4437 O   0  0  0  0  0  0  0  0  0  0  0  0
   -0.1204    5.0120    2.3543 C   0  0  0  0  0  0  0  0  0  0  0  0
    0.0317    3.2156    0.5021 H   0  0  0  0  0  0  0  0  0  0  0  0
   -1.2256    3.3854    3.2092 H   0  0  0  0  0  0  0  0  0  0  0  0
    0.0016    5.5206    1.3929 H   0  0  0  0  0  0  0  0  0  0  0  0
   -0.4842    5.7382    3.0880 H   0  0  0  0  0  0  0  0  0  0  0  0
    0.8569    4.6479    2.6862 H   0  0  0  0  0  0  0  0  0  0  0  0
   -3.0959    3.8984    0.6211 N   0  0  0  0  0  0  0  0  0  0  0  0
   -4.4231    4.2927    0.1762 C   0  0  0  0  0  0  0  0  0  0  0  0
   -2.6026    3.1621    0.1065 H   0  0  0  0  0  0  0  0  0  0  0  0
   -5.1747    4.0137    0.9219 H   0  0  0  0  0  0  0  0  0  0  0  0
   -4.4672    5.3745    0.0135 H   0  0  0  0  0  0  0  0  0  0  0  0
   -4.6655    3.7904   -0.7651 H   0  0  0  0  0  0  0  0  0  0  0  0
  1  2  2  0  0  0  0
  1  3  1  0  0  0  0
  1  7  1  0  0  0  0
  3  4  1  0  0  0  0
  3  5  1  0  0  0  0
  3  6  1  0  0  0  0
  7  8  1  0  0  0  0
  7 12  1  0  0  0  0
  8  9  1  0  0  0  0
  8 11  1  0  0  0  0
  8 13  1  0  0  0  0
  9 10  2  0  0  0  0
  9 17  1  0  0  0  0
 11 14  1  0  0  0  0
 11 15  1  0  0  0  0
 11 16  1  0  0  0  0
 17 18  1  0  0  0  0
 17 25  1  0  0  0  0
 18 19  1  0  0  0  0
 18 21  1  0  0  0  0
 18 26  1  0  0  0  0
 19 20  2  0  0  0  0
 19 29  1  0  0  0  0
 21 22  1  0  0  0  0
 21 27  1  0  0  0  0
 21 28  1  0  0  0  0
 22 23  1  0  0  0  0
 22 24  2  0  0  0  0
 29 30  1  0  0  0  0
 29 34  1  0  0  0  0
 30 31  1  0  0  0  0
 30 33  1  0  0  0  0
 30 35  1  0  0  0  0
 31 32  2  0  0  0  0
 31 39  1  0  0  0  0
 33 36  1  0  0  0  0
 33 37  1  0  0  0  0
 33 38  1  0  0  0  0
 39 40  1  0  0  0  0
 39 41  1  0  0  0  0
 40 42  1  0  0  0  0
 40 43  1  0  0  0  0
 40 44  1  0  0  0  0
M  CHG  1  23  -1
M  END
$$$$

  -OEChem-05262215553D

 44 43  0     1  0  0  0  0  0999 V2000
   -4.6198    0.6077   -4.0278 C   0  0  0  0  0  0  0  0  0  0  0  0
   -4.9116   -0.5760   -4.0982 O   0  0  0  0  0  0  0  0  0  0  0  0
   -5.6029    1.6603   -4.5076 C   0  0  0  0  0  0  0  0  0  0  0  0
   -5.1573    2.2453   -5.3159 H   0  0  0  0  0  0  0  0  0  0  0  0
   -6.5158    1.1851   -4.8777 H   0  0  0  0  0  0  0  0  0  0  0  0
   -5.8633    2.3297   -3.6839 H   0  0  0  0  0  0  0  0  0  0  0  0
   -3.4077    1.0023   -3.5043 N   0  0  0  0  0  0  0  0  0  0  0  0
   -2.4633    0.1092   -2.8182 C   0  0  2  0  0  0  0  0  0  0  0  0
   -1.8262    0.7999   -1.5931 C   0  0  0  0  0  0  0  0  0  0  0  0
   -2.0371    1.9945   -1.3951 O   0  0  0  0  0  0  0  0  0  0  0  0
   -1.3832   -0.3117   -3.8203 C   0  0  0  0  0  0  0  0  0  0  0  0
   -3.2817    1.9990   -3.3351 H   0  0  0  0  0  0  0  0  0  0  0  0
   -2.9848   -0.7827   -2.4544 H   0  0  0  0  0  0  0  0  0  0  0  0
   -0.8262    0.5622   -4.1735 H   0  0  0  0  0  0  0  0  0  0  0  0
   -0.6757   -1.0074   -3.3579 H   0  0  0  0  0  0  0  0  0  0  0  0
   -1.8389   -0.8083   -4.6824 H   0  0  0  0  0  0  0  0  0  0  0  0
   -0.9825    0.0828   -0.7669 N   0  0  0  0  0  0  0  0  0  0  0  0
   -0.1392    0.6011    0.3227 C   0  0  2  0  0  0  0  0  0  0  0  0
   -0.8240    1.6123    1.2771 C   0  0  0  0  0  0  0  0  0  0  0  0
   -1.3949    1.2130    2.2849 O   0  0  0  0  0  0  0  0  0  0  0  0
    1.1041    1.2175   -0.3542 C   0  0  0  0  0  0  0  0  0  0  0  0
    1.9967    0.1569   -0.9909 C   0  0  0  0  0  0  0  0  0  0  0  0
    2.0129   -0.9961   -0.4935 O   0  5  0  0  0  0  0  0  0  0  0  0
    2.6069    0.4913   -2.0328 O   0  0  0  0  0  0  0  0  0  0  0  0
   -0.7228   -0.8436   -1.1011 H   0  0  0  0  0  0  0  0  0  0  0  0
    0.1695   -0.2349    0.9602 H   0  0  0  0  0  0  0  0  0  0  0  0
    1.7027    1.7383    0.3978 H   0  0  0  0  0  0  0  0  0  0  0  0
    0.8067    1.9464   -1.1133 H   0  0  0  0  0  0  0  0  0  0  0  0
   -0.7949    2.9734    1.0288 N   0  0  0  0  0  0  0  0  0  0  0  0
   -1.4364    3.9886    1.8802 C   0  0  2  0  0  0  0  0  0  0  0  0
   -2.9213    4.2594    1.5419 C   0  0  0  0  0  0  0  0  0  0  0  0
   -3.5645    5.0714    2.1999 O   0  0  0  0  0  0  0  0  0  0  0  0
   -0.6044    5.2674    1.7479 C   0  0  0  0  0  0  0  0  0  0  0  0
   -0.5280    3.2260    0.0793 H   0  0  0  0  0  0  0  0  0  0  0  0
   -1.4002    3.6629    2.9253 H   0  0  0  0  0  0  0  0  0  0  0  0
   -0.6332    5.6393    0.7189 H   0  0  0  0  0  0  0  0  0  0  0  0
   -0.9941    6.0463    2.4110 H   0  0  0  0  0  0  0  0  0  0  0  0
    0.4369    5.0714    2.0216 H   0  0  0  0  0  0  0  0  0  0  0  0
   -3.5229    3.6643    0.4492 N   0  0  0  0  0  0  0  0  0  0  0  0
   -4.9173    3.8520    0.0817 C   0  0  0  0  0  0  0  0  0  0  0  0
   -2.9549    2.9982   -0.0820 H   0  0  0  0  0  0  0  0  0  0  0  0
   -5.5735    3.5339    0.8982 H   0  0  0  0  0  0  0  0  0  0  0  0
   -5.1154    4.9047   -0.1441 H   0  0  0  0  0  0  0  0  0  0  0  0
   -5.1538    3.2562   -0.8050 H   0  0  0  0  0  0  0  0  0  0  0  0
  1  2  2  0  0  0  0
  1  3  1  0  0  0  0
  1  7  1  0  0  0  0
  3  4  1  0  0  0  0
  3  5  1  0  0  0  0
  3  6  1  0  0  0  0
  7  8  1  0  0  0  0
  7 12  1  0  0  0  0
  8  9  1  0  0  0  0
  8 11  1  0  0  0  0
  8 13  1  0  0  0  0
  9 10  2  0  0  0  0
  9 17  1  0  0  0  0
 11 14  1  0  0  0  0
 11 15  1  0  0  0  0
 11 16  1  0  0  0  0
 17 18  1  0  0  0  0
 17 25  1  0  0  0  0
 18 19  1  0  0  0  0
 18 21  1  0  0  0  0
 18 26  1  0  0  0  0
 19 20  2  0  0  0  0
 19 29  1  0  0  0  0
 21 22  1  0  0  0  0
 21 27  1  0  0  0  0
 21 28  1  0  0  0  0
 22 23  1  0  0  0  0
 22 24  2  0  0  0  0
 29 30  1  0  0  0  0
 29 34  1  0  0  0  0
 30 31  1  0  0  0  0
 30 33  1  0  0  0  0
 30 35  1  0  0  0  0
 31 32  2  0  0  0  0
 31 39  1  0  0  0  0
 33 36  1  0  0  0  0
 33 37  1  0  0  0  0
 33 38  1  0  0  0  0
 39 40  1  0  0  0  0
 39 41  1  0  0  0  0
 40 42  1  0  0  0  0
 40 43  1  0  0  0  0
 40 44  1  0  0  0  0
M  CHG  1  23  -1
M  END
$$$$

  -OEChem-05262215553D

 44 43  0     1  0  0  0  0  0999 V2000
   -4.6285    0.5509   -3.9999 C   0  0  0  0  0  0  0  0  0  0  0  0
   -4.9904   -0.6103   -3.8917 O   0  0  0  0  0  0  0  0  0  0  0  0
   -5.6107    1.6089   -4.4689 C   0  0  0  0  0  0  0  0  0  0  0  0
   -6.5855    1.1566   -4.6720 H   0  0  0  0  0  0  0  0  0  0  0  0
   -5.7306    2.3734   -3.6972 H   0  0  0  0  0  0  0  0  0  0  0  0
   -5.2434    2.0801   -5.3838 H   0  0  0  0  0  0  0  0  0  0  0  0
   -3.3406    0.9216   -3.6786 N   0  0  0  0  0  0  0  0  0  0  0  0
   -2.3894    0.0691   -2.9493 C   0  0  2  0  0  0  0  0  0  0  0  0
   -1.8158    0.7964   -1.7144 C   0  0  0  0  0  0  0  0  0  0  0  0
   -2.0276    1.9984   -1.5746 O   0  0  0  0  0  0  0  0  0  0  0  0
   -1.2641   -0.3202   -3.9125 C   0  0  0  0  0  0  0  0  0  0  0  0
   -3.1652    1.9234   -3.6242 H   0  0  0  0  0  0  0  0  0  0  0  0
   -2.8831   -0.8407   -2.5919 H   0  0  0  0  0  0  0  0  0  0  0  0
   -0.7316    0.5705   -4.2616 H   0  0  0  0  0  0  0  0  0  0  0  0
   -0.5439   -0.9807   -3.4189 H   0  0  0  0  0  0  0  0  0  0  0  0
   -1.6743   -0.8455   -4.7804 H   0  0  0  0  0  0  0  0  0  0  0  0
   -1.0316    0.0998   -0.8149 N   0  0  0  0  0  0  0  0  0  0  0  0
   -0.2391    0.6205    0.3150 C   0  0  2  0  0  0  0  0  0  0  0  0
   -0.9236    1.6672    1.2318 C   0  0  0  0  0  0  0  0  0  0  0  0
   -1.3395    1.3318    2.3340 O   0  0  0  0  0  0  0  0  0  0  0  0
    1.0441    1.2047   -0.3106 C   0  0  0  0  0  0  0  0  0  0  0  0
    1.9469    0.1174   -0.8868 C   0  0  0  0  0  0  0  0  0  0  0  0
    1.9188   -1.0274   -0.3707 O   0  5  0  0  0  0  0  0  0  0  0  0
    2.5988    0.4185   -1.9138 O   0  0  0  0  0  0  0  0  0  0  0  0
   -0.7686   -0.8395   -1.1093 H   0  0  0  0  0  0  0  0  0  0  0  0
    0.0223   -0.2138    0.9758 H   0  0  0  0  0  0  0  0  0  0  0  0
    1.6140    1.7268    0.4625 H   0  0  0  0  0  0  0  0  0  0  0  0
    0.7970    1.9294   -1.0915 H   0  0  0  0  0  0  0  0  0  0  0  0
   -1.1035    2.9789    0.8320 N   0  0  0  0  0  0  0  0  0  0  0  0
   -1.8727    3.9732    1.5980 C   0  0  2  0  0  0  0  0  0  0  0  0
   -3.3976    3.9165    1.3447 C   0  0  0  0  0  0  0  0  0  0  0  0
   -4.1602    4.6149    2.0051 O   0  0  0  0  0  0  0  0  0  0  0  0
   -1.3140    5.3500    1.2298 C   0  0  0  0  0  0  0  0  0  0  0  0
   -1.0106    3.1135   -0.1762 H   0  0  0  0  0  0  0  0  0  0  0  0
   -1.7151    3.8126    2.6698 H   0  0  0  0  0  0  0  0  0  0  0  0
   -1.4702    5.5549    0.1659 H   0  0  0  0  0  0  0  0  0  0  0  0
   -1.8125    6.1311    1.8123 H   0  0  0  0  0  0  0  0  0  0  0  0
   -0.2411    5.3928    1.4415 H   0  0  0  0  0  0  0  0  0  0  0  0
   -3.9151    3.1554    0.3129 N   0  0  0  0  0  0  0  0  0  0  0  0
   -5.3335    3.0290    0.0187 C   0  0  0  0  0  0  0  0  0  0  0  0
   -3.2413    2.6303   -0.2492 H   0  0  0  0  0  0  0  0  0  0  0  0
   -5.8645    2.6062    0.8777 H   0  0  0  0  0  0  0  0  0  0  0  0
   -5.7637    4.0068   -0.2198 H   0  0  0  0  0  0  0  0  0  0  0  0
   -5.4797    2.3661   -0.8394 H   0  0  0  0  0  0  0  0  0  0  0  0
  1  2  2  0  0  0  0
  1  3  1  0  0  0  0
  1  7  1  0  0  0  0
  3  4  1  0  0  0  0
  3  5  1  0  0  0  0
  3  6  1  0  0  0  0
  7  8  1  0  0  0  0
  7 12  1  0  0  0  0
  8  9  1  0  0  0  0
  8 11  1  0  0  0  0
  8 13  1  0  0  0  0
  9 10  2  0  0  0  0
  9 17  1  0  0  0  0
 11 14  1  0  0  0  0
 11 15  1  0  0  0  0
 11 16  1  0  0  0  0
 17 18  1  0  0  0  0
 17 25  1  0  0  0  0
 18 19  1  0  0  0  0
 18 21  1  0  0  0  0
 18 26  1  0  0  0  0
 19 20  2  0  0  0  0
 19 29  1  0  0  0  0
 21 22  1  0  0  0  0
 21 27  1  0  0  0  0
 21 28  1  0  0  0  0
 22 23  1  0  0  0  0
 22 24  2  0  0  0  0
 29 30  1  0  0  0  0
 29 34  1  0  0  0  0
 30 31  1  0  0  0  0
 30 33  1  0  0  0  0
 30 35  1  0  0  0  0
 31 32  2  0  0  0  0
 31 39  1  0  0  0  0
 33 36  1  0  0  0  0
 33 37  1  0  0  0  0
 33 38  1  0  0  0  0
 39 40  1  0  0  0  0
 39 41  1  0  0  0  0
 40 42  1  0  0  0  0
 40 43  1  0  0  0  0
 40 44  1  0  0  0  0
M  CHG  1  23  -1
M  END
$$$$

  -OEChem-05262215553D

 44 43  0     1  0  0  0  0  0999 V2000
   -4.6517    0.3692   -3.7098 C   0  0  0  0  0  0  0  0  0  0  0  0
   -5.0675   -0.6221   -3.1309 O   0  0  0  0  0  0  0  0  0  0  0  0
   -5.6346    1.3750   -4.2809 C   0  0  0  0  0  0  0  0  0  0  0  0
   -6.6608    1.0271   -4.1326 H   0  0  0  0  0  0  0  0  0  0  0  0
   -5.5137    2.3387   -3.7797 H   0  0  0  0  0  0  0  0  0  0  0  0
   -5.4585    1.5043   -5.3515 H   0  0  0  0  0  0  0  0  0  0  0  0
   -3.2976    0.6027   -3.8288 N   0  0  0  0  0  0  0  0  0  0  0  0
   -2.2878   -0.1130   -3.0328 C   0  0  2  0  0  0  0  0  0  0  0  0
   -1.8567    0.6911   -1.7878 C   0  0  0  0  0  0  0  0  0  0  0  0
   -2.1266    1.8870   -1.7247 O   0  0  0  0  0  0  0  0  0  0  0  0
   -1.0779   -0.3730   -3.9354 C   0  0  0  0  0  0  0  0  0  0  0  0
   -3.0478    1.5456   -4.1162 H   0  0  0  0  0  0  0  0  0  0  0  0
   -2.6789   -1.0775   -2.6917 H   0  0  0  0  0  0  0  0  0  0  0  0
   -0.6404    0.5719   -4.2737 H   0  0  0  0  0  0  0  0  0  0  0  0
   -0.3069   -0.9332   -3.3956 H   0  0  0  0  0  0  0  0  0  0  0  0
   -1.3761   -0.9553   -4.8125 H   0  0  0  0  0  0  0  0  0  0  0  0
   -1.1044    0.0632   -0.8132 N   0  0  0  0  0  0  0  0  0  0  0  0
   -0.3555    0.6291    0.3276 C   0  0  2  0  0  0  0  0  0  0  0  0
   -1.0359    1.7183    1.2001 C   0  0  0  0  0  0  0  0  0  0  0  0
   -1.2685    1.4848    2.3799 O   0  0  0  0  0  0  0  0  0  0  0  0
    0.9379    1.1940   -0.2938 C   0  0  0  0  0  0  0  0  0  0  0  0
    1.8579    0.0882   -0.8055 C   0  0  0  0  0  0  0  0  0  0  0  0
    1.8244   -1.0348   -0.2439 O   0  5  0  0  0  0  0  0  0  0  0  0
    2.5125    0.3436   -1.8434 O   0  0  0  0  0  0  0  0  0  0  0  0
   -0.8092   -0.8810   -1.0576 H   0  0  0  0  0  0  0  0  0  0  0  0
   -0.1097   -0.1837    1.0207 H   0  0  0  0  0  0  0  0  0  0  0  0
    1.4895    1.7497    0.4692 H   0  0  0  0  0  0  0  0  0  0  0  0
    0.7034    1.8865   -1.1076 H   0  0  0  0  0  0  0  0  0  0  0  0
   -1.4599    2.9267    0.6799 N   0  0  0  0  0  0  0  0  0  0  0  0
   -2.3502    3.8661    1.3813 C   0  0  2  0  0  0  0  0  0  0  0  0
   -3.8508    3.5961    1.1238 C   0  0  0  0  0  0  0  0  0  0  0  0
   -4.7069    4.2082    1.7542 O   0  0  0  0  0  0  0  0  0  0  0  0
   -1.9691    5.2752    0.9220 C   0  0  0  0  0  0  0  0  0  0  0  0
   -1.4398    2.9608   -0.3420 H   0  0  0  0  0  0  0  0  0  0  0  0
   -2.1872    3.8008    2.4623 H   0  0  0  0  0  0  0  0  0  0  0  0
   -2.1334    5.3855   -0.1546 H   0  0  0  0  0  0  0  0  0  0  0  0
   -2.5740    6.0217    1.4457 H   0  0  0  0  0  0  0  0  0  0  0  0
   -0.9143    5.4709    1.1385 H   0  0  0  0  0  0  0  0  0  0  0  0
   -4.2489    2.7371    0.1155 N   0  0  0  0  0  0  0  0  0  0  0  0
   -5.6345    2.4313   -0.2023 C   0  0  0  0  0  0  0  0  0  0  0  0
   -3.5058    2.3054   -0.4378 H   0  0  0  0  0  0  0  0  0  0  0  0
   -6.1532    2.0458    0.6815 H   0  0  0  0  0  0  0  0  0  0  0  0
   -6.1519    3.3286   -0.5559 H   0  0  0  0  0  0  0  0  0  0  0  0
   -5.6797    1.6702   -0.9872 H   0  0  0  0  0  0  0  0  0  0  0  0
  1  2  2  0  0  0  0
  1  3  1  0  0  0  0
  1  7  1  0  0  0  0
  3  4  1  0  0  0  0
  3  5  1  0  0  0  0
  3  6  1  0  0  0  0
  7  8  1  0  0  0  0
  7 12  1  0  0  0  0
  8  9  1  0  0  0  0
  8 11  1  0  0  0  0
  8 13  1  0  0  0  0
  9 10  2  0  0  0  0
  9 17  1  0  0  0  0
 11 14  1  0  0  0  0
 11 15  1  0  0  0  0
 11 16  1  0  0  0  0
 17 18  1  0  0  0  0
 17 25  1  0  0  0  0
 18 19  1  0  0  0  0
 18 21  1  0  0  0  0
 18 26  1  0  0  0  0
 19 20  2  0  0  0  0
 19 29  1  0  0  0  0
 21 22  1  0  0  0  0
 21 27  1  0  0  0  0
 21 28  1  0  0  0  0
 22 23  1  0  0  0  0
 22 24  2  0  0  0  0
 29 30  1  0  0  0  0
 29 34  1  0  0  0  0
 30 31  1  0  0  0  0
 30 33  1  0  0  0  0
 30 35  1  0  0  0  0
 31 32  2  0  0  0  0
 31 39  1  0  0  0  0
 33 36  1  0  0  0  0
 33 37  1  0  0  0  0
 33 38  1  0  0  0  0
 39 40  1  0  0  0  0
 39 41  1  0  0  0  0
 40 42  1  0  0  0  0
 40 43  1  0  0  0  0
 40 44  1  0  0  0  0
M  CHG  1  23  -1
M  END
$$$$

  -OEChem-05262215553D

 44 43  0     1  0  0  0  0  0999 V2000
   -4.7934    0.5561   -3.5577 C   0  0  0  0  0  0  0  0  0  0  0  0
   -4.8845   -0.6315   -3.8334 O   0  0  0  0  0  0  0  0  0  0  0  0
   -6.0300    1.4357   -3.5925 C   0  0  0  0  0  0  0  0  0  0  0  0
   -5.8188    2.3554   -4.1434 H   0  0  0  0  0  0  0  0  0  0  0  0
   -6.8543    0.9115   -4.0833 H   0  0  0  0  0  0  0  0  0  0  0  0
   -6.3316    1.6953   -2.5752 H   0  0  0  0  0  0  0  0  0  0  0  0
   -3.5745    1.0984   -3.2137 N   0  0  0  0  0  0  0  0  0  0  0  0
   -2.3352    0.3257   -3.0398 C   0  0  2  0  0  0  0  0  0  0  0  0
   -1.4220    0.9987   -1.9968 C   0  0  0  0  0  0  0  0  0  0  0  0
   -1.1766    2.1938   -2.1126 O   0  0  0  0  0  0  0  0  0  0  0  0
   -1.6201    0.2053   -4.3885 C   0  0  0  0  0  0  0  0  0  0  0  0
   -3.5958    2.0459   -2.8277 H   0  0  0  0  0  0  0  0  0  0  0  0
   -2.5765   -0.6785   -2.6765 H   0  0  0  0  0  0  0  0  0  0  0  0
   -1.3779    1.1969   -4.7836 H   0  0  0  0  0  0  0  0  0  0  0  0
   -0.6904   -0.3615   -4.2767 H   0  0  0  0  0  0  0  0  0  0  0  0
   -2.2573   -0.3130   -5.1115 H   0  0  0  0  0  0  0  0  0  0  0  0
   -0.9781    0.2718   -0.9052 N   0  0  0  0  0  0  0  0  0  0  0  0
   -0.4066    0.7259    0.3832 C   0  0  2  0  0  0  0  0  0  0  0  0
   -1.1252    1.9028    1.0975 C   0  0  0  0  0  0  0  0  0  0  0  0
   -1.6821    1.6806    2.1700 O   0  0  0  0  0  0  0  0  0  0  0  0
    1.0742    1.0677    0.1351 C   0  0  0  0  0  0  0  0  0  0  0  0
    1.9083   -0.1776   -0.1598 C   0  0  0  0  0  0  0  0  0  0  0  0
    1.5473   -1.2742    0.3391 O   0  5  0  0  0  0  0  0  0  0  0  0
    2.9081   -0.0290   -0.9007 O   0  0  0  0  0  0  0  0  0  0  0  0
   -1.0462   -0.7384   -1.0031 H   0  0  0  0  0  0  0  0  0  0  0  0
   -0.4615   -0.1089    1.0909 H   0  0  0  0  0  0  0  0  0  0  0  0
    1.4912    1.5384    1.0293 H   0  0  0  0  0  0  0  0  0  0  0  0
    1.1673    1.7762   -0.6928 H   0  0  0  0  0  0  0  0  0  0  0  0
   -1.5323    3.0338    0.4172 N   0  0  0  0  0  0  0  0  0  0  0  0
   -2.8433    3.6579    0.6279 C   0  0  2  0  0  0  0  0  0  0  0  0
   -3.9676    2.7509    0.0683 C   0  0  0  0  0  0  0  0  0  0  0  0
   -4.5440    2.9952   -0.9893 O   0  0  0  0  0  0  0  0  0  0  0  0
   -2.8063    5.0375   -0.0375 C   0  0  0  0  0  0  0  0  0  0  0  0
   -1.1887    3.0498   -0.5484 H   0  0  0  0  0  0  0  0  0  0  0  0
   -3.0247    3.8023    1.6981 H   0  0  0  0  0  0  0  0  0  0  0  0
   -2.6031    4.9424   -1.1093 H   0  0  0  0  0  0  0  0  0  0  0  0
   -3.7656    5.5475    0.0919 H   0  0  0  0  0  0  0  0  0  0  0  0
   -2.0213    5.6530    0.4119 H   0  0  0  0  0  0  0  0  0  0  0  0
   -4.2604    1.5785    0.7384 N   0  0  0  0  0  0  0  0  0  0  0  0
   -5.1052    0.5226    0.1988 C   0  0  0  0  0  0  0  0  0  0  0  0
   -3.6161    1.3477    1.5004 H   0  0  0  0  0  0  0  0  0  0  0  0
   -6.0676    0.9271   -0.1306 H   0  0  0  0  0  0  0  0  0  0  0  0
   -4.6144    0.0366   -0.6500 H   0  0  0  0  0  0  0  0  0  0  0  0
   -5.2966   -0.2322    0.9672 H   0  0  0  0  0  0  0  0  0  0  0  0
  1  2  2  0  0  0  0
  1  3  1  0  0  0  0
  1  7  1  0  0  0  0
  3  4  1  0  0  0  0
  3  5  1  0  0  0  0
  3  6  1  0  0  0  0
  7  8  1  0  0  0  0
  7 12  1  0  0  0  0
  8  9  1  0  0  0  0
  8 11  1  0  0  0  0
  8 13  1  0  0  0  0
  9 10  2  0  0  0  0
  9 17  1  0  0  0  0
 11 14  1  0  0  0  0
 11 15  1  0  0  0  0
 11 16  1  0  0  0  0
 17 18  1  0  0  0  0
 17 25  1  0  0  0  0
 18 19  1  0  0  0  0
 18 21  1  0  0  0  0
 18 26  1  0  0  0  0
 19 20  2  0  0  0  0
 19 29  1  0  0  0  0
 21 22  1  0  0  0  0
 21 27  1  0  0  0  0
 21 28  1  0  0  0  0
 22 23  1  0  0  0  0
 22 24  2  0  0  0  0
 29 30  1  0  0  0  0
 29 34  1  0  0  0  0
 30 31  1  0  0  0  0
 30 33  1  0  0  0  0
 30 35  1  0  0  0  0
 31 32  2  0  0  0  0
 31 39  1  0  0  0  0
 33 36  1  0  0  0  0
 33 37  1  0  0  0  0
 33 38  1  0  0  0  0
 39 40  1  0  0  0  0
 39 41  1  0  0  0  0
 40 42  1  0  0  0  0
 40 43  1  0  0  0  0
 40 44  1  0  0  0  0
M  CHG  1  23  -1
M  END
$$$$

  -OEChem-05262215553D

 44 43  0     1  0  0  0  0  0999 V2000
   -4.6308   -0.0478   -3.4985 C   0  0  0  0  0  0  0  0  0  0  0  0
   -4.4074   -1.0456   -4.1674 O   0  0  0  0  0  0  0  0  0  0  0  0
   -6.0623    0.3496   -3.1883 C   0  0  0  0  0  0  0  0  0  0  0  0
   -6.2122    1.4081   -3.4156 H   0  0  0  0  0  0  0  0  0  0  0  0
   -6.7587   -0.2428   -3.7876 H   0  0  0  0  0  0  0  0  0  0  0  0
   -6.2744    0.1831   -2.1304 H   0  0  0  0  0  0  0  0  0  0  0  0
   -3.5905    0.7255   -3.0323 N   0  0  0  0  0  0  0  0  0  0  0  0
   -2.1657    0.4693   -3.2989 C   0  0  2  0  0  0  0  0  0  0  0  0
   -1.2931    1.0290   -2.1561 C   0  0  0  0  0  0  0  0  0  0  0  0
   -0.9248    2.1974   -2.1850 O   0  0  0  0  0  0  0  0  0  0  0  0
   -1.8006    1.0788   -4.6588 C   0  0  0  0  0  0  0  0  0  0  0  0
   -3.8462    1.5256   -2.4447 H   0  0  0  0  0  0  0  0  0  0  0  0
   -1.9844   -0.6096   -3.3482 H   0  0  0  0  0  0  0  0  0  0  0  0
   -2.0075    2.1537   -4.6679 H   0  0  0  0  0  0  0  0  0  0  0  0
   -0.7371    0.9268   -4.8682 H   0  0  0  0  0  0  0  0  0  0  0  0
   -2.3815    0.6054   -5.4563 H   0  0  0  0  0  0  0  0  0  0  0  0
   -1.0533    0.2297   -1.0518 N   0  0  0  0  0  0  0  0  0  0  0  0
   -0.5817    0.5718    0.3103 C   0  0  2  0  0  0  0  0  0  0  0  0
   -1.2286    1.7960    1.0163 C   0  0  0  0  0  0  0  0  0  0  0  0
   -1.6907    1.6394    2.1444 O   0  0  0  0  0  0  0  0  0  0  0  0
    0.9464    0.7442    0.2338 C   0  0  0  0  0  0  0  0  0  0  0  0
    1.6631   -0.5794   -0.0275 C   0  0  0  0  0  0  0  0  0  0  0  0
    1.1297   -1.6427    0.3811 O   0  5  0  0  0  0  0  0  0  0  0  0
    2.7504   -0.5235   -0.6485 O   0  0  0  0  0  0  0  0  0  0  0  0
   -1.2351   -0.7607   -1.1970 H   0  0  0  0  0  0  0  0  0  0  0  0
   -0.8086   -0.2776    0.9642 H   0  0  0  0  0  0  0  0  0  0  0  0
    1.3134    1.1322    1.1876 H   0  0  0  0  0  0  0  0  0  0  0  0
    1.2085    1.4646   -0.5462 H   0  0  0  0  0  0  0  0  0  0  0  0
   -1.7100    2.8844    0.3153 N   0  0  0  0  0  0  0  0  0  0  0  0
   -3.0415    3.4508    0.5512 C   0  0  2  0  0  0  0  0  0  0  0  0
   -4.1388    2.4278    0.1673 C   0  0  0  0  0  0  0  0  0  0  0  0
   -4.7121    2.4602   -0.9200 O   0  0  0  0  0  0  0  0  0  0  0  0
   -3.1385    4.7504   -0.2546 C   0  0  0  0  0  0  0  0  0  0  0  0
   -1.3710    2.9167   -0.6501 H   0  0  0  0  0  0  0  0  0  0  0  0
   -3.1607    3.6979    1.6112 H   0  0  0  0  0  0  0  0  0  0  0  0
   -2.9900    4.5549   -1.3219 H   0  0  0  0  0  0  0  0  0  0  0  0
   -4.1220    5.2095   -0.1171 H   0  0  0  0  0  0  0  0  0  0  0  0
   -2.3742    5.4593    0.0780 H   0  0  0  0  0  0  0  0  0  0  0  0
   -4.3853    1.3745    1.0261 N   0  0  0  0  0  0  0  0  0  0  0  0
   -5.1804    0.2100    0.6666 C   0  0  0  0  0  0  0  0  0  0  0  0
   -3.7015    1.2772    1.7829 H   0  0  0  0  0  0  0  0  0  0  0  0
   -6.1903    0.5109    0.3699 H   0  0  0  0  0  0  0  0  0  0  0  0
   -4.7112   -0.3324   -0.1606 H   0  0  0  0  0  0  0  0  0  0  0  0
   -5.2612   -0.4662    1.5230 H   0  0  0  0  0  0  0  0  0  0  0  0
  1  2  2  0  0  0  0
  1  3  1  0  0  0  0
  1  7  1  0  0  0  0
  3  4  1  0  0  0  0
  3  5  1  0  0  0  0
  3  6  1  0  0  0  0
  7  8  1  0  0  0  0
  7 12  1  0  0  0  0
  8  9  1  0  0  0  0
  8 11  1  0  0  0  0
  8 13  1  0  0  0  0
  9 10  2  0  0  0  0
  9 17  1  0  0  0  0
 11 14  1  0  0  0  0
 11 15  1  0  0  0  0
 11 16  1  0  0  0  0
 17 18  1  0  0  0  0
 17 25  1  0  0  0  0
 18 19  1  0  0  0  0
 18 21  1  0  0  0  0
 18 26  1  0  0  0  0
 19 20  2  0  0  0  0
 19 29  1  0  0  0  0
 21 22  1  0  0  0  0
 21 27  1  0  0  0  0
 21 28  1  0  0  0  0
 22 23  1  0  0  0  0
 22 24  2  0  0  0  0
 29 30  1  0  0  0  0
 29 34  1  0  0  0  0
 30 31  1  0  0  0  0
 30 33  1  0  0  0  0
 30 35  1  0  0  0  0
 31 32  2  0  0  0  0
 31 39  1  0  0  0  0
 33 36  1  0  0  0  0
 33 37  1  0  0  0  0
 33 38  1  0  0  0  0
 39 40  1  0  0  0  0
 39 41  1  0  0  0  0
 40 42  1  0  0  0  0
 40 43  1  0  0  0  0
 40 44  1  0  0  0  0
M  CHG  1  23  -1
M  END
$$$$

  -OEChem-05262215553D

 44 43  0     1  0  0  0  0  0999 V2000
   -4.3876   -0.4791   -3.8213 C   0  0  0  0  0  0  0  0  0  0  0  0
   -4.2777   -1.6963   -3.8011 O   0  0  0  0  0  0  0  0  0  0  0  0
   -5.7638    0.1586   -3.7765 C   0  0  0  0  0  0  0  0  0  0  0  0
   -5.9372    0.7375   -4.6868 H   0  0  0  0  0  0  0  0  0  0  0  0
   -6.5359   -0.6107   -3.6920 H   0  0  0  0  0  0  0  0  0  0  0  0
   -5.8352    0.8237   -2.9116 H   0  0  0  0  0  0  0  0  0  0  0  0
   -3.2728    0.3290   -3.8894 N   0  0  0  0  0  0  0  0  0  0  0  0
   -1.9188   -0.1247   -3.5392 C   0  0  2  0  0  0  0  0  0  0  0  0
   -1.4092    0.6567   -2.3125 C   0  0  0  0  0  0  0  0  0  0  0  0
   -1.7745    1.8192   -2.1707 O   0  0  0  0  0  0  0  0  0  0  0  0
   -0.9988    0.1033   -4.7395 C   0  0  0  0  0  0  0  0  0  0  0  0
   -3.4502    1.3170   -3.7103 H   0  0  0  0  0  0  0  0  0  0  0  0
   -1.9154   -1.1905   -3.2881 H   0  0  0  0  0  0  0  0  0  0  0  0
   -0.9711    1.1651   -5.0046 H   0  0  0  0  0  0  0  0  0  0  0  0
    0.0201   -0.2221   -4.5058 H   0  0  0  0  0  0  0  0  0  0  0  0
   -1.3557   -0.4644   -5.6040 H   0  0  0  0  0  0  0  0  0  0  0  0
   -0.5872    0.0367   -1.3891 N   0  0  0  0  0  0  0  0  0  0  0  0
   -0.0716    0.5289   -0.0923 C   0  0  2  0  0  0  0  0  0  0  0  0
   -1.0523    1.2445    0.8817 C   0  0  0  0  0  0  0  0  0  0  0  0
   -0.7970    1.2732    2.0817 O   0  0  0  0  0  0  0  0  0  0  0  0
    1.1232    1.4425   -0.4306 C   0  0  0  0  0  0  0  0  0  0  0  0
    2.3074    0.6526   -0.9861 C   0  0  0  0  0  0  0  0  0  0  0  0
    2.4600   -0.5423   -0.6238 O   0  5  0  0  0  0  0  0  0  0  0  0
    3.0333    1.2360   -1.8258 O   0  0  0  0  0  0  0  0  0  0  0  0
   -0.1740   -0.8403   -1.6993 H   0  0  0  0  0  0  0  0  0  0  0  0
    0.2854   -0.3358    0.4773 H   0  0  0  0  0  0  0  0  0  0  0  0
    1.4629    1.9454    0.4789 H   0  0  0  0  0  0  0  0  0  0  0  0
    0.8222    2.2132   -1.1460 H   0  0  0  0  0  0  0  0  0  0  0  0
   -2.2927    1.7148    0.4986 N   0  0  0  0  0  0  0  0  0  0  0  0
   -3.3531    2.2075    1.3803 C   0  0  2  0  0  0  0  0  0  0  0  0
   -4.7557    1.7725    0.9012 C   0  0  0  0  0  0  0  0  0  0  0  0
   -5.0129    1.6337   -0.2913 O   0  0  0  0  0  0  0  0  0  0  0  0
   -3.2535    3.7333    1.4362 C   0  0  0  0  0  0  0  0  0  0  0  0
   -2.4488    1.7728   -0.5109 H   0  0  0  0  0  0  0  0  0  0  0  0
   -3.2117    1.8033    2.3875 H   0  0  0  0  0  0  0  0  0  0  0  0
   -3.3897    4.1617    0.4378 H   0  0  0  0  0  0  0  0  0  0  0  0
   -4.0196    4.1431    2.1008 H   0  0  0  0  0  0  0  0  0  0  0  0
   -2.2703    4.0333    1.8125 H   0  0  0  0  0  0  0  0  0  0  0  0
   -5.7592    1.5551    1.8291 N   0  0  0  0  0  0  0  0  0  0  0  0
   -7.0894    1.0803    1.4722 C   0  0  0  0  0  0  0  0  0  0  0  0
   -5.5022    1.6099    2.8100 H   0  0  0  0  0  0  0  0  0  0  0  0
   -7.5698    1.7754    0.7760 H   0  0  0  0  0  0  0  0  0  0  0  0
   -7.0298    0.0934    1.0017 H   0  0  0  0  0  0  0  0  0  0  0  0
   -7.7140    1.0015    2.3668 H   0  0  0  0  0  0  0  0  0  0  0  0
  1  2  2  0  0  0  0
  1  3  1  0  0  0  0
  1  7  1  0  0  0  0
  3  4  1  0  0  0  0
  3  5  1  0  0  0  0
  3  6  1  0  0  0  0
  7  8  1  0  0  0  0
  7 12  1  0  0  0  0
  8  9  1  0  0  0  0
  8 11  1  0  0  0  0
  8 13  1  0  0  0  0
  9 10  2  0  0  0  0
  9 17  1  0  0  0  0
 11 14  1  0  0  0  0
 11 15  1  0  0  0  0
 11 16  1  0  0  0  0
 17 18  1  0  0  0  0
 17 25  1  0  0  0  0
 18 19  1  0  0  0  0
 18 21  1  0  0  0  0
 18 26  1  0  0  0  0
 19 20  2  0  0  0  0
 19 29  1  0  0  0  0
 21 22  1  0  0  0  0
 21 27  1  0  0  0  0
 21 28  1  0  0  0  0
 22 23  1  0  0  0  0
 22 24  2  0  0  0  0
 29 30  1  0  0  0  0
 29 34  1  0  0  0  0
 30 31  1  0  0  0  0
 30 33  1  0  0  0  0
 30 35  1  0  0  0  0
 31 32  2  0  0  0  0
 31 39  1  0  0  0  0
 33 36  1  0  0  0  0
 33 37  1  0  0  0  0
 33 38  1  0  0  0  0
 39 40  1  0  0  0  0
 39 41  1  0  0  0  0
 40 42  1  0  0  0  0
 40 43  1  0  0  0  0
 40 44  1  0  0  0  0
M  CHG  1  23  -1
M  END
$$$$

  -OEChem-05262215553D

 44 43  0     1  0  0  0  0  0999 V2000
   -4.2469   -0.6294   -4.2856 C   0  0  0  0  0  0  0  0  0  0  0  0
   -3.9926   -1.8159   -4.4283 O   0  0  0  0  0  0  0  0  0  0  0  0
   -5.6855   -0.1507   -4.3545 C   0  0  0  0  0  0  0  0  0  0  0  0
   -5.8069    0.5480   -5.1858 H   0  0  0  0  0  0  0  0  0  0  0  0
   -6.3603   -0.9981   -4.5025 H   0  0  0  0  0  0  0  0  0  0  0  0
   -5.9541    0.3527   -3.4219 H   0  0  0  0  0  0  0  0  0  0  0  0
   -3.2427    0.2866   -4.0547 N   0  0  0  0  0  0  0  0  0  0  0  0
   -1.8919   -0.0787   -3.6036 C   0  0  2  0  0  0  0  0  0  0  0  0
   -1.5972    0.5482   -2.2263 C   0  0  0  0  0  0  0  0  0  0  0  0
   -2.1928    1.5715   -1.9061 O   0  0  0  0  0  0  0  0  0  0  0  0
   -0.8805    0.4194   -4.6377 C   0  0  0  0  0  0  0  0  0  0  0  0
   -3.5574    1.2098   -3.7584 H   0  0  0  0  0  0  0  0  0  0  0  0
   -1.7925   -1.1646   -3.5060 H   0  0  0  0  0  0  0  0  0  0  0  0
   -0.9480    1.5065   -4.7473 H   0  0  0  0  0  0  0  0  0  0  0  0
    0.1391    0.1662   -4.3286 H   0  0  0  0  0  0  0  0  0  0  0  0
   -1.0734   -0.0437   -5.6102 H   0  0  0  0  0  0  0  0  0  0  0  0
   -0.6755   -0.0493   -1.3863 N   0  0  0  0  0  0  0  0  0  0  0  0
   -0.1270    0.4277   -0.0985 C   0  0  2  0  0  0  0  0  0  0  0  0
   -1.0931    1.0204    0.9683 C   0  0  0  0  0  0  0  0  0  0  0  0
   -0.6694    1.2880    2.0890 O   0  0  0  0  0  0  0  0  0  0  0  0
    0.9630    1.4485   -0.4863 C   0  0  0  0  0  0  0  0  0  0  0  0
    2.1622    0.7755   -1.1517 C   0  0  0  0  0  0  0  0  0  0  0  0
    2.4356   -0.4130   -0.8447 O   0  5  0  0  0  0  0  0  0  0  0  0
    2.7504    1.4286   -2.0458 O   0  0  0  0  0  0  0  0  0  0  0  0
   -0.1128   -0.7761   -1.8257 H   0  0  0  0  0  0  0  0  0  0  0  0
    0.3352   -0.4254    0.4090 H   0  0  0  0  0  0  0  0  0  0  0  0
    1.3300    1.9490    0.4134 H   0  0  0  0  0  0  0  0  0  0  0  0
    0.5492    2.2148   -1.1481 H   0  0  0  0  0  0  0  0  0  0  0  0
   -2.4574    1.1271    0.7736 N   0  0  0  0  0  0  0  0  0  0  0  0
   -3.3967    1.7293    1.7249 C   0  0  2  0  0  0  0  0  0  0  0  0
   -4.8338    1.1913    1.5596 C   0  0  0  0  0  0  0  0  0  0  0  0
   -5.3039    0.9463    0.4531 O   0  0  0  0  0  0  0  0  0  0  0  0
   -3.3741    3.2479    1.5259 C   0  0  0  0  0  0  0  0  0  0  0  0
   -2.7441    1.1072   -0.2084 H   0  0  0  0  0  0  0  0  0  0  0  0
   -3.0772    1.4977    2.7457 H   0  0  0  0  0  0  0  0  0  0  0  0
   -3.6760    3.5032    0.5049 H   0  0  0  0  0  0  0  0  0  0  0  0
   -4.0582    3.7362    2.2258 H   0  0  0  0  0  0  0  0  0  0  0  0
   -2.3662    3.6390    1.6973 H   0  0  0  0  0  0  0  0  0  0  0  0
   -5.6319    1.0197    2.6771 N   0  0  0  0  0  0  0  0  0  0  0  0
   -6.9897    0.4954    2.6196 C   0  0  0  0  0  0  0  0  0  0  0  0
   -5.2045    1.1895    3.5827 H   0  0  0  0  0  0  0  0  0  0  0  0
   -7.6311    1.1587    2.0299 H   0  0  0  0  0  0  0  0  0  0  0  0
   -6.9969   -0.5003    2.1639 H   0  0  0  0  0  0  0  0  0  0  0  0
   -7.4064    0.4174    3.6284 H   0  0  0  0  0  0  0  0  0  0  0  0
  1  2  2  0  0  0  0
  1  3  1  0  0  0  0
  1  7  1  0  0  0  0
  3  4  1  0  0  0  0
  3  5  1  0  0  0  0
  3  6  1  0  0  0  0
  7  8  1  0  0  0  0
  7 12  1  0  0  0  0
  8  9  1  0  0  0  0
  8 11  1  0  0  0  0
  8 13  1  0  0  0  0
  9 10  2  0  0  0  0
  9 17  1  0  0  0  0
 11 14  1  0  0  0  0
 11 15  1  0  0  0  0
 11 16  1  0  0  0  0
 17 18  1  0  0  0  0
 17 25  1  0  0  0  0
 18 19  1  0  0  0  0
 18 21  1  0  0  0  0
 18 26  1  0  0  0  0
 19 20  2  0  0  0  0
 19 29  1  0  0  0  0
 21 22  1  0  0  0  0
 21 27  1  0  0  0  0
 21 28  1  0  0  0  0
 22 23  1  0  0  0  0
 22 24  2  0  0  0  0
 29 30  1  0  0  0  0
 29 34  1  0  0  0  0
 30 31  1  0  0  0  0
 30 33  1  0  0  0  0
 30 35  1  0  0  0  0
 31 32  2  0  0  0  0
 31 39  1  0  0  0  0
 33 36  1  0  0  0  0
 33 37  1  0  0  0  0
 33 38  1  0  0  0  0
 39 40  1  0  0  0  0
 39 41  1  0  0  0  0
 40 42  1  0  0  0  0
 40 43  1  0  0  0  0
 40 44  1  0  0  0  0
M  CHG  1  23  -1
M  END
$$$$

  -OEChem-05262215553D

 44 43  0     1  0  0  0  0  0999 V2000
   -4.2297   -0.4890   -4.5639 C   0  0  0  0  0  0  0  0  0  0  0  0
   -3.9053   -1.6052   -4.9399 O   0  0  0  0  0  0  0  0  0  0  0  0
   -5.6635   -0.0210   -4.7324 C   0  0  0  0  0  0  0  0  0  0  0  0
   -5.6968    0.8450   -5.3979 H   0  0  0  0  0  0  0  0  0  0  0  0
   -6.2746   -0.8203   -5.1606 H   0  0  0  0  0  0  0  0  0  0  0  0
   -6.0799    0.2584   -3.7613 H   0  0  0  0  0  0  0  0  0  0  0  0
   -3.3098    0.3542   -3.9796 N   0  0  0  0  0  0  0  0  0  0  0  0
   -1.9891   -0.0693   -3.4955 C   0  0  2  0  0  0  0  0  0  0  0  0
   -1.7334    0.4580   -2.0683 C   0  0  0  0  0  0  0  0  0  0  0  0
   -2.4343    1.3654   -1.6324 O   0  0  0  0  0  0  0  0  0  0  0  0
   -0.9244    0.4648   -4.4564 C   0  0  0  0  0  0  0  0  0  0  0  0
   -3.6859    1.1919   -3.5366 H   0  0  0  0  0  0  0  0  0  0  0  0
   -1.9252   -1.1621   -3.4619 H   0  0  0  0  0  0  0  0  0  0  0  0
   -0.9538    1.5587   -4.4916 H   0  0  0  0  0  0  0  0  0  0  0  0
    0.0754    0.1567   -4.1327 H   0  0  0  0  0  0  0  0  0  0  0  0
   -1.0960    0.0766   -5.4648 H   0  0  0  0  0  0  0  0  0  0  0  0
   -0.7264   -0.1053   -1.3068 N   0  0  0  0  0  0  0  0  0  0  0  0
   -0.0990    0.4170   -0.0748 C   0  0  2  0  0  0  0  0  0  0  0  0
   -1.0152    0.9919    1.0431 C   0  0  0  0  0  0  0  0  0  0  0  0
   -0.5245    1.5160    2.0394 O   0  0  0  0  0  0  0  0  0  0  0  0
    0.9127    1.4696   -0.5801 C   0  0  0  0  0  0  0  0  0  0  0  0
    2.0752    0.8236   -1.3308 C   0  0  0  0  0  0  0  0  0  0  0  0
    2.4191   -0.3449   -1.0187 O   0  5  0  0  0  0  0  0  0  0  0  0
    2.5370    1.4599   -2.3074 O   0  0  0  0  0  0  0  0  0  0  0  0
   -0.1247   -0.7467   -1.8225 H   0  0  0  0  0  0  0  0  0  0  0  0
    0.4356   -0.4038    0.4144 H   0  0  0  0  0  0  0  0  0  0  0  0
    1.3384    2.0077    0.2706 H   0  0  0  0  0  0  0  0  0  0  0  0
    0.4145    2.2032   -1.2204 H   0  0  0  0  0  0  0  0  0  0  0  0
   -2.3779    0.7583    1.0600 N   0  0  0  0  0  0  0  0  0  0  0  0
   -3.3000    1.3125    2.0573 C   0  0  2  0  0  0  0  0  0  0  0  0
   -4.6205    0.5196    2.1548 C   0  0  0  0  0  0  0  0  0  0  0  0
   -5.1132   -0.0298    1.1750 O   0  0  0  0  0  0  0  0  0  0  0  0
   -3.5918    2.7711    1.6876 C   0  0  0  0  0  0  0  0  0  0  0  0
   -2.7706    0.5568    0.1381 H   0  0  0  0  0  0  0  0  0  0  0  0
   -2.8266    1.2794    3.0436 H   0  0  0  0  0  0  0  0  0  0  0  0
   -4.0332    2.8288    0.6872 H   0  0  0  0  0  0  0  0  0  0  0  0
   -4.2877    3.2170    2.4040 H   0  0  0  0  0  0  0  0  0  0  0  0
   -2.6679    3.3579    1.6928 H   0  0  0  0  0  0  0  0  0  0  0  0
   -5.2919    0.4559    3.3636 N   0  0  0  0  0  0  0  0  0  0  0  0
   -6.5341   -0.2805    3.5547 C   0  0  0  0  0  0  0  0  0  0  0  0
   -4.8450    0.8888    4.1663 H   0  0  0  0  0  0  0  0  0  0  0  0
   -7.3230    0.1265    2.9137 H   0  0  0  0  0  0  0  0  0  0  0  0
   -6.3927   -1.3389    3.3128 H   0  0  0  0  0  0  0  0  0  0  0  0
   -6.8610   -0.2041    4.5960 H   0  0  0  0  0  0  0  0  0  0  0  0
  1  2  2  0  0  0  0
  1  3  1  0  0  0  0
  1  7  1  0  0  0  0
  3  4  1  0  0  0  0
  3  5  1  0  0  0  0
  3  6  1  0  0  0  0
  7  8  1  0  0  0  0
  7 12  1  0  0  0  0
  8  9  1  0  0  0  0
  8 11  1  0  0  0  0
  8 13  1  0  0  0  0
  9 10  2  0  0  0  0
  9 17  1  0  0  0  0
 11 14  1  0  0  0  0
 11 15  1  0  0  0  0
 11 16  1  0  0  0  0
 17 18  1  0  0  0  0
 17 25  1  0  0  0  0
 18 19  1  0  0  0  0
 18 21  1  0  0  0  0
 18 26  1  0  0  0  0
 19 20  2  0  0  0  0
 19 29  1  0  0  0  0
 21 22  1  0  0  0  0
 21 27  1  0  0  0  0
 21 28  1  0  0  0  0
 22 23  1  0  0  0  0
 22 24  2  0  0  0  0
 29 30  1  0  0  0  0
 29 34  1  0  0  0  0
 30 31  1  0  0  0  0
 30 33  1  0  0  0  0
 30 35  1  0  0  0  0
 31 32  2  0  0  0  0
 31 39  1  0  0  0  0
 33 36  1  0  0  0  0
 33 37  1  0  0  0  0
 33 38  1  0  0  0  0
 39 40  1  0  0  0  0
 39 41  1  0  0  0  0
 40 42  1  0  0  0  0
 40 43  1  0  0  0  0
 40 44  1  0  0  0  0
M  CHG  1  23  -1
M  END
$$$$

  -OEChem-05262215553D

 44 43  0     1  0  0  0  0  0999 V2000
   -4.3060   -0.3402   -4.5086 C   0  0  0  0  0  0  0  0  0  0  0  0
   -4.0220   -1.4504   -4.9318 O   0  0  0  0  0  0  0  0  0  0  0  0
   -5.7093    0.2060   -4.7000 C   0  0  0  0  0  0  0  0  0  0  0  0
   -5.6747    1.1188   -5.3002 H   0  0  0  0  0  0  0  0  0  0  0  0
   -6.3355   -0.5306   -5.2113 H   0  0  0  0  0  0  0  0  0  0  0  0
   -6.1552    0.4336   -3.7282 H   0  0  0  0  0  0  0  0  0  0  0  0
   -3.3693    0.4244   -3.8478 N   0  0  0  0  0  0  0  0  0  0  0  0
   -2.0769   -0.0809   -3.3646 C   0  0  2  0  0  0  0  0  0  0  0  0
   -1.7899    0.4096   -1.9294 C   0  0  0  0  0  0  0  0  0  0  0  0
   -2.5163    1.2611   -1.4273 O   0  0  0  0  0  0  0  0  0  0  0  0
   -0.9795    0.3975   -4.3203 C   0  0  0  0  0  0  0  0  0  0  0  0
   -3.7164    1.2583   -3.3750 H   0  0  0  0  0  0  0  0  0  0  0  0
   -2.0810   -1.1760   -3.3423 H   0  0  0  0  0  0  0  0  0  0  0  0
   -0.9341    1.4912   -4.3365 H   0  0  0  0  0  0  0  0  0  0  0  0
   -0.0011    0.0179   -4.0073 H   0  0  0  0  0  0  0  0  0  0  0  0
   -1.1786    0.0402   -5.3352 H   0  0  0  0  0  0  0  0  0  0  0  0
   -0.7199   -0.1243   -1.2351 N   0  0  0  0  0  0  0  0  0  0  0  0
   -0.0360    0.4469   -0.0578 C   0  0  2  0  0  0  0  0  0  0  0  0
   -0.9323    1.0112    1.0797 C   0  0  0  0  0  0  0  0  0  0  0  0
   -0.4951    1.8037    1.9099 O   0  0  0  0  0  0  0  0  0  0  0  0
    0.9136    1.5141   -0.6472 C   0  0  0  0  0  0  0  0  0  0  0  0
    2.0473    0.8803   -1.4498 C   0  0  0  0  0  0  0  0  0  0  0  0
    2.4408   -0.2700   -1.1299 O   0  5  0  0  0  0  0  0  0  0  0  0
    2.4255    1.4978   -2.4730 O   0  0  0  0  0  0  0  0  0  0  0  0
   -0.1152   -0.7209   -1.7995 H   0  0  0  0  0  0  0  0  0  0  0  0
    0.5502   -0.3422    0.4241 H   0  0  0  0  0  0  0  0  0  0  0  0
    1.3756    2.0831    0.1635 H   0  0  0  0  0  0  0  0  0  0  0  0
    0.3568    2.2186   -1.2722 H   0  0  0  0  0  0  0  0  0  0  0  0
   -2.1843    0.4724    1.3142 N   0  0  0  0  0  0  0  0  0  0  0  0
   -3.1276    0.9814    2.3159 C   0  0  2  0  0  0  0  0  0  0  0  0
   -4.2251   -0.0423    2.6745 C   0  0  0  0  0  0  0  0  0  0  0  0
   -4.5742   -0.9109    1.8816 O   0  0  0  0  0  0  0  0  0  0  0  0
   -3.7706    2.2638    1.7754 C   0  0  0  0  0  0  0  0  0  0  0  0
   -2.5821   -0.0305    0.5228 H   0  0  0  0  0  0  0  0  0  0  0  0
   -2.5818    1.2124    3.2363 H   0  0  0  0  0  0  0  0  0  0  0  0
   -4.3144    2.0552    0.8482 H   0  0  0  0  0  0  0  0  0  0  0  0
   -4.4699    2.6799    2.5063 H   0  0  0  0  0  0  0  0  0  0  0  0
   -3.0044    3.0165    1.5643 H   0  0  0  0  0  0  0  0  0  0  0  0
   -4.8571    0.0351    3.9034 N   0  0  0  0  0  0  0  0  0  0  0  0
   -5.8947   -0.8928    4.3324 C   0  0  0  0  0  0  0  0  0  0  0  0
   -4.5285    0.7446    4.5514 H   0  0  0  0  0  0  0  0  0  0  0  0
   -6.7381   -0.8739    3.6340 H   0  0  0  0  0  0  0  0  0  0  0  0
   -5.4990   -1.9126    4.3817 H   0  0  0  0  0  0  0  0  0  0  0  0
   -6.2619   -0.6148    5.3247 H   0  0  0  0  0  0  0  0  0  0  0  0
  1  2  2  0  0  0  0
  1  3  1  0  0  0  0
  1  7  1  0  0  0  0
  3  4  1  0  0  0  0
  3  5  1  0  0  0  0
  3  6  1  0  0  0  0
  7  8  1  0  0  0  0
  7 12  1  0  0  0  0
  8  9  1  0  0  0  0
  8 11  1  0  0  0  0
  8 13  1  0  0  0  0
  9 10  2  0  0  0  0
  9 17  1  0  0  0  0
 11 14  1  0  0  0  0
 11 15  1  0  0  0  0
 11 16  1  0  0  0  0
 17 18  1  0  0  0  0
 17 25  1  0  0  0  0
 18 19  1  0  0  0  0
 18 21  1  0  0  0  0
 18 26  1  0  0  0  0
 19 20  2  0  0  0  0
 19 29  1  0  0  0  0
 21 22  1  0  0  0  0
 21 27  1  0  0  0  0
 21 28  1  0  0  0  0
 22 23  1  0  0  0  0
 22 24  2  0  0  0  0
 29 30  1  0  0  0  0
 29 34  1  0  0  0  0
 30 31  1  0  0  0  0
 30 33  1  0  0  0  0
 30 35  1  0  0  0  0
 31 32  2  0  0  0  0
 31 39  1  0  0  0  0
 33 36  1  0  0  0  0
 33 37  1  0  0  0  0
 33 38  1  0  0  0  0
 39 40  1  0  0  0  0
 39 41  1  0  0  0  0
 40 42  1  0  0  0  0
 40 43  1  0  0  0  0
 40 44  1  0  0  0  0
M  CHG  1  23  -1
M  END
$$$$

  -OEChem-05262215553D

 44 43  0     1  0  0  0  0  0999 V2000
   -4.3924   -0.2600   -4.3542 C   0  0  0  0  0  0  0  0  0  0  0  0
   -4.1627   -1.3868   -4.7661 O   0  0  0  0  0  0  0  0  0  0  0  0
   -5.7699    0.3481   -4.5444 C   0  0  0  0  0  0  0  0  0  0  0  0
   -5.7146    1.1797   -5.2513 H   0  0  0  0  0  0  0  0  0  0  0  0
   -6.4641   -0.4025   -4.9325 H   0  0  0  0  0  0  0  0  0  0  0  0
   -6.1499    0.7169   -3.5884 H   0  0  0  0  0  0  0  0  0  0  0  0
   -3.4157    0.4699   -3.7131 N   0  0  0  0  0  0  0  0  0  0  0  0
   -2.1318   -0.0782   -3.2554 C   0  0  2  0  0  0  0  0  0  0  0  0
   -1.7908    0.4181   -1.8335 C   0  0  0  0  0  0  0  0  0  0  0  0
   -2.4988    1.2732   -1.3112 O   0  0  0  0  0  0  0  0  0  0  0  0
   -1.0465    0.3466   -4.2502 C   0  0  0  0  0  0  0  0  0  0  0  0
   -3.7200    1.3205   -3.2407 H   0  0  0  0  0  0  0  0  0  0  0  0
   -2.1769   -1.1717   -3.2174 H   0  0  0  0  0  0  0  0  0  0  0  0
   -0.9660    1.4379   -4.2878 H   0  0  0  0  0  0  0  0  0  0  0  0
   -0.0725   -0.0597   -3.9593 H   0  0  0  0  0  0  0  0  0  0  0  0
   -1.2874   -0.0217   -5.2520 H   0  0  0  0  0  0  0  0  0  0  0  0
   -0.7002   -0.1180   -1.1722 N   0  0  0  0  0  0  0  0  0  0  0  0
    0.0204    0.4767   -0.0305 C   0  0  2  0  0  0  0  0  0  0  0  0
   -0.8732    1.0567    1.0985 C   0  0  0  0  0  0  0  0  0  0  0  0
   -0.5689    2.0621    1.7352 O   0  0  0  0  0  0  0  0  0  0  0  0
    0.9673    1.5220   -0.6624 C   0  0  0  0  0  0  0  0  0  0  0  0
    2.0760    0.8586   -1.4757 C   0  0  0  0  0  0  0  0  0  0  0  0
    2.4623   -0.2891   -1.1376 O   0  5  0  0  0  0  0  0  0  0  0  0
    2.4431    1.4494   -2.5185 O   0  0  0  0  0  0  0  0  0  0  0  0
   -0.1131   -0.7174   -1.7517 H   0  0  0  0  0  0  0  0  0  0  0  0
    0.6128   -0.3017    0.4614 H   0  0  0  0  0  0  0  0  0  0  0  0
    1.4517    2.1023    0.1268 H   0  0  0  0  0  0  0  0  0  0  0  0
    0.4043    2.2194   -1.2897 H   0  0  0  0  0  0  0  0  0  0  0  0
   -1.9560    0.3188    1.5425 N   0  0  0  0  0  0  0  0  0  0  0  0
   -2.9272    0.7888    2.5359 C   0  0  2  0  0  0  0  0  0  0  0  0
   -3.7232   -0.3646    3.1811 C   0  0  0  0  0  0  0  0  0  0  0  0
   -3.8482   -1.4470    2.6172 O   0  0  0  0  0  0  0  0  0  0  0  0
   -3.8885    1.7658    1.8488 C   0  0  0  0  0  0  0  0  0  0  0  0
   -2.2325   -0.4622    0.9521 H   0  0  0  0  0  0  0  0  0  0  0  0
   -2.3958    1.3098    3.3387 H   0  0  0  0  0  0  0  0  0  0  0  0
   -4.4257    1.2639    1.0376 H   0  0  0  0  0  0  0  0  0  0  0  0
   -4.6178    2.1557    2.5643 H   0  0  0  0  0  0  0  0  0  0  0  0
   -3.3357    2.6101    1.4247 H   0  0  0  0  0  0  0  0  0  0  0  0
   -4.3342   -0.1731    4.4078 N   0  0  0  0  0  0  0  0  0  0  0  0
   -5.1062   -1.2025    5.0902 C   0  0  0  0  0  0  0  0  0  0  0  0
   -4.2017    0.7274    4.8583 H   0  0  0  0  0  0  0  0  0  0  0  0
   -5.9561   -1.5144    4.4745 H   0  0  0  0  0  0  0  0  0  0  0  0
   -4.4799   -2.0763    5.2976 H   0  0  0  0  0  0  0  0  0  0  0  0
   -5.4897   -0.8183    6.0401 H   0  0  0  0  0  0  0  0  0  0  0  0
  1  2  2  0  0  0  0
  1  3  1  0  0  0  0
  1  7  1  0  0  0  0
  3  4  1  0  0  0  0
  3  5  1  0  0  0  0
  3  6  1  0  0  0  0
  7  8  1  0  0  0  0
  7 12  1  0  0  0  0
  8  9  1  0  0  0  0
  8 11  1  0  0  0  0
  8 13  1  0  0  0  0
  9 10  2  0  0  0  0
  9 17  1  0  0  0  0
 11 14  1  0  0  0  0
 11 15  1  0  0  0  0
 11 16  1  0  0  0  0
 17 18  1  0  0  0  0
 17 25  1  0  0  0  0
 18 19  1  0  0  0  0
 18 21  1  0  0  0  0
 18 26  1  0  0  0  0
 19 20  2  0  0  0  0
 19 29  1  0  0  0  0
 21 22  1  0  0  0  0
 21 27  1  0  0  0  0
 21 28  1  0  0  0  0
 22 23  1  0  0  0  0
 22 24  2  0  0  0  0
 29 30  1  0  0  0  0
 29 34  1  0  0  0  0
 30 31  1  0  0  0  0
 30 33  1  0  0  0  0
 30 35  1  0  0  0  0
 31 32  2  0  0  0  0
 31 39  1  0  0  0  0
 33 36  1  0  0  0  0
 33 37  1  0  0  0  0
 33 38  1  0  0  0  0
 39 40  1  0  0  0  0
 39 41  1  0  0  0  0
 40 42  1  0  0  0  0
 40 43  1  0  0  0  0
 40 44  1  0  0  0  0
M  CHG  1  23  -1
M  END
$$$$

  -OEChem-05262215553D

 44 43  0     1  0  0  0  0  0999 V2000
   -4.4290   -0.2401   -4.2702 C   0  0  0  0  0  0  0  0  0  0  0  0
   -4.2370   -1.3848   -4.6509 O   0  0  0  0  0  0  0  0  0  0  0  0
   -5.7962    0.3947   -4.4477 C   0  0  0  0  0  0  0  0  0  0  0  0
   -5.7313    1.2227   -5.1580 H   0  0  0  0  0  0  0  0  0  0  0  0
   -6.5089   -0.3431   -4.8267 H   0  0  0  0  0  0  0  0  0  0  0  0
   -6.1595    0.7742   -3.4892 H   0  0  0  0  0  0  0  0  0  0  0  0
   -3.4205    0.4868   -3.6767 N   0  0  0  0  0  0  0  0  0  0  0  0
   -2.1477   -0.0835   -3.2150 C   0  0  2  0  0  0  0  0  0  0  0  0
   -1.8089    0.4009   -1.7882 C   0  0  0  0  0  0  0  0  0  0  0  0
   -2.5289    1.2374   -1.2521 O   0  0  0  0  0  0  0  0  0  0  0  0
   -1.0518    0.3314   -4.2021 C   0  0  0  0  0  0  0  0  0  0  0  0
   -3.7003    1.3511   -3.2139 H   0  0  0  0  0  0  0  0  0  0  0  0
   -2.2066   -1.1765   -3.1831 H   0  0  0  0  0  0  0  0  0  0  0  0
   -0.9482    1.4211   -4.2250 H   0  0  0  0  0  0  0  0  0  0  0  0
   -0.0870   -0.0997   -3.9157 H   0  0  0  0  0  0  0  0  0  0  0  0
   -1.2988   -0.0179   -5.2094 H   0  0  0  0  0  0  0  0  0  0  0  0
   -0.7131   -0.1333   -1.1344 N   0  0  0  0  0  0  0  0  0  0  0  0
    0.0253    0.4829   -0.0172 C   0  0  2  0  0  0  0  0  0  0  0  0
   -0.8628    1.0904    1.1006 C   0  0  0  0  0  0  0  0  0  0  0  0
   -0.7054    2.2269    1.5400 O   0  0  0  0  0  0  0  0  0  0  0  0
    0.9698    1.5094   -0.6822 C   0  0  0  0  0  0  0  0  0  0  0  0
    2.0655    0.8234   -1.4943 C   0  0  0  0  0  0  0  0  0  0  0  0
    2.4498   -0.3188   -1.1361 O   0  5  0  0  0  0  0  0  0  0  0  0
    2.4199    1.3876   -2.5558 O   0  0  0  0  0  0  0  0  0  0  0  0
   -0.1295   -0.7292   -1.7211 H   0  0  0  0  0  0  0  0  0  0  0  0
    0.6209   -0.2855    0.4860 H   0  0  0  0  0  0  0  0  0  0  0  0
    1.4648    2.1029    0.0905 H   0  0  0  0  0  0  0  0  0  0  0  0
    0.4026    2.1968   -1.3169 H   0  0  0  0  0  0  0  0  0  0  0  0
   -1.7359    0.2557    1.7753 N   0  0  0  0  0  0  0  0  0  0  0  0
   -2.6919    0.7067    2.7923 C   0  0  2  0  0  0  0  0  0  0  0  0
   -3.1920   -0.4439    3.6901 C   0  0  0  0  0  0  0  0  0  0  0  0
   -3.1648   -1.6082    3.3041 O   0  0  0  0  0  0  0  0  0  0  0  0
   -3.8798    1.3673    2.0829 C   0  0  0  0  0  0  0  0  0  0  0  0
   -1.8758   -0.6699    1.3771 H   0  0  0  0  0  0  0  0  0  0  0  0
   -2.2043    1.4411    3.4412 H   0  0  0  0  0  0  0  0  0  0  0  0
   -4.3779    0.6483    1.4246 H   0  0  0  0  0  0  0  0  0  0  0  0
   -4.6063    1.7369    2.8121 H   0  0  0  0  0  0  0  0  0  0  0  0
   -3.5408    2.2128    1.4757 H   0  0  0  0  0  0  0  0  0  0  0  0
   -3.7090   -0.1634    4.9429 N   0  0  0  0  0  0  0  0  0  0  0  0
   -4.1999   -1.1855    5.8571 C   0  0  0  0  0  0  0  0  0  0  0  0
   -3.6963    0.8063    5.2448 H   0  0  0  0  0  0  0  0  0  0  0  0
   -5.0077   -1.7594    5.3913 H   0  0  0  0  0  0  0  0  0  0  0  0
   -3.3922   -1.8711    6.1332 H   0  0  0  0  0  0  0  0  0  0  0  0
   -4.5875   -0.7215    6.7688 H   0  0  0  0  0  0  0  0  0  0  0  0
  1  2  2  0  0  0  0
  1  3  1  0  0  0  0
  1  7  1  0  0  0  0
  3  4  1  0  0  0  0
  3  5  1  0  0  0  0
  3  6  1  0  0  0  0
  7  8  1  0  0  0  0
  7 12  1  0  0  0  0
  8  9  1  0  0  0  0
  8 11  1  0  0  0  0
  8 13  1  0  0  0  0
  9 10  2  0  0  0  0
  9 17  1  0  0  0  0
 11 14  1  0  0  0  0
 11 15  1  0  0  0  0
 11 16  1  0  0  0  0
 17 18  1  0  0  0  0
 17 25  1  0  0  0  0
 18 19  1  0  0  0  0
 18 21  1  0  0  0  0
 18 26  1  0  0  0  0
 19 20  2  0  0  0  0
 19 29  1  0  0  0  0
 21 22  1  0  0  0  0
 21 27  1  0  0  0  0
 21 28  1  0  0  0  0
 22 23  1  0  0  0  0
 22 24  2  0  0  0  0
 29 30  1  0  0  0  0
 29 34  1  0  0  0  0
 30 31  1  0  0  0  0
 30 33  1  0  0  0  0
 30 35  1  0  0  0  0
 31 32  2  0  0  0  0
 31 39  1  0  0  0  0
 33 36  1  0  0  0  0
 33 37  1  0  0  0  0
 33 38  1  0  0  0  0
 39 40  1  0  0  0  0
 39 41  1  0  0  0  0
 40 42  1  0  0  0  0
 40 43  1  0  0  0  0
 40 44  1  0  0  0  0
M  CHG  1  23  -1
M  END
$$$$

  -OEChem-05262215553D

 44 43  0     1  0  0  0  0  0999 V2000
   -4.4277   -0.2514   -4.2989 C   0  0  0  0  0  0  0  0  0  0  0  0
   -4.2208   -1.3921   -4.6845 O   0  0  0  0  0  0  0  0  0  0  0  0
   -5.8000    0.3703   -4.4865 C   0  0  0  0  0  0  0  0  0  0  0  0
   -5.7349    1.2123   -5.1798 H   0  0  0  0  0  0  0  0  0  0  0  0
   -6.4976   -0.3684   -4.8911 H   0  0  0  0  0  0  0  0  0  0  0  0
   -6.1827    0.7271   -3.5271 H   0  0  0  0  0  0  0  0  0  0  0  0
   -3.4330    0.4809   -3.6886 N   0  0  0  0  0  0  0  0  0  0  0  0
   -2.1594   -0.0798   -3.2162 C   0  0  2  0  0  0  0  0  0  0  0  0
   -1.8516    0.3748   -1.7723 C   0  0  0  0  0  0  0  0  0  0  0  0
   -2.5962    1.1823   -1.2264 O   0  0  0  0  0  0  0  0  0  0  0  0
   -1.0537    0.3777   -4.1731 C   0  0  0  0  0  0  0  0  0  0  0  0
   -3.7277    1.3379   -3.2218 H   0  0  0  0  0  0  0  0  0  0  0  0
   -2.1995   -1.1741   -3.2119 H   0  0  0  0  0  0  0  0  0  0  0  0
   -0.9697    1.4695   -4.1695 H   0  0  0  0  0  0  0  0  0  0  0  0
   -0.0861   -0.0414   -3.8783 H   0  0  0  0  0  0  0  0  0  0  0  0
   -1.2746    0.0464   -5.1926 H   0  0  0  0  0  0  0  0  0  0  0  0
   -0.7613   -0.1622   -1.1123 N   0  0  0  0  0  0  0  0  0  0  0  0
   -0.0143    0.4649   -0.0077 C   0  0  2  0  0  0  0  0  0  0  0  0
   -0.8864    1.1055    1.1040 C   0  0  0  0  0  0  0  0  0  0  0  0
   -0.8724    2.3074    1.3586 O   0  0  0  0  0  0  0  0  0  0  0  0
    0.9445    1.4678   -0.6870 C   0  0  0  0  0  0  0  0  0  0  0  0
    2.0341    0.7582   -1.4863 C   0  0  0  0  0  0  0  0  0  0  0  0
    2.4048   -0.3826   -1.1100 O   0  5  0  0  0  0  0  0  0  0  0  0
    2.4004    1.3042   -2.5531 O   0  0  0  0  0  0  0  0  0  0  0  0
   -0.1779   -0.7572   -1.6996 H   0  0  0  0  0  0  0  0  0  0  0  0
    0.5748   -0.3025    0.5044 H   0  0  0  0  0  0  0  0  0  0  0  0
    1.4421    2.0687    0.0787 H   0  0  0  0  0  0  0  0  0  0  0  0
    0.3865    2.1498   -1.3352 H   0  0  0  0  0  0  0  0  0  0  0  0
   -1.5262    0.2700    2.0025 N   0  0  0  0  0  0  0  0  0  0  0  0
   -2.4044    0.7309    3.0834 C   0  0  2  0  0  0  0  0  0  0  0  0
   -2.5963   -0.3303    4.1864 C   0  0  0  0  0  0  0  0  0  0  0  0
   -2.4083   -1.5212    3.9599 O   0  0  0  0  0  0  0  0  0  0  0  0
   -3.7614    1.1064    2.4770 C   0  0  0  0  0  0  0  0  0  0  0  0
   -1.5248   -0.7245    1.7880 H   0  0  0  0  0  0  0  0  0  0  0  0
   -1.9618    1.6151    3.5531 H   0  0  0  0  0  0  0  0  0  0  0  0
   -4.2199    0.2343    1.9998 H   0  0  0  0  0  0  0  0  0  0  0  0
   -4.4386    1.4789    3.2509 H   0  0  0  0  0  0  0  0  0  0  0  0
   -3.6378    1.8889    1.7212 H   0  0  0  0  0  0  0  0  0  0  0  0
   -3.0122    0.0573    5.4479 N   0  0  0  0  0  0  0  0  0  0  0  0
   -3.2078   -0.8733    6.5512 C   0  0  0  0  0  0  0  0  0  0  0  0
   -3.1337    1.0521    5.6125 H   0  0  0  0  0  0  0  0  0  0  0  0
   -3.9435   -1.6384    6.2817 H   0  0  0  0  0  0  0  0  0  0  0  0
   -2.2640   -1.3651    6.8085 H   0  0  0  0  0  0  0  0  0  0  0  0
   -3.5728   -0.3396    7.4340 H   0  0  0  0  0  0  0  0  0  0  0  0
  1  2  2  0  0  0  0
  1  3  1  0  0  0  0
  1  7  1  0  0  0  0
  3  4  1  0  0  0  0
  3  5  1  0  0  0  0
  3  6  1  0  0  0  0
  7  8  1  0  0  0  0
  7 12  1  0  0  0  0
  8  9  1  0  0  0  0
  8 11  1  0  0  0  0
  8 13  1  0  0  0  0
  9 10  2  0  0  0  0
  9 17  1  0  0  0  0
 11 14  1  0  0  0  0
 11 15  1  0  0  0  0
 11 16  1  0  0  0  0
 17 18  1  0  0  0  0
 17 25  1  0  0  0  0
 18 19  1  0  0  0  0
 18 21  1  0  0  0  0
 18 26  1  0  0  0  0
 19 20  2  0  0  0  0
 19 29  1  0  0  0  0
 21 22  1  0  0  0  0
 21 27  1  0  0  0  0
 21 28  1  0  0  0  0
 22 23  1  0  0  0  0
 22 24  2  0  0  0  0
 29 30  1  0  0  0  0
 29 34  1  0  0  0  0
 30 31  1  0  0  0  0
 30 33  1  0  0  0  0
 30 35  1  0  0  0  0
 31 32  2  0  0  0  0
 31 39  1  0  0  0  0
 33 36  1  0  0  0  0
 33 37  1  0  0  0  0
 33 38  1  0  0  0  0
 39 40  1  0  0  0  0
 39 41  1  0  0  0  0
 40 42  1  0  0  0  0
 40 43  1  0  0  0  0
 40 44  1  0  0  0  0
M  CHG  1  23  -1
M  END
$$$$

  -OEChem-05262215553D

 44 43  0     1  0  0  0  0  0999 V2000
   -4.4131   -0.2683   -4.3442 C   0  0  0  0  0  0  0  0  0  0  0  0
   -4.1853   -1.3970   -4.7531 O   0  0  0  0  0  0  0  0  0  0  0  0
   -5.7920    0.3381   -4.5296 C   0  0  0  0  0  0  0  0  0  0  0  0
   -5.7277    1.2140   -5.1796 H   0  0  0  0  0  0  0  0  0  0  0  0
   -6.4684   -0.3909   -4.9839 H   0  0  0  0  0  0  0  0  0  0  0  0
   -6.1995    0.6407   -3.5615 H   0  0  0  0  0  0  0  0  0  0  0  0
   -3.4388    0.4631   -3.7014 N   0  0  0  0  0  0  0  0  0  0  0  0
   -2.1707   -0.0948   -3.2115 C   0  0  2  0  0  0  0  0  0  0  0  0
   -1.8873    0.3603   -1.7630 C   0  0  0  0  0  0  0  0  0  0  0  0
   -2.6604    1.1420   -1.2205 O   0  0  0  0  0  0  0  0  0  0  0  0
   -1.0496    0.3636   -4.1494 C   0  0  0  0  0  0  0  0  0  0  0  0
   -3.7548    1.3033   -3.2177 H   0  0  0  0  0  0  0  0  0  0  0  0
   -2.2103   -1.1888   -3.2078 H   0  0  0  0  0  0  0  0  0  0  0  0
   -0.9657    1.4553   -4.1423 H   0  0  0  0  0  0  0  0  0  0  0  0
   -0.0876   -0.0572   -3.8389 H   0  0  0  0  0  0  0  0  0  0  0  0
   -1.2538    0.0348   -5.1728 H   0  0  0  0  0  0  0  0  0  0  0  0
   -0.8043   -0.1708   -1.0871 N   0  0  0  0  0  0  0  0  0  0  0  0
   -0.0640    0.4651    0.0165 C   0  0  2  0  0  0  0  0  0  0  0  0
   -0.9299    1.1255    1.1217 C   0  0  0  0  0  0  0  0  0  0  0  0
   -1.0744    2.3418    1.2186 O   0  0  0  0  0  0  0  0  0  0  0  0
    0.9052    1.4587   -0.6617 C   0  0  0  0  0  0  0  0  0  0  0  0
    2.0002    0.7377   -1.4437 C   0  0  0  0  0  0  0  0  0  0  0  0
    2.3614   -0.4012   -1.0522 O   0  5  0  0  0  0  0  0  0  0  0  0
    2.3863    1.2753   -2.5077 O   0  0  0  0  0  0  0  0  0  0  0  0
   -0.2133   -0.7647   -1.6676 H   0  0  0  0  0  0  0  0  0  0  0  0
    0.5201   -0.3013    0.5358 H   0  0  0  0  0  0  0  0  0  0  0  0
    1.3949    2.0653    0.1044 H   0  0  0  0  0  0  0  0  0  0  0  0
    0.3568    2.1369   -1.3223 H   0  0  0  0  0  0  0  0  0  0  0  0
   -1.3189    0.3574    2.2055 N   0  0  0  0  0  0  0  0  0  0  0  0
   -2.1226    0.8514    3.3291 C   0  0  2  0  0  0  0  0  0  0  0  0
   -2.0219   -0.0582    4.5706 C   0  0  0  0  0  0  0  0  0  0  0  0
   -1.7188   -1.2423    4.4635 O   0  0  0  0  0  0  0  0  0  0  0  0
   -3.5835    0.9588    2.8753 C   0  0  0  0  0  0  0  0  0  0  0  0
   -1.1499   -0.6448    2.1514 H   0  0  0  0  0  0  0  0  0  0  0  0
   -1.7612    1.8434    3.6190 H   0  0  0  0  0  0  0  0  0  0  0  0
   -3.9638   -0.0231    2.5769 H   0  0  0  0  0  0  0  0  0  0  0  0
   -4.2093    1.3451    3.6847 H   0  0  0  0  0  0  0  0  0  0  0  0
   -3.6691    1.6374    2.0202 H   0  0  0  0  0  0  0  0  0  0  0  0
   -2.2943    0.4578    5.8252 N   0  0  0  0  0  0  0  0  0  0  0  0
   -2.1713   -0.3153    7.0536 C   0  0  0  0  0  0  0  0  0  0  0  0
   -2.4963    1.4516    5.8849 H   0  0  0  0  0  0  0  0  0  0  0  0
   -2.8154   -1.2000    7.0159 H   0  0  0  0  0  0  0  0  0  0  0  0
   -1.1351   -0.6378    7.2000 H   0  0  0  0  0  0  0  0  0  0  0  0
   -2.4704    0.2924    7.9129 H   0  0  0  0  0  0  0  0  0  0  0  0
  1  2  2  0  0  0  0
  1  3  1  0  0  0  0
  1  7  1  0  0  0  0
  3  4  1  0  0  0  0
  3  5  1  0  0  0  0
  3  6  1  0  0  0  0
  7  8  1  0  0  0  0
  7 12  1  0  0  0  0
  8  9  1  0  0  0  0
  8 11  1  0  0  0  0
  8 13  1  0  0  0  0
  9 10  2  0  0  0  0
  9 17  1  0  0  0  0
 11 14  1  0  0  0  0
 11 15  1  0  0  0  0
 11 16  1  0  0  0  0
 17 18  1  0  0  0  0
 17 25  1  0  0  0  0
 18 19  1  0  0  0  0
 18 21  1  0  0  0  0
 18 26  1  0  0  0  0
 19 20  2  0  0  0  0
 19 29  1  0  0  0  0
 21 22  1  0  0  0  0
 21 27  1  0  0  0  0
 21 28  1  0  0  0  0
 22 23  1  0  0  0  0
 22 24  2  0  0  0  0
 29 30  1  0  0  0  0
 29 34  1  0  0  0  0
 30 31  1  0  0  0  0
 30 33  1  0  0  0  0
 30 35  1  0  0  0  0
 31 32  2  0  0  0  0
 31 39  1  0  0  0  0
 33 36  1  0  0  0  0
 33 37  1  0  0  0  0
 33 38  1  0  0  0  0
 39 40  1  0  0  0  0
 39 41  1  0  0  0  0
 40 42  1  0  0  0  0
 40 43  1  0  0  0  0
 40 44  1  0  0  0  0
M  CHG  1  23  -1
M  END
$$$$

  -OEChem-05262215553D

 44 43  0     1  0  0  0  0  0999 V2000
   -4.3805   -0.3219   -4.4271 C   0  0  0  0  0  0  0  0  0  0  0  0
   -4.1166   -1.4440   -4.8323 O   0  0  0  0  0  0  0  0  0  0  0  0
   -5.7648    0.2571   -4.6582 C   0  0  0  0  0  0  0  0  0  0  0  0
   -5.6988    1.1216   -5.3233 H   0  0  0  0  0  0  0  0  0  0  0  0
   -6.4183   -0.4923   -5.1135 H   0  0  0  0  0  0  0  0  0  0  0  0
   -6.2009    0.5723   -3.7071 H   0  0  0  0  0  0  0  0  0  0  0  0
   -3.4404    0.4292   -3.7564 N   0  0  0  0  0  0  0  0  0  0  0  0
   -2.1721   -0.0994   -3.2360 C   0  0  2  0  0  0  0  0  0  0  0  0
   -1.9442    0.3474   -1.7750 C   0  0  0  0  0  0  0  0  0  0  0  0
   -2.7520    1.1054   -1.2511 O   0  0  0  0  0  0  0  0  0  0  0  0
   -1.0380    0.4025   -4.1353 C   0  0  0  0  0  0  0  0  0  0  0  0
   -3.7893    1.2575   -3.2746 H   0  0  0  0  0  0  0  0  0  0  0  0
   -2.1801   -1.1942   -3.2460 H   0  0  0  0  0  0  0  0  0  0  0  0
   -0.9835    1.4957   -4.1088 H   0  0  0  0  0  0  0  0  0  0  0  0
   -0.0740    0.0023   -3.8047 H   0  0  0  0  0  0  0  0  0  0  0  0
   -1.2048    0.0851   -5.1692 H   0  0  0  0  0  0  0  0  0  0  0  0
   -0.8783   -0.1778   -1.0685 N   0  0  0  0  0  0  0  0  0  0  0  0
   -0.1596    0.4573    0.0507 C   0  0  2  0  0  0  0  0  0  0  0  0
   -1.0195    1.1329    1.1529 C   0  0  0  0  0  0  0  0  0  0  0  0
   -1.3251    2.3221    1.1222 O   0  0  0  0  0  0  0  0  0  0  0  0
    0.8299    1.4470   -0.6018 C   0  0  0  0  0  0  0  0  0  0  0  0
    1.9422    0.7243   -1.3571 C   0  0  0  0  0  0  0  0  0  0  0  0
    2.2902   -0.4160   -0.9586 O   0  5  0  0  0  0  0  0  0  0  0  0
    2.3620    1.2657   -2.4062 O   0  0  0  0  0  0  0  0  0  0  0  0
   -0.2716   -0.7680   -1.6363 H   0  0  0  0  0  0  0  0  0  0  0  0
    0.4089   -0.3180    0.5731 H   0  0  0  0  0  0  0  0  0  0  0  0
    1.3006    2.0535    0.1761 H   0  0  0  0  0  0  0  0  0  0  0  0
    0.3001    2.1255   -1.2771 H   0  0  0  0  0  0  0  0  0  0  0  0
   -1.1622    0.4906    2.3717 N   0  0  0  0  0  0  0  0  0  0  0  0
   -1.8356    1.0595    3.5454 C   0  0  2  0  0  0  0  0  0  0  0  0
   -1.4212    0.3608    4.8565 C   0  0  0  0  0  0  0  0  0  0  0  0
   -0.9792   -0.7836    4.8486 O   0  0  0  0  0  0  0  0  0  0  0  0
   -3.3503    0.9443    3.3435 C   0  0  0  0  0  0  0  0  0  0  0  0
   -0.8037   -0.4593    2.4482 H   0  0  0  0  0  0  0  0  0  0  0  0
   -1.5640    2.1161    3.6386 H   0  0  0  0  0  0  0  0  0  0  0  0
   -3.6412   -0.1047    3.2303 H   0  0  0  0  0  0  0  0  0  0  0  0
   -3.8852    1.3659    4.1993 H   0  0  0  0  0  0  0  0  0  0  0  0
   -3.6561    1.4885    2.4441 H   0  0  0  0  0  0  0  0  0  0  0  0
   -1.5609    1.0223    6.0636 N   0  0  0  0  0  0  0  0  0  0  0  0
   -1.1458    0.4573    7.3402 C   0  0  0  0  0  0  0  0  0  0  0  0
   -1.8852    1.9842    6.0313 H   0  0  0  0  0  0  0  0  0  0  0  0
   -1.6594   -0.4920    7.5243 H   0  0  0  0  0  0  0  0  0  0  0  0
   -0.0651    0.2818    7.3472 H   0  0  0  0  0  0  0  0  0  0  0  0
   -1.3908    1.1455    8.1545 H   0  0  0  0  0  0  0  0  0  0  0  0
  1  2  2  0  0  0  0
  1  3  1  0  0  0  0
  1  7  1  0  0  0  0
  3  4  1  0  0  0  0
  3  5  1  0  0  0  0
  3  6  1  0  0  0  0
  7  8  1  0  0  0  0
  7 12  1  0  0  0  0
  8  9  1  0  0  0  0
  8 11  1  0  0  0  0
  8 13  1  0  0  0  0
  9 10  2  0  0  0  0
  9 17  1  0  0  0  0
 11 14  1  0  0  0  0
 11 15  1  0  0  0  0
 11 16  1  0  0  0  0
 17 18  1  0  0  0  0
 17 25  1  0  0  0  0
 18 19  1  0  0  0  0
 18 21  1  0  0  0  0
 18 26  1  0  0  0  0
 19 20  2  0  0  0  0
 19 29  1  0  0  0  0
 21 22  1  0  0  0  0
 21 27  1  0  0  0  0
 21 28  1  0  0  0  0
 22 23  1  0  0  0  0
 22 24  2  0  0  0  0
 29 30  1  0  0  0  0
 29 34  1  0  0  0  0
 30 31  1  0  0  0  0
 30 33  1  0  0  0  0
 30 35  1  0  0  0  0
 31 32  2  0  0  0  0
 31 39  1  0  0  0  0
 33 36  1  0  0  0  0
 33 37  1  0  0  0  0
 33 38  1  0  0  0  0
 39 40  1  0  0  0  0
 39 41  1  0  0  0  0
 40 42  1  0  0  0  0
 40 43  1  0  0  0  0
 40 44  1  0  0  0  0
M  CHG  1  23  -1
M  END
$$$$

  -OEChem-05262215553D

 44 43  0     1  0  0  0  0  0999 V2000
   -4.3355   -0.3693   -4.5142 C   0  0  0  0  0  0  0  0  0  0  0  0
   -4.0346   -1.4830   -4.9169 O   0  0  0  0  0  0  0  0  0  0  0  0
   -5.7249    0.1791   -4.7856 C   0  0  0  0  0  0  0  0  0  0  0  0
   -5.6619    1.0264   -5.4728 H   0  0  0  0  0  0  0  0  0  0  0  0
   -6.3560   -0.5936   -5.2333 H   0  0  0  0  0  0  0  0  0  0  0  0
   -6.1844    0.5108   -3.8511 H   0  0  0  0  0  0  0  0  0  0  0  0
   -3.4324    0.4003   -3.8142 N   0  0  0  0  0  0  0  0  0  0  0  0
   -2.1716   -0.1052   -3.2528 C   0  0  2  0  0  0  0  0  0  0  0  0
   -2.0068    0.3274   -1.7784 C   0  0  0  0  0  0  0  0  0  0  0  0
   -2.8604    1.0466   -1.2754 O   0  0  0  0  0  0  0  0  0  0  0  0
   -1.0180    0.4330   -4.1051 C   0  0  0  0  0  0  0  0  0  0  0  0
   -3.8161    1.2159   -3.3373 H   0  0  0  0  0  0  0  0  0  0  0  0
   -2.1538   -1.1996   -3.2761 H   0  0  0  0  0  0  0  0  0  0  0  0
   -0.9850    1.5265   -4.0610 H   0  0  0  0  0  0  0  0  0  0  0  0
   -0.0579    0.0459   -3.7482 H   0  0  0  0  0  0  0  0  0  0  0  0
   -1.1445    0.1288   -5.1486 H   0  0  0  0  0  0  0  0  0  0  0  0
   -0.9504   -0.1782   -1.0432 N   0  0  0  0  0  0  0  0  0  0  0  0
   -0.2640    0.4554    0.0989 C   0  0  2  0  0  0  0  0  0  0  0  0
   -1.1254    1.1207    1.2076 C   0  0  0  0  0  0  0  0  0  0  0  0
   -1.6184    2.2382    1.0877 O   0  0  0  0  0  0  0  0  0  0  0  0
    0.7225    1.4700   -0.5180 C   0  0  0  0  0  0  0  0  0  0  0  0
    1.8647    0.7816   -1.2600 C   0  0  0  0  0  0  0  0  0  0  0  0
    2.2257   -0.3579   -0.8712 O   0  5  0  0  0  0  0  0  0  0  0  0
    2.3047    1.3527   -2.2846 O   0  0  0  0  0  0  0  0  0  0  0  0
   -0.3210   -0.7551   -1.5993 H   0  0  0  0  0  0  0  0  0  0  0  0
    0.3056   -0.3230    0.6155 H   0  0  0  0  0  0  0  0  0  0  0  0
    1.1653    2.0722    0.2798 H   0  0  0  0  0  0  0  0  0  0  0  0
    0.1945    2.1498   -1.1935 H   0  0  0  0  0  0  0  0  0  0  0  0
   -1.0206    0.6436    2.5047 N   0  0  0  0  0  0  0  0  0  0  0  0
   -1.5754    1.3093    3.6907 C   0  0  2  0  0  0  0  0  0  0  0  0
   -0.8628    0.8863    4.9910 C   0  0  0  0  0  0  0  0  0  0  0  0
   -0.2734   -0.1868    5.0656 O   0  0  0  0  0  0  0  0  0  0  0  0
   -3.0710    0.9862    3.7810 C   0  0  0  0  0  0  0  0  0  0  0  0
   -0.4622   -0.1951    2.6542 H   0  0  0  0  0  0  0  0  0  0  0  0
   -1.4465    2.3918    3.5891 H   0  0  0  0  0  0  0  0  0  0  0  0
   -3.2239   -0.0937    3.8737 H   0  0  0  0  0  0  0  0  0  0  0  0
   -3.5178    1.4790    4.6494 H   0  0  0  0  0  0  0  0  0  0  0  0
   -3.5904    1.3350    2.8824 H   0  0  0  0  0  0  0  0  0  0  0  0
   -0.9000    1.7159    6.0976 N   0  0  0  0  0  0  0  0  0  0  0  0
   -0.2160    1.4159    7.3482 C   0  0  0  0  0  0  0  0  0  0  0  0
   -1.3497    2.6197    5.9854 H   0  0  0  0  0  0  0  0  0  0  0  0
   -0.5765    0.4703    7.7660 H   0  0  0  0  0  0  0  0  0  0  0  0
    0.8639    1.3409    7.1846 H   0  0  0  0  0  0  0  0  0  0  0  0
   -0.4021    2.2085    8.0790 H   0  0  0  0  0  0  0  0  0  0  0  0
  1  2  2  0  0  0  0
  1  3  1  0  0  0  0
  1  7  1  0  0  0  0
  3  4  1  0  0  0  0
  3  5  1  0  0  0  0
  3  6  1  0  0  0  0
  7  8  1  0  0  0  0
  7 12  1  0  0  0  0
  8  9  1  0  0  0  0
  8 11  1  0  0  0  0
  8 13  1  0  0  0  0
  9 10  2  0  0  0  0
  9 17  1  0  0  0  0
 11 14  1  0  0  0  0
 11 15  1  0  0  0  0
 11 16  1  0  0  0  0
 17 18  1  0  0  0  0
 17 25  1  0  0  0  0
 18 19  1  0  0  0  0
 18 21  1  0  0  0  0
 18 26  1  0  0  0  0
 19 20  2  0  0  0  0
 19 29  1  0  0  0  0
 21 22  1  0  0  0  0
 21 27  1  0  0  0  0
 21 28  1  0  0  0  0
 22 23  1  0  0  0  0
 22 24  2  0  0  0  0
 29 30  1  0  0  0  0
 29 34  1  0  0  0  0
 30 31  1  0  0  0  0
 30 33  1  0  0  0  0
 30 35  1  0  0  0  0
 31 32  2  0  0  0  0
 31 39  1  0  0  0  0
 33 36  1  0  0  0  0
 33 37  1  0  0  0  0
 33 38  1  0  0  0  0
 39 40  1  0  0  0  0
 39 41  1  0  0  0  0
 40 42  1  0  0  0  0
 40 43  1  0  0  0  0
 40 44  1  0  0  0  0
M  CHG  1  23  -1
M  END
$$$$

  -OEChem-05262215553D

 44 43  0     1  0  0  0  0  0999 V2000
   -4.2645   -0.4066   -4.6728 C   0  0  0  0  0  0  0  0  0  0  0  0
   -3.8835   -1.4827   -5.1090 O   0  0  0  0  0  0  0  0  0  0  0  0
   -5.6414    0.1134   -5.0422 C   0  0  0  0  0  0  0  0  0  0  0  0
   -5.5524    1.0883   -5.5273 H   0  0  0  0  0  0  0  0  0  0  0  0
   -6.1359   -0.5790   -5.7288 H   0  0  0  0  0  0  0  0  0  0  0  0
   -6.2528    0.2174   -4.1425 H   0  0  0  0  0  0  0  0  0  0  0  0
   -3.4656    0.3407   -3.8363 N   0  0  0  0  0  0  0  0  0  0  0  0
   -2.2266   -0.1447   -3.2151 C   0  0  2  0  0  0  0  0  0  0  0  0
   -2.1060    0.3445   -1.7540 C   0  0  0  0  0  0  0  0  0  0  0  0
   -2.9806    1.0726   -1.3052 O   0  0  0  0  0  0  0  0  0  0  0  0
   -1.0408    0.3499   -4.0508 C   0  0  0  0  0  0  0  0  0  0  0  0
   -3.9109    1.1240   -3.3580 H   0  0  0  0  0  0  0  0  0  0  0  0
   -2.2206   -1.2394   -3.1939 H   0  0  0  0  0  0  0  0  0  0  0  0
   -1.0013    1.4439   -4.0499 H   0  0  0  0  0  0  0  0  0  0  0  0
   -0.0962   -0.0286   -3.6467 H   0  0  0  0  0  0  0  0  0  0  0  0
   -1.1348    0.0037   -5.0846 H   0  0  0  0  0  0  0  0  0  0  0  0
   -1.0441   -0.1095   -0.9936 N   0  0  0  0  0  0  0  0  0  0  0  0
   -0.3956    0.5237    0.1709 C   0  0  2  0  0  0  0  0  0  0  0  0
   -1.2457    1.1498    1.3112 C   0  0  0  0  0  0  0  0  0  0  0  0
   -1.9863    2.1149    1.1647 O   0  0  0  0  0  0  0  0  0  0  0  0
    0.5568    1.5847   -0.4189 C   0  0  0  0  0  0  0  0  0  0  0  0
    1.7299    0.9518   -1.1622 C   0  0  0  0  0  0  0  0  0  0  0  0
    2.1288   -0.1803   -0.7892 O   0  5  0  0  0  0  0  0  0  0  0  0
    2.1647    1.5609   -2.1666 O   0  0  0  0  0  0  0  0  0  0  0  0
   -0.3933   -0.6800   -1.5310 H   0  0  0  0  0  0  0  0  0  0  0  0
    0.1932   -0.2538    0.6670 H   0  0  0  0  0  0  0  0  0  0  0  0
    0.9707    2.1905    0.3912 H   0  0  0  0  0  0  0  0  0  0  0  0
    0.0078    2.2543   -1.0879 H   0  0  0  0  0  0  0  0  0  0  0  0
   -0.8761    0.8687    2.6171 N   0  0  0  0  0  0  0  0  0  0  0  0
   -1.3365    1.6069    3.8002 C   0  0  2  0  0  0  0  0  0  0  0  0
   -0.3496    1.4835    4.9788 C   0  0  0  0  0  0  0  0  0  0  0  0
    0.4094    0.5238    5.0641 O   0  0  0  0  0  0  0  0  0  0  0  0
   -2.7151    1.0778    4.2090 C   0  0  0  0  0  0  0  0  0  0  0  0
   -0.1122    0.2078    2.7514 H   0  0  0  0  0  0  0  0  0  0  0  0
   -1.4174    2.6708    3.5536 H   0  0  0  0  0  0  0  0  0  0  0  0
   -2.6567    0.0147    4.4628 H   0  0  0  0  0  0  0  0  0  0  0  0
   -3.0934    1.6250    5.0774 H   0  0  0  0  0  0  0  0  0  0  0  0
   -3.4275    1.2011    3.3871 H   0  0  0  0  0  0  0  0  0  0  0  0
   -0.3226    2.4548    5.9634 N   0  0  0  0  0  0  0  0  0  0  0  0
    0.6114    2.4333    7.0812 C   0  0  0  0  0  0  0  0  0  0  0  0
   -0.9156    3.2686    5.8296 H   0  0  0  0  0  0  0  0  0  0  0  0
    0.4795    1.5207    7.6718 H   0  0  0  0  0  0  0  0  0  0  0  0
    1.6438    2.4728    6.7182 H   0  0  0  0  0  0  0  0  0  0  0  0
    0.4394    3.2948    7.7332 H   0  0  0  0  0  0  0  0  0  0  0  0
  1  2  2  0  0  0  0
  1  3  1  0  0  0  0
  1  7  1  0  0  0  0
  3  4  1  0  0  0  0
  3  5  1  0  0  0  0
  3  6  1  0  0  0  0
  7  8  1  0  0  0  0
  7 12  1  0  0  0  0
  8  9  1  0  0  0  0
  8 11  1  0  0  0  0
  8 13  1  0  0  0  0
  9 10  2  0  0  0  0
  9 17  1  0  0  0  0
 11 14  1  0  0  0  0
 11 15  1  0  0  0  0
 11 16  1  0  0  0  0
 17 18  1  0  0  0  0
 17 25  1  0  0  0  0
 18 19  1  0  0  0  0
 18 21  1  0  0  0  0
 18 26  1  0  0  0  0
 19 20  2  0  0  0  0
 19 29  1  0  0  0  0
 21 22  1  0  0  0  0
 21 27  1  0  0  0  0
 21 28  1  0  0  0  0
 22 23  1  0  0  0  0
 22 24  2  0  0  0  0
 29 30  1  0  0  0  0
 29 34  1  0  0  0  0
 30 31  1  0  0  0  0
 30 33  1  0  0  0  0
 30 35  1  0  0  0  0
 31 32  2  0  0  0  0
 31 39  1  0  0  0  0
 33 36  1  0  0  0  0
 33 37  1  0  0  0  0
 33 38  1  0  0  0  0
 39 40  1  0  0  0  0
 39 41  1  0  0  0  0
 40 42  1  0  0  0  0
 40 43  1  0  0  0  0
 40 44  1  0  0  0  0
M  CHG  1  23  -1
M  END
$$$$

  -OEChem-05262215553D

 44 43  0     1  0  0  0  0  0999 V2000
   -4.6167   -0.1655   -4.0192 C   0  0  0  0  0  0  0  0  0  0  0  0
   -4.6038   -1.3791   -4.1634 O   0  0  0  0  0  0  0  0  0  0  0  0
   -5.8977    0.6126   -4.2588 C   0  0  0  0  0  0  0  0  0  0  0  0
   -5.7320    1.3758   -5.0229 H   0  0  0  0  0  0  0  0  0  0  0  0
   -6.6912   -0.0593   -4.5969 H   0  0  0  0  0  0  0  0  0  0  0  0
   -6.2159    1.0980   -3.3328 H   0  0  0  0  0  0  0  0  0  0  0  0
   -3.4804    0.5099   -3.6336 N   0  0  0  0  0  0  0  0  0  0  0  0
   -2.2603   -0.1305   -3.1285 C   0  0  2  0  0  0  0  0  0  0  0  0
   -1.6546    0.6898   -1.9696 C   0  0  0  0  0  0  0  0  0  0  0  0
   -2.0077    1.8568   -1.8330 O   0  0  0  0  0  0  0  0  0  0  0  0
   -1.2616   -0.2485   -4.2830 C   0  0  0  0  0  0  0  0  0  0  0  0
   -3.5922    1.4902   -3.3727 H   0  0  0  0  0  0  0  0  0  0  0  0
   -2.4899   -1.1286   -2.7410 H   0  0  0  0  0  0  0  0  0  0  0  0
   -1.0024    0.7442   -4.6651 H   0  0  0  0  0  0  0  0  0  0  0  0
   -0.3433   -0.7409   -3.9482 H   0  0  0  0  0  0  0  0  0  0  0  0
   -1.6923   -0.8367   -5.0990 H   0  0  0  0  0  0  0  0  0  0  0  0
   -0.6503    0.1271   -1.2019 N   0  0  0  0  0  0  0  0  0  0  0  0
   -0.0111    0.6691    0.0099 C   0  0  2  0  0  0  0  0  0  0  0  0
   -0.8965    1.2840    1.1288 C   0  0  0  0  0  0  0  0  0  0  0  0
   -2.0910    1.5326    1.0105 O   0  0  0  0  0  0  0  0  0  0  0  0
    1.0823    1.6584   -0.4404 C   0  0  0  0  0  0  0  0  0  0  0  0
    2.2514    0.9476   -1.1203 C   0  0  0  0  0  0  0  0  0  0  0  0
    2.5082   -0.2359   -0.7779 O   0  5  0  0  0  0  0  0  0  0  0  0
    2.8890    1.5895   -1.9874 O   0  0  0  0  0  0  0  0  0  0  0  0
   -0.2543   -0.7386   -1.5569 H   0  0  0  0  0  0  0  0  0  0  0  0
    0.4690   -0.1789    0.5080 H   0  0  0  0  0  0  0  0  0  0  0  0
    1.4805    2.1854    0.4301 H   0  0  0  0  0  0  0  0  0  0  0  0
    0.6584    2.4048   -1.1186 H   0  0  0  0  0  0  0  0  0  0  0  0
   -0.4300    1.2039    2.4311 N   0  0  0  0  0  0  0  0  0  0  0  0
   -1.1746    1.6612    3.6122 C   0  0  2  0  0  0  0  0  0  0  0  0
   -0.2549    2.2772    4.6856 C   0  0  0  0  0  0  0  0  0  0  0  0
    0.8994    1.8875    4.8214 O   0  0  0  0  0  0  0  0  0  0  0  0
   -1.9417    0.4692    4.1910 C   0  0  0  0  0  0  0  0  0  0  0  0
    0.5615    0.9990    2.5526 H   0  0  0  0  0  0  0  0  0  0  0  0
   -1.8888    2.4368    3.3167 H   0  0  0  0  0  0  0  0  0  0  0  0
   -1.2472   -0.3206    4.4950 H   0  0  0  0  0  0  0  0  0  0  0  0
   -2.5261    0.7768    5.0632 H   0  0  0  0  0  0  0  0  0  0  0  0
   -2.6275    0.0614    3.4416 H   0  0  0  0  0  0  0  0  0  0  0  0
   -0.7393    3.2632    5.5267 N   0  0  0  0  0  0  0  0  0  0  0  0
    0.0762    3.9245    6.5363 C   0  0  0  0  0  0  0  0  0  0  0  0
   -1.6736    3.6147    5.3401 H   0  0  0  0  0  0  0  0  0  0  0  0
    0.4920    3.1902    7.2341 H   0  0  0  0  0  0  0  0  0  0  0  0
    0.9001    4.4706    6.0652 H   0  0  0  0  0  0  0  0  0  0  0  0
   -0.5310    4.6347    7.1053 H   0  0  0  0  0  0  0  0  0  0  0  0
  1  2  2  0  0  0  0
  1  3  1  0  0  0  0
  1  7  1  0  0  0  0
  3  4  1  0  0  0  0
  3  5  1  0  0  0  0
  3  6  1  0  0  0  0
  7  8  1  0  0  0  0
  7 12  1  0  0  0  0
  8  9  1  0  0  0  0
  8 11  1  0  0  0  0
  8 13  1  0  0  0  0
  9 10  2  0  0  0  0
  9 17  1  0  0  0  0
 11 14  1  0  0  0  0
 11 15  1  0  0  0  0
 11 16  1  0  0  0  0
 17 18  1  0  0  0  0
 17 25  1  0  0  0  0
 18 19  1  0  0  0  0
 18 21  1  0  0  0  0
 18 26  1  0  0  0  0
 19 20  2  0  0  0  0
 19 29  1  0  0  0  0
 21 22  1  0  0  0  0
 21 27  1  0  0  0  0
 21 28  1  0  0  0  0
 22 23  1  0  0  0  0
 22 24  2  0  0  0  0
 29 30  1  0  0  0  0
 29 34  1  0  0  0  0
 30 31  1  0  0  0  0
 30 33  1  0  0  0  0
 30 35  1  0  0  0  0
 31 32  2  0  0  0  0
 31 39  1  0  0  0  0
 33 36  1  0  0  0  0
 33 37  1  0  0  0  0
 33 38  1  0  0  0  0
 39 40  1  0  0  0  0
 39 41  1  0  0  0  0
 40 42  1  0  0  0  0
 40 43  1  0  0  0  0
 40 44  1  0  0  0  0
M  CHG  1  23  -1
M  END
$$$$

  -OEChem-05262215553D

 44 43  0     1  0  0  0  0  0999 V2000
   -4.6160   -0.1161   -4.0275 C   0  0  0  0  0  0  0  0  0  0  0  0
   -4.5984   -1.3215   -4.2285 O   0  0  0  0  0  0  0  0  0  0  0  0
   -5.8899    0.6722   -4.2716 C   0  0  0  0  0  0  0  0  0  0  0  0
   -5.7276    1.4057   -5.0653 H   0  0  0  0  0  0  0  0  0  0  0  0
   -6.6992    0.0002   -4.5702 H   0  0  0  0  0  0  0  0  0  0  0  0
   -6.1844    1.1947   -3.3581 H   0  0  0  0  0  0  0  0  0  0  0  0
   -3.4913    0.5381   -3.5765 N   0  0  0  0  0  0  0  0  0  0  0  0
   -2.2783   -0.1276   -3.0860 C   0  0  2  0  0  0  0  0  0  0  0  0
   -1.6554    0.6611   -1.9138 C   0  0  0  0  0  0  0  0  0  0  0  0
   -2.0089    1.8229   -1.7297 O   0  0  0  0  0  0  0  0  0  0  0  0
   -1.2845   -0.2462   -4.2457 C   0  0  0  0  0  0  0  0  0  0  0  0
   -3.6049    1.5078   -3.2798 H   0  0  0  0  0  0  0  0  0  0  0  0
   -2.5246   -1.1272   -2.7131 H   0  0  0  0  0  0  0  0  0  0  0  0
   -1.0045    0.7471   -4.6108 H   0  0  0  0  0  0  0  0  0  0  0  0
   -0.3763   -0.7647   -3.9234 H   0  0  0  0  0  0  0  0  0  0  0  0
   -1.7297   -0.8103   -5.0709 H   0  0  0  0  0  0  0  0  0  0  0  0
   -0.6419    0.0781   -1.1732 N   0  0  0  0  0  0  0  0  0  0  0  0
    0.0315    0.6263    0.0157 C   0  0  2  0  0  0  0  0  0  0  0  0
   -0.8488    1.2608    1.1260 C   0  0  0  0  0  0  0  0  0  0  0  0
   -2.0755    1.2114    1.1181 O   0  0  0  0  0  0  0  0  0  0  0  0
    1.1192    1.6025   -0.4794 C   0  0  0  0  0  0  0  0  0  0  0  0
    2.2622    0.8737   -1.1840 C   0  0  0  0  0  0  0  0  0  0  0  0
    2.5209   -0.3071   -0.8350 O   0  5  0  0  0  0  0  0  0  0  0  0
    2.8746    1.4990   -2.0808 O   0  0  0  0  0  0  0  0  0  0  0  0
   -0.2549   -0.7852   -1.5432 H   0  0  0  0  0  0  0  0  0  0  0  0
    0.5166   -0.2132    0.5238 H   0  0  0  0  0  0  0  0  0  0  0  0
    1.5487    2.1399    0.3689 H   0  0  0  0  0  0  0  0  0  0  0  0
    0.6817    2.3423   -1.1555 H   0  0  0  0  0  0  0  0  0  0  0  0
   -0.2681    1.4909    2.3625 N   0  0  0  0  0  0  0  0  0  0  0  0
   -0.9870    2.0120    3.5327 C   0  0  2  0  0  0  0  0  0  0  0  0
   -0.1379    3.0050    4.3516 C   0  0  0  0  0  0  0  0  0  0  0  0
    1.0861    2.9378    4.3479 O   0  0  0  0  0  0  0  0  0  0  0  0
   -1.4100    0.8271    4.4051 C   0  0  0  0  0  0  0  0  0  0  0  0
    0.7508    1.5267    2.3872 H   0  0  0  0  0  0  0  0  0  0  0  0
   -1.8810    2.5515    3.2031 H   0  0  0  0  0  0  0  0  0  0  0  0
   -0.5306    0.2770    4.7545 H   0  0  0  0  0  0  0  0  0  0  0  0
   -1.9749    1.1735    5.2755 H   0  0  0  0  0  0  0  0  0  0  0  0
   -2.0436    0.1438    3.8310 H   0  0  0  0  0  0  0  0  0  0  0  0
   -0.7594    3.9756    5.1169 N   0  0  0  0  0  0  0  0  0  0  0  0
   -0.0303    4.9916    5.8637 C   0  0  0  0  0  0  0  0  0  0  0  0
   -1.7691    4.0510    5.0393 H   0  0  0  0  0  0  0  0  0  0  0  0
    0.6680    4.5236    6.5655 H   0  0  0  0  0  0  0  0  0  0  0  0
    0.5330    5.6368    5.1816 H   0  0  0  0  0  0  0  0  0  0  0  0
   -0.7273    5.6129    6.4338 H   0  0  0  0  0  0  0  0  0  0  0  0
  1  2  2  0  0  0  0
  1  3  1  0  0  0  0
  1  7  1  0  0  0  0
  3  4  1  0  0  0  0
  3  5  1  0  0  0  0
  3  6  1  0  0  0  0
  7  8  1  0  0  0  0
  7 12  1  0  0  0  0
  8  9  1  0  0  0  0
  8 11  1  0  0  0  0
  8 13  1  0  0  0  0
  9 10  2  0  0  0  0
  9 17  1  0  0  0  0
 11 14  1  0  0  0  0
 11 15  1  0  0  0  0
 11 16  1  0  0  0  0
 17 18  1  0  0  0  0
 17 25  1  0  0  0  0
 18 19  1  0  0  0  0
 18 21  1  0  0  0  0
 18 26  1  0  0  0  0
 19 20  2  0  0  0  0
 19 29  1  0  0  0  0
 21 22  1  0  0  0  0
 21 27  1  0  0  0  0
 21 28  1  0  0  0  0
 22 23  1  0  0  0  0
 22 24  2  0  0  0  0
 29 30  1  0  0  0  0
 29 34  1  0  0  0  0
 30 31  1  0  0  0  0
 30 33  1  0  0  0  0
 30 35  1  0  0  0  0
 31 32  2  0  0  0  0
 31 39  1  0  0  0  0
 33 36  1  0  0  0  0
 33 37  1  0  0  0  0
 33 38  1  0  0  0  0
 39 40  1  0  0  0  0
 39 41  1  0  0  0  0
 40 42  1  0  0  0  0
 40 43  1  0  0  0  0
 40 44  1  0  0  0  0
M  CHG  1  23  -1
M  END
$$$$

  -OEChem-05262215553D

 44 43  0     1  0  0  0  0  0999 V2000
   -4.5823   -0.1145   -4.0581 C   0  0  0  0  0  0  0  0  0  0  0  0
   -4.4818   -1.2798   -4.4126 O   0  0  0  0  0  0  0  0  0  0  0  0
   -5.9022    0.6163   -4.2266 C   0  0  0  0  0  0  0  0  0  0  0  0
   -5.7644    1.4897   -4.8686 H   0  0  0  0  0  0  0  0  0  0  0  0
   -6.6457   -0.0437   -4.6821 H   0  0  0  0  0  0  0  0  0  0  0  0
   -6.2719    0.9452   -3.2522 H   0  0  0  0  0  0  0  0  0  0  0  0
   -3.5111    0.5480   -3.5008 N   0  0  0  0  0  0  0  0  0  0  0  0
   -2.2673   -0.0961   -3.0602 C   0  0  2  0  0  0  0  0  0  0  0  0
   -1.7547    0.5361   -1.7480 C   0  0  0  0  0  0  0  0  0  0  0  0
   -2.2652    1.5814   -1.3505 O   0  0  0  0  0  0  0  0  0  0  0  0
   -1.2231    0.0531   -4.1715 C   0  0  0  0  0  0  0  0  0  0  0  0
   -3.7007    1.4565   -3.0774 H   0  0  0  0  0  0  0  0  0  0  0  0
   -2.4420   -1.1595   -2.8656 H   0  0  0  0  0  0  0  0  0  0  0  0
   -1.0141    1.1113   -4.3605 H   0  0  0  0  0  0  0  0  0  0  0  0
   -0.2861   -0.4382   -3.8907 H   0  0  0  0  0  0  0  0  0  0  0  0
   -1.5872   -0.4025   -5.0974 H   0  0  0  0  0  0  0  0  0  0  0  0
   -0.7026   -0.0625   -1.0770 N   0  0  0  0  0  0  0  0  0  0  0  0
    0.0460    0.5286    0.0432 C   0  0  2  0  0  0  0  0  0  0  0  0
   -0.7967    0.8729    1.2991 C   0  0  0  0  0  0  0  0  0  0  0  0
   -1.9167    0.4017    1.4822 O   0  0  0  0  0  0  0  0  0  0  0  0
    0.8646    1.7261   -0.4939 C   0  0  0  0  0  0  0  0  0  0  0  0
    1.9954    1.2703   -1.4142 C   0  0  0  0  0  0  0  0  0  0  0  0
    2.5011    0.1347   -1.2232 O   0  5  0  0  0  0  0  0  0  0  0  0
    2.3347    2.0526   -2.3322 O   0  0  0  0  0  0  0  0  0  0  0  0
   -0.2158   -0.7922   -1.5899 H   0  0  0  0  0  0  0  0  0  0  0  0
    0.7446   -0.2305    0.4086 H   0  0  0  0  0  0  0  0  0  0  0  0
    1.3236    2.2654    0.3373 H   0  0  0  0  0  0  0  0  0  0  0  0
    0.2179    2.4290   -1.0254 H   0  0  0  0  0  0  0  0  0  0  0  0
   -0.1739    1.4360    2.4004 N   0  0  0  0  0  0  0  0  0  0  0  0
   -0.8453    1.7421    3.6699 C   0  0  2  0  0  0  0  0  0  0  0  0
   -0.2849    3.0127    4.3409 C   0  0  0  0  0  0  0  0  0  0  0  0
    0.8831    3.3460    4.1749 O   0  0  0  0  0  0  0  0  0  0  0  0
   -0.6882    0.5380    4.6026 C   0  0  0  0  0  0  0  0  0  0  0  0
    0.7555    1.8278    2.2526 H   0  0  0  0  0  0  0  0  0  0  0  0
   -1.9103    1.9161    3.4849 H   0  0  0  0  0  0  0  0  0  0  0  0
    0.3706    0.3434    4.8009 H   0  0  0  0  0  0  0  0  0  0  0  0
   -1.1938    0.7229    5.5549 H   0  0  0  0  0  0  0  0  0  0  0  0
   -1.1270   -0.3545    4.1452 H   0  0  0  0  0  0  0  0  0  0  0  0
   -1.0941    3.7770    5.1630 N   0  0  0  0  0  0  0  0  0  0  0  0
   -0.6531    5.0177    5.7869 C   0  0  0  0  0  0  0  0  0  0  0  0
   -2.0733    3.5147    5.2240 H   0  0  0  0  0  0  0  0  0  0  0  0
    0.2083    4.8339    6.4376 H   0  0  0  0  0  0  0  0  0  0  0  0
   -0.3699    5.7502    5.0236 H   0  0  0  0  0  0  0  0  0  0  0  0
   -1.4586    5.4426    6.3933 H   0  0  0  0  0  0  0  0  0  0  0  0
  1  2  2  0  0  0  0
  1  3  1  0  0  0  0
  1  7  1  0  0  0  0
  3  4  1  0  0  0  0
  3  5  1  0  0  0  0
  3  6  1  0  0  0  0
  7  8  1  0  0  0  0
  7 12  1  0  0  0  0
  8  9  1  0  0  0  0
  8 11  1  0  0  0  0
  8 13  1  0  0  0  0
  9 10  2  0  0  0  0
  9 17  1  0  0  0  0
 11 14  1  0  0  0  0
 11 15  1  0  0  0  0
 11 16  1  0  0  0  0
 17 18  1  0  0  0  0
 17 25  1  0  0  0  0
 18 19  1  0  0  0  0
 18 21  1  0  0  0  0
 18 26  1  0  0  0  0
 19 20  2  0  0  0  0
 19 29  1  0  0  0  0
 21 22  1  0  0  0  0
 21 27  1  0  0  0  0
 21 28  1  0  0  0  0
 22 23  1  0  0  0  0
 22 24  2  0  0  0  0
 29 30  1  0  0  0  0
 29 34  1  0  0  0  0
 30 31  1  0  0  0  0
 30 33  1  0  0  0  0
 30 35  1  0  0  0  0
 31 32  2  0  0  0  0
 31 39  1  0  0  0  0
 33 36  1  0  0  0  0
 33 37  1  0  0  0  0
 33 38  1  0  0  0  0
 39 40  1  0  0  0  0
 39 41  1  0  0  0  0
 40 42  1  0  0  0  0
 40 43  1  0  0  0  0
 40 44  1  0  0  0  0
M  CHG  1  23  -1
M  END
$$$$

  -OEChem-05262215553D

 44 43  0     1  0  0  0  0  0999 V2000
   -4.5688   -0.0981   -4.0269 C   0  0  0  0  0  0  0  0  0  0  0  0
   -4.4665   -1.2594   -4.3932 O   0  0  0  0  0  0  0  0  0  0  0  0
   -5.8890    0.6320   -4.1935 C   0  0  0  0  0  0  0  0  0  0  0  0
   -5.7494    1.5169   -4.8193 H   0  0  0  0  0  0  0  0  0  0  0  0
   -6.6261   -0.0225   -4.6667 H   0  0  0  0  0  0  0  0  0  0  0  0
   -6.2684    0.9424   -3.2168 H   0  0  0  0  0  0  0  0  0  0  0  0
   -3.5001    0.5586   -3.4578 N   0  0  0  0  0  0  0  0  0  0  0  0
   -2.2570   -0.0922   -3.0247 C   0  0  2  0  0  0  0  0  0  0  0  0
   -1.7472    0.5153   -1.7004 C   0  0  0  0  0  0  0  0  0  0  0  0
   -2.2683    1.5428   -1.2711 O   0  0  0  0  0  0  0  0  0  0  0  0
   -1.2087    0.0759   -4.1294 C   0  0  0  0  0  0  0  0  0  0  0  0
   -3.6921    1.4609   -3.0225 H   0  0  0  0  0  0  0  0  0  0  0  0
   -2.4316   -1.1590   -2.8501 H   0  0  0  0  0  0  0  0  0  0  0  0
   -0.9982    1.1369   -4.2991 H   0  0  0  0  0  0  0  0  0  0  0  0
   -0.2730   -0.4204   -3.8532 H   0  0  0  0  0  0  0  0  0  0  0  0
   -1.5691   -0.3640   -5.0642 H   0  0  0  0  0  0  0  0  0  0  0  0
   -0.6863   -0.0856   -1.0471 N   0  0  0  0  0  0  0  0  0  0  0  0
    0.0922    0.5199    0.0437 C   0  0  2  0  0  0  0  0  0  0  0  0
   -0.7458    0.8847    1.2967 C   0  0  0  0  0  0  0  0  0  0  0  0
   -1.7547    0.2485    1.5940 O   0  0  0  0  0  0  0  0  0  0  0  0
    0.9005    1.7028   -0.5431 C   0  0  0  0  0  0  0  0  0  0  0  0
    2.0016    1.2194   -1.4853 C   0  0  0  0  0  0  0  0  0  0  0  0
    2.5074    0.0858   -1.2848 O   0  5  0  0  0  0  0  0  0  0  0  0
    2.3094    1.9752   -2.4359 O   0  0  0  0  0  0  0  0  0  0  0  0
   -0.2050   -0.8102   -1.5725 H   0  0  0  0  0  0  0  0  0  0  0  0
    0.7972   -0.2314    0.4137 H   0  0  0  0  0  0  0  0  0  0  0  0
    1.3930    2.2545    0.2599 H   0  0  0  0  0  0  0  0  0  0  0  0
    0.2421    2.3999   -1.0684 H   0  0  0  0  0  0  0  0  0  0  0  0
   -0.2289    1.7307    2.2629 N   0  0  0  0  0  0  0  0  0  0  0  0
   -0.9327    2.1122    3.4926 C   0  0  2  0  0  0  0  0  0  0  0  0
   -0.6212    3.5605    3.9212 C   0  0  0  0  0  0  0  0  0  0  0  0
    0.4577    4.0765    3.6516 O   0  0  0  0  0  0  0  0  0  0  0  0
   -0.5350    1.1313    4.5987 C   0  0  0  0  0  0  0  0  0  0  0  0
    0.5882    2.2800    2.0002 H   0  0  0  0  0  0  0  0  0  0  0  0
   -2.0135    2.0487    3.3284 H   0  0  0  0  0  0  0  0  0  0  0  0
    0.5437    1.1762    4.7796 H   0  0  0  0  0  0  0  0  0  0  0  0
   -1.0572    1.3714    5.5293 H   0  0  0  0  0  0  0  0  0  0  0  0
   -0.7975    0.1090    4.3086 H   0  0  0  0  0  0  0  0  0  0  0  0
   -1.5558    4.2856    4.6390 N   0  0  0  0  0  0  0  0  0  0  0  0
   -1.3618    5.6778    5.0218 C   0  0  0  0  0  0  0  0  0  0  0  0
   -2.4685    3.8605    4.7721 H   0  0  0  0  0  0  0  0  0  0  0  0
   -0.4577    5.7854    5.6300 H   0  0  0  0  0  0  0  0  0  0  0  0
   -1.2663    6.3091    4.1323 H   0  0  0  0  0  0  0  0  0  0  0  0
   -2.2155    6.0305    5.6080 H   0  0  0  0  0  0  0  0  0  0  0  0
  1  2  2  0  0  0  0
  1  3  1  0  0  0  0
  1  7  1  0  0  0  0
  3  4  1  0  0  0  0
  3  5  1  0  0  0  0
  3  6  1  0  0  0  0
  7  8  1  0  0  0  0
  7 12  1  0  0  0  0
  8  9  1  0  0  0  0
  8 11  1  0  0  0  0
  8 13  1  0  0  0  0
  9 10  2  0  0  0  0
  9 17  1  0  0  0  0
 11 14  1  0  0  0  0
 11 15  1  0  0  0  0
 11 16  1  0  0  0  0
 17 18  1  0  0  0  0
 17 25  1  0  0  0  0
 18 19  1  0  0  0  0
 18 21  1  0  0  0  0
 18 26  1  0  0  0  0
 19 20  2  0  0  0  0
 19 29  1  0  0  0  0
 21 22  1  0  0  0  0
 21 27  1  0  0  0  0
 21 28  1  0  0  0  0
 22 23  1  0  0  0  0
 22 24  2  0  0  0  0
 29 30  1  0  0  0  0
 29 34  1  0  0  0  0
 30 31  1  0  0  0  0
 30 33  1  0  0  0  0
 30 35  1  0  0  0  0
 31 32  2  0  0  0  0
 31 39  1  0  0  0  0
 33 36  1  0  0  0  0
 33 37  1  0  0  0  0
 33 38  1  0  0  0  0
 39 40  1  0  0  0  0
 39 41  1  0  0  0  0
 40 42  1  0  0  0  0
 40 43  1  0  0  0  0
 40 44  1  0  0  0  0
M  CHG  1  23  -1
M  END
$$$$

  -OEChem-05262215553D

 44 43  0     1  0  0  0  0  0999 V2000
   -4.5598   -0.0831   -4.0031 C   0  0  0  0  0  0  0  0  0  0  0  0
   -4.4531   -1.2359   -4.3941 O   0  0  0  0  0  0  0  0  0  0  0  0
   -5.8751    0.6544   -4.1764 C   0  0  0  0  0  0  0  0  0  0  0  0
   -5.7265    1.5347   -4.8064 H   0  0  0  0  0  0  0  0  0  0  0  0
   -6.6150    0.0023   -4.6488 H   0  0  0  0  0  0  0  0  0  0  0  0
   -6.2552    0.9720   -3.2022 H   0  0  0  0  0  0  0  0  0  0  0  0
   -3.5001    0.5585   -3.4009 N   0  0  0  0  0  0  0  0  0  0  0  0
   -2.2540   -0.0963   -2.9838 C   0  0  2  0  0  0  0  0  0  0  0  0
   -1.7306    0.4984   -1.6580 C   0  0  0  0  0  0  0  0  0  0  0  0
   -2.2625    1.5071   -1.1980 O   0  0  0  0  0  0  0  0  0  0  0  0
   -1.2188    0.0814   -4.0994 C   0  0  0  0  0  0  0  0  0  0  0  0
   -3.6930    1.4558   -2.9562 H   0  0  0  0  0  0  0  0  0  0  0  0
   -2.4282   -1.1643   -2.8167 H   0  0  0  0  0  0  0  0  0  0  0  0
   -1.0106    1.1441   -4.2624 H   0  0  0  0  0  0  0  0  0  0  0  0
   -0.2796   -0.4169   -3.8393 H   0  0  0  0  0  0  0  0  0  0  0  0
   -1.5903   -0.3500   -5.0342 H   0  0  0  0  0  0  0  0  0  0  0  0
   -0.6565   -0.0983   -1.0232 N   0  0  0  0  0  0  0  0  0  0  0  0
    0.1455    0.5220    0.0422 C   0  0  2  0  0  0  0  0  0  0  0  0
   -0.6821    0.8974    1.2990 C   0  0  0  0  0  0  0  0  0  0  0  0
   -1.5538    0.1406    1.7216 O   0  0  0  0  0  0  0  0  0  0  0  0
    0.9401    1.6968   -0.5793 C   0  0  0  0  0  0  0  0  0  0  0  0
    2.0197    1.2010   -1.5393 C   0  0  0  0  0  0  0  0  0  0  0  0
    2.5315    0.0708   -1.3358 O   0  5  0  0  0  0  0  0  0  0  0  0
    2.2970    1.9406   -2.5118 O   0  0  0  0  0  0  0  0  0  0  0  0
   -0.1745   -0.8112   -1.5641 H   0  0  0  0  0  0  0  0  0  0  0  0
    0.8591   -0.2209    0.4120 H   0  0  0  0  0  0  0  0  0  0  0  0
    1.4547    2.2544    0.2056 H   0  0  0  0  0  0  0  0  0  0  0  0
    0.2707    2.3893   -1.0963 H   0  0  0  0  0  0  0  0  0  0  0  0
   -0.3263    1.9705    2.0980 N   0  0  0  0  0  0  0  0  0  0  0  0
   -1.0991    2.4221    3.2610 C   0  0  2  0  0  0  0  0  0  0  0  0
   -1.0663    3.9550    3.4265 C   0  0  0  0  0  0  0  0  0  0  0  0
   -0.1117    4.6110    3.0244 O   0  0  0  0  0  0  0  0  0  0  0  0
   -0.5360    1.7420    4.5120 C   0  0  0  0  0  0  0  0  0  0  0  0
    0.3382    2.6304    1.6955 H   0  0  0  0  0  0  0  0  0  0  0  0
   -2.1478    2.1330    3.1353 H   0  0  0  0  0  0  0  0  0  0  0  0
    0.5131    2.0189    4.6572 H   0  0  0  0  0  0  0  0  0  0  0  0
   -1.1030    2.0411    5.3984 H   0  0  0  0  0  0  0  0  0  0  0  0
   -0.5986    0.6539    4.4116 H   0  0  0  0  0  0  0  0  0  0  0  0
   -2.1116    4.6033    4.0602 N   0  0  0  0  0  0  0  0  0  0  0  0
   -2.1864    6.0516    4.1958 C   0  0  0  0  0  0  0  0  0  0  0  0
   -2.9164    4.0411    4.3199 H   0  0  0  0  0  0  0  0  0  0  0  0
   -1.3339    6.4265    4.7716 H   0  0  0  0  0  0  0  0  0  0  0  0
   -2.1843    6.5287    3.2101 H   0  0  0  0  0  0  0  0  0  0  0  0
   -3.1063    6.3349    4.7158 H   0  0  0  0  0  0  0  0  0  0  0  0
  1  2  2  0  0  0  0
  1  3  1  0  0  0  0
  1  7  1  0  0  0  0
  3  4  1  0  0  0  0
  3  5  1  0  0  0  0
  3  6  1  0  0  0  0
  7  8  1  0  0  0  0
  7 12  1  0  0  0  0
  8  9  1  0  0  0  0
  8 11  1  0  0  0  0
  8 13  1  0  0  0  0
  9 10  2  0  0  0  0
  9 17  1  0  0  0  0
 11 14  1  0  0  0  0
 11 15  1  0  0  0  0
 11 16  1  0  0  0  0
 17 18  1  0  0  0  0
 17 25  1  0  0  0  0
 18 19  1  0  0  0  0
 18 21  1  0  0  0  0
 18 26  1  0  0  0  0
 19 20  2  0  0  0  0
 19 29  1  0  0  0  0
 21 22  1  0  0  0  0
 21 27  1  0  0  0  0
 21 28  1  0  0  0  0
 22 23  1  0  0  0  0
 22 24  2  0  0  0  0
 29 30  1  0  0  0  0
 29 34  1  0  0  0  0
 30 31  1  0  0  0  0
 30 33  1  0  0  0  0
 30 35  1  0  0  0  0
 31 32  2  0  0  0  0
 31 39  1  0  0  0  0
 33 36  1  0  0  0  0
 33 37  1  0  0  0  0
 33 38  1  0  0  0  0
 39 40  1  0  0  0  0
 39 41  1  0  0  0  0
 40 42  1  0  0  0  0
 40 43  1  0  0  0  0
 40 44  1  0  0  0  0
M  CHG  1  23  -1
M  END
$$$$

  -OEChem-05262215553D

 44 43  0     1  0  0  0  0  0999 V2000
   -4.5464   -0.0794   -3.9832 C   0  0  0  0  0  0  0  0  0  0  0  0
   -4.4502   -1.2392   -4.3558 O   0  0  0  0  0  0  0  0  0  0  0  0
   -5.8576    0.6643   -4.1598 C   0  0  0  0  0  0  0  0  0  0  0  0
   -5.7050    1.5420   -4.7925 H   0  0  0  0  0  0  0  0  0  0  0  0
   -6.6006    0.0145   -4.6304 H   0  0  0  0  0  0  0  0  0  0  0  0
   -6.2359    0.9873   -3.1867 H   0  0  0  0  0  0  0  0  0  0  0  0
   -3.4810    0.5628   -3.3922 N   0  0  0  0  0  0  0  0  0  0  0  0
   -2.2424   -0.0981   -2.9627 C   0  0  2  0  0  0  0  0  0  0  0  0
   -1.7391    0.4803   -1.6226 C   0  0  0  0  0  0  0  0  0  0  0  0
   -2.2882    1.4725   -1.1471 O   0  0  0  0  0  0  0  0  0  0  0  0
   -1.1879    0.0924   -4.0583 C   0  0  0  0  0  0  0  0  0  0  0  0
   -3.6702    1.4644   -2.9551 H   0  0  0  0  0  0  0  0  0  0  0  0
   -2.4193   -1.1681   -2.8122 H   0  0  0  0  0  0  0  0  0  0  0  0
   -0.9686    1.1561   -4.1982 H   0  0  0  0  0  0  0  0  0  0  0  0
   -0.2565   -0.4180   -3.7930 H   0  0  0  0  0  0  0  0  0  0  0  0
   -1.5475   -0.3187   -5.0065 H   0  0  0  0  0  0  0  0  0  0  0  0
   -0.6580   -0.1081   -0.9927 N   0  0  0  0  0  0  0  0  0  0  0  0
    0.1603    0.5350    0.0457 C   0  0  2  0  0  0  0  0  0  0  0  0
   -0.6572    0.9374    1.2992 C   0  0  0  0  0  0  0  0  0  0  0  0
   -1.3721    0.1112    1.8621 O   0  0  0  0  0  0  0  0  0  0  0  0
    0.9382    1.7001   -0.6130 C   0  0  0  0  0  0  0  0  0  0  0  0
    2.0013    1.1898   -1.5834 C   0  0  0  0  0  0  0  0  0  0  0  0
    2.5217    0.0659   -1.3689 O   0  5  0  0  0  0  0  0  0  0  0  0
    2.2499    1.9084   -2.5791 O   0  0  0  0  0  0  0  0  0  0  0  0
   -0.1715   -0.8128   -1.5410 H   0  0  0  0  0  0  0  0  0  0  0  0
    0.8826   -0.1964    0.4222 H   0  0  0  0  0  0  0  0  0  0  0  0
    1.4655    2.2703    0.1550 H   0  0  0  0  0  0  0  0  0  0  0  0
    0.2569    2.3821   -1.1292 H   0  0  0  0  0  0  0  0  0  0  0  0
   -0.5027    2.1760    1.8968 N   0  0  0  0  0  0  0  0  0  0  0  0
   -1.3279    2.6590    3.0094 C   0  0  2  0  0  0  0  0  0  0  0  0
   -1.5751    4.1794    2.9357 C   0  0  0  0  0  0  0  0  0  0  0  0
   -0.7418    4.9289    2.4383 O   0  0  0  0  0  0  0  0  0  0  0  0
   -0.6308    2.2974    4.3238 C   0  0  0  0  0  0  0  0  0  0  0  0
    0.0010    2.8753    1.3519 H   0  0  0  0  0  0  0  0  0  0  0  0
   -2.3068    2.1701    2.9748 H   0  0  0  0  0  0  0  0  0  0  0  0
    0.3531    2.7744    4.3776 H   0  0  0  0  0  0  0  0  0  0  0  0
   -1.2283    2.6296    5.1779 H   0  0  0  0  0  0  0  0  0  0  0  0
   -0.4970    1.2134    4.3953 H   0  0  0  0  0  0  0  0  0  0  0  0
   -2.7351    4.7180    3.4639 N   0  0  0  0  0  0  0  0  0  0  0  0
   -3.0726    6.1317    3.3641 C   0  0  0  0  0  0  0  0  0  0  0  0
   -3.4394    4.0653    3.7942 H   0  0  0  0  0  0  0  0  0  0  0  0
   -2.2966    6.7451    3.8338 H   0  0  0  0  0  0  0  0  0  0  0  0
   -3.1696    6.4281    2.3144 H   0  0  0  0  0  0  0  0  0  0  0  0
   -4.0220    6.3298    3.8703 H   0  0  0  0  0  0  0  0  0  0  0  0
  1  2  2  0  0  0  0
  1  3  1  0  0  0  0
  1  7  1  0  0  0  0
  3  4  1  0  0  0  0
  3  5  1  0  0  0  0
  3  6  1  0  0  0  0
  7  8  1  0  0  0  0
  7 12  1  0  0  0  0
  8  9  1  0  0  0  0
  8 11  1  0  0  0  0
  8 13  1  0  0  0  0
  9 10  2  0  0  0  0
  9 17  1  0  0  0  0
 11 14  1  0  0  0  0
 11 15  1  0  0  0  0
 11 16  1  0  0  0  0
 17 18  1  0  0  0  0
 17 25  1  0  0  0  0
 18 19  1  0  0  0  0
 18 21  1  0  0  0  0
 18 26  1  0  0  0  0
 19 20  2  0  0  0  0
 19 29  1  0  0  0  0
 21 22  1  0  0  0  0
 21 27  1  0  0  0  0
 21 28  1  0  0  0  0
 22 23  1  0  0  0  0
 22 24  2  0  0  0  0
 29 30  1  0  0  0  0
 29 34  1  0  0  0  0
 30 31  1  0  0  0  0
 30 33  1  0  0  0  0
 30 35  1  0  0  0  0
 31 32  2  0  0  0  0
 31 39  1  0  0  0  0
 33 36  1  0  0  0  0
 33 37  1  0  0  0  0
 33 38  1  0  0  0  0
 39 40  1  0  0  0  0
 39 41  1  0  0  0  0
 40 42  1  0  0  0  0
 40 43  1  0  0  0  0
 40 44  1  0  0  0  0
M  CHG  1  23  -1
M  END
$$$$

  -OEChem-05262215553D

 44 43  0     1  0  0  0  0  0999 V2000
   -4.5438   -0.0817   -3.9701 C   0  0  0  0  0  0  0  0  0  0  0  0
   -4.4492   -1.2439   -4.3347 O   0  0  0  0  0  0  0  0  0  0  0  0
   -5.8451    0.6715   -4.1772 C   0  0  0  0  0  0  0  0  0  0  0  0
   -5.6758    1.5332   -4.8274 H   0  0  0  0  0  0  0  0  0  0  0  0
   -6.5902    0.0196   -4.6416 H   0  0  0  0  0  0  0  0  0  0  0  0
   -6.2307    1.0200   -3.2159 H   0  0  0  0  0  0  0  0  0  0  0  0
   -3.4832    0.5569   -3.3662 N   0  0  0  0  0  0  0  0  0  0  0  0
   -2.2440   -0.1026   -2.9346 C   0  0  2  0  0  0  0  0  0  0  0  0
   -1.7457    0.4710   -1.5905 C   0  0  0  0  0  0  0  0  0  0  0  0
   -2.3051    1.4529   -1.1059 O   0  0  0  0  0  0  0  0  0  0  0  0
   -1.1874    0.0967   -4.0266 C   0  0  0  0  0  0  0  0  0  0  0  0
   -3.6704    1.4640   -2.9399 H   0  0  0  0  0  0  0  0  0  0  0  0
   -2.4179   -1.1737   -2.7895 H   0  0  0  0  0  0  0  0  0  0  0  0
   -0.9719    1.1620   -4.1609 H   0  0  0  0  0  0  0  0  0  0  0  0
   -0.2546   -0.4115   -3.7622 H   0  0  0  0  0  0  0  0  0  0  0  0
   -1.5431   -0.3111   -4.9776 H   0  0  0  0  0  0  0  0  0  0  0  0
   -0.6598   -0.1101   -0.9619 N   0  0  0  0  0  0  0  0  0  0  0  0
    0.1720    0.5545    0.0521 C   0  0  2  0  0  0  0  0  0  0  0  0
   -0.6293    0.9886    1.3039 C   0  0  0  0  0  0  0  0  0  0  0  0
   -1.1710    0.1425    2.0114 O   0  0  0  0  0  0  0  0  0  0  0  0
    0.9377    1.7079   -0.6388 C   0  0  0  0  0  0  0  0  0  0  0  0
    1.9892    1.1835   -1.6142 C   0  0  0  0  0  0  0  0  0  0  0  0
    2.5163    0.0655   -1.3870 O   0  5  0  0  0  0  0  0  0  0  0  0
    2.2132    1.8796   -2.6315 O   0  0  0  0  0  0  0  0  0  0  0  0
   -0.1707   -0.8104   -1.5143 H   0  0  0  0  0  0  0  0  0  0  0  0
    0.9003   -0.1687    0.4339 H   0  0  0  0  0  0  0  0  0  0  0  0
    1.4681    2.2946    0.1153 H   0  0  0  0  0  0  0  0  0  0  0  0
    0.2485    2.3770   -1.1612 H   0  0  0  0  0  0  0  0  0  0  0  0
   -0.7019    2.3153    1.6901 N   0  0  0  0  0  0  0  0  0  0  0  0
   -1.5930    2.8103    2.7442 C   0  0  2  0  0  0  0  0  0  0  0  0
   -2.1242    4.2267    2.4452 C   0  0  0  0  0  0  0  0  0  0  0  0
   -1.4255    5.0535    1.8696 O   0  0  0  0  0  0  0  0  0  0  0  0
   -0.8290    2.8002    4.0708 C   0  0  0  0  0  0  0  0  0  0  0  0
   -0.3698    2.9928    1.0041 H   0  0  0  0  0  0  0  0  0  0  0  0
   -2.4617    2.1486    2.8246 H   0  0  0  0  0  0  0  0  0  0  0  0
    0.0436    3.4585    4.0136 H   0  0  0  0  0  0  0  0  0  0  0  0
   -1.4734    3.1436    4.8854 H   0  0  0  0  0  0  0  0  0  0  0  0
   -0.4867    1.7868    4.3028 H   0  0  0  0  0  0  0  0  0  0  0  0
   -3.3867    4.5948    2.8759 N   0  0  0  0  0  0  0  0  0  0  0  0
   -3.9773    5.8955    2.5915 C   0  0  0  0  0  0  0  0  0  0  0  0
   -3.9714    3.8634    3.2688 H   0  0  0  0  0  0  0  0  0  0  0  0
   -3.3417    6.6984    2.9795 H   0  0  0  0  0  0  0  0  0  0  0  0
   -4.0991    6.0317    1.5119 H   0  0  0  0  0  0  0  0  0  0  0  0
   -4.9600    5.9751    3.0656 H   0  0  0  0  0  0  0  0  0  0  0  0
  1  2  2  0  0  0  0
  1  3  1  0  0  0  0
  1  7  1  0  0  0  0
  3  4  1  0  0  0  0
  3  5  1  0  0  0  0
  3  6  1  0  0  0  0
  7  8  1  0  0  0  0
  7 12  1  0  0  0  0
  8  9  1  0  0  0  0
  8 11  1  0  0  0  0
  8 13  1  0  0  0  0
  9 10  2  0  0  0  0
  9 17  1  0  0  0  0
 11 14  1  0  0  0  0
 11 15  1  0  0  0  0
 11 16  1  0  0  0  0
 17 18  1  0  0  0  0
 17 25  1  0  0  0  0
 18 19  1  0  0  0  0
 18 21  1  0  0  0  0
 18 26  1  0  0  0  0
 19 20  2  0  0  0  0
 19 29  1  0  0  0  0
 21 22  1  0  0  0  0
 21 27  1  0  0  0  0
 21 28  1  0  0  0  0
 22 23  1  0  0  0  0
 22 24  2  0  0  0  0
 29 30  1  0  0  0  0
 29 34  1  0  0  0  0
 30 31  1  0  0  0  0
 30 33  1  0  0  0  0
 30 35  1  0  0  0  0
 31 32  2  0  0  0  0
 31 39  1  0  0  0  0
 33 36  1  0  0  0  0
 33 37  1  0  0  0  0
 33 38  1  0  0  0  0
 39 40  1  0  0  0  0
 39 41  1  0  0  0  0
 40 42  1  0  0  0  0
 40 43  1  0  0  0  0
 40 44  1  0  0  0  0
M  CHG  1  23  -1
M  END
$$$$

  -OEChem-05262215553D

 44 43  0     1  0  0  0  0  0999 V2000
   -4.7232    0.7769   -3.6744 C   0  0  0  0  0  0  0  0  0  0  0  0
   -5.0329   -0.3960   -3.8159 O   0  0  0  0  0  0  0  0  0  0  0  0
   -5.7327    1.8683   -3.9784 C   0  0  0  0  0  0  0  0  0  0  0  0
   -5.3749    2.4853   -4.8061 H   0  0  0  0  0  0  0  0  0  0  0  0
   -6.6943    1.4277   -4.2556 H   0  0  0  0  0  0  0  0  0  0  0  0
   -5.8752    2.5000   -3.0980 H   0  0  0  0  0  0  0  0  0  0  0  0
   -3.4657    1.1267   -3.2332 N   0  0  0  0  0  0  0  0  0  0  0  0
   -2.4865    0.1821   -2.6773 C   0  0  2  0  0  0  0  0  0  0  0  0
   -1.8687    0.7214   -1.3695 C   0  0  0  0  0  0  0  0  0  0  0  0
   -2.1400    1.8603   -0.9917 O   0  0  0  0  0  0  0  0  0  0  0  0
   -1.3989   -0.0502   -3.7312 C   0  0  0  0  0  0  0  0  0  0  0  0
   -3.3318    2.1033   -2.9757 H   0  0  0  0  0  0  0  0  0  0  0  0
   -2.9674   -0.7730   -2.4410 H   0  0  0  0  0  0  0  0  0  0  0  0
   -0.8758    0.8852   -3.9566 H   0  0  0  0  0  0  0  0  0  0  0  0
   -0.6631   -0.7782   -3.3750 H   0  0  0  0  0  0  0  0  0  0  0  0
   -1.8429   -0.4341   -4.6548 H   0  0  0  0  0  0  0  0  0  0  0  0
   -0.9901   -0.0630   -0.6466 N   0  0  0  0  0  0  0  0  0  0  0  0
   -0.0562    0.4376    0.3731 C   0  0  2  0  0  0  0  0  0  0  0  0
   -0.7699    1.1422    1.5517 C   0  0  0  0  0  0  0  0  0  0  0  0
   -1.3555    0.4837    2.4032 O   0  0  0  0  0  0  0  0  0  0  0  0
    0.9900    1.3356   -0.3279 C   0  0  0  0  0  0  0  0  0  0  0  0
    1.9180    0.5272   -1.2295 C   0  0  0  0  0  0  0  0  0  0  0  0
    2.1531   -0.6710   -0.9352 O   0  5  0  0  0  0  0  0  0  0  0  0
    2.3371    1.1028   -2.2603 O   0  0  0  0  0  0  0  0  0  0  0  0
   -0.6931   -0.9186   -1.1109 H   0  0  0  0  0  0  0  0  0  0  0  0
    0.4594   -0.4156    0.8269 H   0  0  0  0  0  0  0  0  0  0  0  0
    1.6153    1.8162    0.4289 H   0  0  0  0  0  0  0  0  0  0  0  0
    0.5061    2.1229   -0.9118 H   0  0  0  0  0  0  0  0  0  0  0  0
   -0.7576    2.5206    1.6703 N   0  0  0  0  0  0  0  0  0  0  0  0
   -1.4683    3.2671    2.7205 C   0  0  2  0  0  0  0  0  0  0  0  0
   -2.9623    3.5311    2.4142 C   0  0  0  0  0  0  0  0  0  0  0  0
   -3.6522    4.1521    3.2173 O   0  0  0  0  0  0  0  0  0  0  0  0
   -0.7089    4.5819    2.9221 C   0  0  0  0  0  0  0  0  0  0  0  0
   -0.4359    3.0203    0.8446 H   0  0  0  0  0  0  0  0  0  0  0  0
   -1.4286    2.7005    3.6568 H   0  0  0  0  0  0  0  0  0  0  0  0
   -0.7522    5.1926    2.0149 H   0  0  0  0  0  0  0  0  0  0  0  0
   -1.1469    5.1523    3.7472 H   0  0  0  0  0  0  0  0  0  0  0  0
    0.3401    4.3820    3.1611 H   0  0  0  0  0  0  0  0  0  0  0  0
   -3.5263    3.1441    1.2127 N   0  0  0  0  0  0  0  0  0  0  0  0
   -4.9376    3.2859    0.8932 C   0  0  0  0  0  0  0  0  0  0  0  0
   -2.9302    2.6106    0.5727 H   0  0  0  0  0  0  0  0  0  0  0  0
   -5.5486    2.7226    1.6060 H   0  0  0  0  0  0  0  0  0  0  0  0
   -5.2344    4.3391    0.9239 H   0  0  0  0  0  0  0  0  0  0  0  0
   -5.1325    2.8996   -0.1117 H   0  0  0  0  0  0  0  0  0  0  0  0
  1  2  2  0  0  0  0
  1  3  1  0  0  0  0
  1  7  1  0  0  0  0
  3  4  1  0  0  0  0
  3  5  1  0  0  0  0
  3  6  1  0  0  0  0
  7  8  1  0  0  0  0
  7 12  1  0  0  0  0
  8  9  1  0  0  0  0
  8 11  1  0  0  0  0
  8 13  1  0  0  0  0
  9 10  2  0  0  0  0
  9 17  1  0  0  0  0
 11 14  1  0  0  0  0
 11 15  1  0  0  0  0
 11 16  1  0  0  0  0
 17 18  1  0  0  0  0
 17 25  1  0  0  0  0
 18 19  1  0  0  0  0
 18 21  1  0  0  0  0
 18 26  1  0  0  0  0
 19 20  2  0  0  0  0
 19 29  1  0  0  0  0
 21 22  1  0  0  0  0
 21 27  1  0  0  0  0
 21 28  1  0  0  0  0
 22 23  1  0  0  0  0
 22 24  2  0  0  0  0
 29 30  1  0  0  0  0
 29 34  1  0  0  0  0
 30 31  1  0  0  0  0
 30 33  1  0  0  0  0
 30 35  1  0  0  0  0
 31 32  2  0  0  0  0
 31 39  1  0  0  0  0
 33 36  1  0  0  0  0
 33 37  1  0  0  0  0
 33 38  1  0  0  0  0
 39 40  1  0  0  0  0
 39 41  1  0  0  0  0
 40 42  1  0  0  0  0
 40 43  1  0  0  0  0
 40 44  1  0  0  0  0
M  CHG  1  23  -1
M  END
$$$$

  -OEChem-05262215553D

 44 43  0     1  0  0  0  0  0999 V2000
   -4.7209    0.6017   -3.7809 C   0  0  0  0  0  0  0  0  0  0  0  0
   -5.0108   -0.5820   -3.8584 O   0  0  0  0  0  0  0  0  0  0  0  0
   -5.7482    1.6567   -4.1495 C   0  0  0  0  0  0  0  0  0  0  0  0
   -5.3481    2.3115   -4.9276 H   0  0  0  0  0  0  0  0  0  0  0  0
   -6.6603    1.1826   -4.5227 H   0  0  0  0  0  0  0  0  0  0  0  0
   -5.9971    2.2569   -3.2707 H   0  0  0  0  0  0  0  0  0  0  0  0
   -3.4727    0.9958   -3.3496 N   0  0  0  0  0  0  0  0  0  0  0  0
   -2.4815    0.0997   -2.7356 C   0  0  2  0  0  0  0  0  0  0  0  0
   -1.9241    0.6900   -1.4226 C   0  0  0  0  0  0  0  0  0  0  0  0
   -2.2107    1.8430   -1.1033 O   0  0  0  0  0  0  0  0  0  0  0  0
   -1.3497   -0.1208   -3.7445 C   0  0  0  0  0  0  0  0  0  0  0  0
   -3.3547    1.9883   -3.1534 H   0  0  0  0  0  0  0  0  0  0  0  0
   -2.9368   -0.8658   -2.4918 H   0  0  0  0  0  0  0  0  0  0  0  0
   -0.8516    0.8265   -3.9764 H   0  0  0  0  0  0  0  0  0  0  0  0
   -0.6012   -0.8120   -3.3436 H   0  0  0  0  0  0  0  0  0  0  0  0
   -1.7464   -0.5440   -4.6724 H   0  0  0  0  0  0  0  0  0  0  0  0
   -1.0779   -0.0673   -0.6343 N   0  0  0  0  0  0  0  0  0  0  0  0
   -0.1614    0.4569    0.3919 C   0  0  2  0  0  0  0  0  0  0  0  0
   -0.8688    1.2295    1.5313 C   0  0  0  0  0  0  0  0  0  0  0  0
   -1.2534    0.6388    2.5334 O   0  0  0  0  0  0  0  0  0  0  0  0
    0.9096    1.3128   -0.3215 C   0  0  0  0  0  0  0  0  0  0  0  0
    1.8445    0.4588   -1.1726 C   0  0  0  0  0  0  0  0  0  0  0  0
    2.0580   -0.7299   -0.8280 O   0  5  0  0  0  0  0  0  0  0  0  0
    2.2749    0.9822   -2.2264 O   0  0  0  0  0  0  0  0  0  0  0  0
   -0.7718   -0.9409   -1.0584 H   0  0  0  0  0  0  0  0  0  0  0  0
    0.3312   -0.3881    0.8861 H   0  0  0  0  0  0  0  0  0  0  0  0
    1.5226    1.8166    0.4303 H   0  0  0  0  0  0  0  0  0  0  0  0
    0.4480    2.0829   -0.9450 H   0  0  0  0  0  0  0  0  0  0  0  0
   -1.0820    2.5930    1.4368 N   0  0  0  0  0  0  0  0  0  0  0  0
   -1.8427    3.3794    2.4212 C   0  0  2  0  0  0  0  0  0  0  0  0
   -3.3724    3.3729    2.1889 C   0  0  0  0  0  0  0  0  0  0  0  0
   -4.1172    3.9491    2.9757 O   0  0  0  0  0  0  0  0  0  0  0  0
   -1.2945    4.8081    2.3701 C   0  0  0  0  0  0  0  0  0  0  0  0
   -0.9829    2.9624    0.4918 H   0  0  0  0  0  0  0  0  0  0  0  0
   -1.6660    2.9784    3.4248 H   0  0  0  0  0  0  0  0  0  0  0  0
   -1.4860    5.2564    1.3901 H   0  0  0  0  0  0  0  0  0  0  0  0
   -1.7734    5.4267    3.1358 H   0  0  0  0  0  0  0  0  0  0  0  0
   -0.2151    4.8083    2.5519 H   0  0  0  0  0  0  0  0  0  0  0  0
   -3.9160    2.8105    1.0488 N   0  0  0  0  0  0  0  0  0  0  0  0
   -5.3393    2.7726    0.7539 C   0  0  0  0  0  0  0  0  0  0  0  0
   -3.2622    2.3730    0.3941 H   0  0  0  0  0  0  0  0  0  0  0  0
   -5.8813    2.2530    1.5508 H   0  0  0  0  0  0  0  0  0  0  0  0
   -5.7367    3.7877    0.6569 H   0  0  0  0  0  0  0  0  0  0  0  0
   -5.5120    2.2404   -0.1864 H   0  0  0  0  0  0  0  0  0  0  0  0
  1  2  2  0  0  0  0
  1  3  1  0  0  0  0
  1  7  1  0  0  0  0
  3  4  1  0  0  0  0
  3  5  1  0  0  0  0
  3  6  1  0  0  0  0
  7  8  1  0  0  0  0
  7 12  1  0  0  0  0
  8  9  1  0  0  0  0
  8 11  1  0  0  0  0
  8 13  1  0  0  0  0
  9 10  2  0  0  0  0
  9 17  1  0  0  0  0
 11 14  1  0  0  0  0
 11 15  1  0  0  0  0
 11 16  1  0  0  0  0
 17 18  1  0  0  0  0
 17 25  1  0  0  0  0
 18 19  1  0  0  0  0
 18 21  1  0  0  0  0
 18 26  1  0  0  0  0
 19 20  2  0  0  0  0
 19 29  1  0  0  0  0
 21 22  1  0  0  0  0
 21 27  1  0  0  0  0
 21 28  1  0  0  0  0
 22 23  1  0  0  0  0
 22 24  2  0  0  0  0
 29 30  1  0  0  0  0
 29 34  1  0  0  0  0
 30 31  1  0  0  0  0
 30 33  1  0  0  0  0
 30 35  1  0  0  0  0
 31 32  2  0  0  0  0
 31 39  1  0  0  0  0
 33 36  1  0  0  0  0
 33 37  1  0  0  0  0
 33 38  1  0  0  0  0
 39 40  1  0  0  0  0
 39 41  1  0  0  0  0
 40 42  1  0  0  0  0
 40 43  1  0  0  0  0
 40 44  1  0  0  0  0
M  CHG  1  23  -1
M  END
$$$$

  -OEChem-05262215553D

 44 43  0     1  0  0  0  0  0999 V2000
   -4.7793    0.5587   -3.4342 C   0  0  0  0  0  0  0  0  0  0  0  0
   -5.1792   -0.5144   -3.0099 O   0  0  0  0  0  0  0  0  0  0  0  0
   -5.7762    1.6341   -3.8249 C   0  0  0  0  0  0  0  0  0  0  0  0
   -5.6293    1.9164   -4.8700 H   0  0  0  0  0  0  0  0  0  0  0  0
   -6.7982    1.2661   -3.6993 H   0  0  0  0  0  0  0  0  0  0  0  0
   -5.6388    2.5156   -3.1933 H   0  0  0  0  0  0  0  0  0  0  0  0
   -3.4296    0.8201   -3.5404 N   0  0  0  0  0  0  0  0  0  0  0  0
   -2.3978    0.0084   -2.8761 C   0  0  2  0  0  0  0  0  0  0  0  0
   -1.9106    0.6572   -1.5628 C   0  0  0  0  0  0  0  0  0  0  0  0
   -2.2084    1.8242   -1.3158 O   0  0  0  0  0  0  0  0  0  0  0  0
   -1.2281   -0.1472   -3.8524 C   0  0  0  0  0  0  0  0  0  0  0  0
   -3.1913    1.7967   -3.6945 H   0  0  0  0  0  0  0  0  0  0  0  0
   -2.7846   -0.9876   -2.6356 H   0  0  0  0  0  0  0  0  0  0  0  0
   -0.7894    0.8285   -4.0865 H   0  0  0  0  0  0  0  0  0  0  0  0
   -0.4451   -0.7790   -3.4201 H   0  0  0  0  0  0  0  0  0  0  0  0
   -1.5695   -0.6103   -4.7833 H   0  0  0  0  0  0  0  0  0  0  0  0
   -1.0986   -0.0647   -0.7077 N   0  0  0  0  0  0  0  0  0  0  0  0
   -0.2290    0.4708    0.3559 C   0  0  2  0  0  0  0  0  0  0  0  0
   -0.9620    1.2691    1.4624 C   0  0  0  0  0  0  0  0  0  0  0  0
   -1.1845    0.7491    2.5490 O   0  0  0  0  0  0  0  0  0  0  0  0
    0.8631    1.3220   -0.3279 C   0  0  0  0  0  0  0  0  0  0  0  0
    1.8319    0.4614   -1.1343 C   0  0  0  0  0  0  0  0  0  0  0  0
    2.0378   -0.7223   -0.7680 O   0  5  0  0  0  0  0  0  0  0  0  0
    2.2850    0.9681   -2.1873 O   0  0  0  0  0  0  0  0  0  0  0  0
   -0.7847   -0.9578   -1.0825 H   0  0  0  0  0  0  0  0  0  0  0  0
    0.2455   -0.3694    0.8754 H   0  0  0  0  0  0  0  0  0  0  0  0
    1.4455    1.8362    0.4409 H   0  0  0  0  0  0  0  0  0  0  0  0
    0.4227    2.0854   -0.9745 H   0  0  0  0  0  0  0  0  0  0  0  0
   -1.4258    2.5512    1.2314 N   0  0  0  0  0  0  0  0  0  0  0  0
   -2.3340    3.2715    2.1384 C   0  0  2  0  0  0  0  0  0  0  0  0
   -3.8297    2.9711    1.8847 C   0  0  0  0  0  0  0  0  0  0  0  0
   -4.6835    3.3865    2.6617 O   0  0  0  0  0  0  0  0  0  0  0  0
   -2.0486    4.7650    1.9654 C   0  0  0  0  0  0  0  0  0  0  0  0
   -1.4386    2.8038    0.2406 H   0  0  0  0  0  0  0  0  0  0  0  0
   -2.1171    2.9966    3.1762 H   0  0  0  0  0  0  0  0  0  0  0  0
   -2.2704    5.0813    0.9413 H   0  0  0  0  0  0  0  0  0  0  0  0
   -2.6652    5.3519    2.6533 H   0  0  0  0  0  0  0  0  0  0  0  0
   -0.9961    4.9764    2.1780 H   0  0  0  0  0  0  0  0  0  0  0  0
   -4.2327    2.3204    0.7329 N   0  0  0  0  0  0  0  0  0  0  0  0
   -5.6125    1.9838    0.4206 C   0  0  0  0  0  0  0  0  0  0  0  0
   -3.4947    2.0345    0.0858 H   0  0  0  0  0  0  0  0  0  0  0  0
   -6.0353    1.3432    1.2012 H   0  0  0  0  0  0  0  0  0  0  0  0
   -6.2189    2.8912    0.3378 H   0  0  0  0  0  0  0  0  0  0  0  0
   -5.6597    1.4461   -0.5311 H   0  0  0  0  0  0  0  0  0  0  0  0
  1  2  2  0  0  0  0
  1  3  1  0  0  0  0
  1  7  1  0  0  0  0
  3  4  1  0  0  0  0
  3  5  1  0  0  0  0
  3  6  1  0  0  0  0
  7  8  1  0  0  0  0
  7 12  1  0  0  0  0
  8  9  1  0  0  0  0
  8 11  1  0  0  0  0
  8 13  1  0  0  0  0
  9 10  2  0  0  0  0
  9 17  1  0  0  0  0
 11 14  1  0  0  0  0
 11 15  1  0  0  0  0
 11 16  1  0  0  0  0
 17 18  1  0  0  0  0
 17 25  1  0  0  0  0
 18 19  1  0  0  0  0
 18 21  1  0  0  0  0
 18 26  1  0  0  0  0
 19 20  2  0  0  0  0
 19 29  1  0  0  0  0
 21 22  1  0  0  0  0
 21 27  1  0  0  0  0
 21 28  1  0  0  0  0
 22 23  1  0  0  0  0
 22 24  2  0  0  0  0
 29 30  1  0  0  0  0
 29 34  1  0  0  0  0
 30 31  1  0  0  0  0
 30 33  1  0  0  0  0
 30 35  1  0  0  0  0
 31 32  2  0  0  0  0
 31 39  1  0  0  0  0
 33 36  1  0  0  0  0
 33 37  1  0  0  0  0
 33 38  1  0  0  0  0
 39 40  1  0  0  0  0
 39 41  1  0  0  0  0
 40 42  1  0  0  0  0
 40 43  1  0  0  0  0
 40 44  1  0  0  0  0
M  CHG  1  23  -1
M  END
$$$$

  -OEChem-05262215553D

 44 43  0     1  0  0  0  0  0999 V2000
   -4.3575    0.3616   -4.5605 C   0  0  0  0  0  0  0  0  0  0  0  0
   -4.5724   -0.8393   -4.6257 O   0  0  0  0  0  0  0  0  0  0  0  0
   -5.3531    1.3427   -5.1523 C   0  0  0  0  0  0  0  0  0  0  0  0
   -6.1811    0.8052   -5.6231 H   0  0  0  0  0  0  0  0  0  0  0  0
   -5.7533    1.9866   -4.3651 H   0  0  0  0  0  0  0  0  0  0  0  0
   -4.8616    1.9631   -5.9056 H   0  0  0  0  0  0  0  0  0  0  0  0
   -3.2217    0.8406   -3.9447 N   0  0  0  0  0  0  0  0  0  0  0  0
   -2.3065    0.0255   -3.1339 C   0  0  2  0  0  0  0  0  0  0  0  0
   -1.9247    0.7451   -1.8231 C   0  0  0  0  0  0  0  0  0  0  0  0
   -2.1794    1.9404   -1.6996 O   0  0  0  0  0  0  0  0  0  0  0  0
   -1.0531   -0.2633   -3.9653 C   0  0  0  0  0  0  0  0  0  0  0  0
   -3.1822    1.8456   -3.7790 H   0  0  0  0  0  0  0  0  0  0  0  0
   -2.7826   -0.9219   -2.8607 H   0  0  0  0  0  0  0  0  0  0  0  0
   -0.5502    0.6702   -4.2385 H   0  0  0  0  0  0  0  0  0  0  0  0
   -0.3474   -0.8806   -3.3998 H   0  0  0  0  0  0  0  0  0  0  0  0
   -1.3219   -0.7980   -4.8813 H   0  0  0  0  0  0  0  0  0  0  0  0
   -1.2825    0.0318   -0.8259 N   0  0  0  0  0  0  0  0  0  0  0  0
   -0.5471    0.5553    0.3418 C   0  0  2  0  0  0  0  0  0  0  0  0
   -1.3564    1.4342    1.3287 C   0  0  0  0  0  0  0  0  0  0  0  0
   -1.5658    1.0362    2.4712 O   0  0  0  0  0  0  0  0  0  0  0  0
    0.6868    1.3125   -0.1913 C   0  0  0  0  0  0  0  0  0  0  0  0
    1.7077    0.3640   -0.8158 C   0  0  0  0  0  0  0  0  0  0  0  0
    1.7762   -0.8152   -0.3864 O   0  5  0  0  0  0  0  0  0  0  0  0
    2.3670    0.8056   -1.7855 O   0  0  0  0  0  0  0  0  0  0  0  0
   -0.9733   -0.8937   -1.1172 H   0  0  0  0  0  0  0  0  0  0  0  0
   -0.2080   -0.2973    0.9409 H   0  0  0  0  0  0  0  0  0  0  0  0
    1.1797    1.8226    0.6402 H   0  0  0  0  0  0  0  0  0  0  0  0
    0.3939    2.0729   -0.9202 H   0  0  0  0  0  0  0  0  0  0  0  0
   -1.9661    2.6113    0.9418 N   0  0  0  0  0  0  0  0  0  0  0  0
   -2.8854    3.4013    1.7737 C   0  0  2  0  0  0  0  0  0  0  0  0
   -4.3046    2.7833    1.8525 C   0  0  0  0  0  0  0  0  0  0  0  0
   -5.3166    3.4386    1.6205 O   0  0  0  0  0  0  0  0  0  0  0  0
   -2.8858    4.8250    1.2056 C   0  0  0  0  0  0  0  0  0  0  0  0
   -1.9791    2.7629   -0.0717 H   0  0  0  0  0  0  0  0  0  0  0  0
   -2.4968    3.4468    2.7963 H   0  0  0  0  0  0  0  0  0  0  0  0
   -3.2825    4.8295    0.1852 H   0  0  0  0  0  0  0  0  0  0  0  0
   -3.5055    5.4817    1.8239 H   0  0  0  0  0  0  0  0  0  0  0  0
   -1.8681    5.2267    1.1867 H   0  0  0  0  0  0  0  0  0  0  0  0
   -4.4393    1.4620    2.2306 N   0  0  0  0  0  0  0  0  0  0  0  0
   -5.7036    0.7457    2.2896 C   0  0  0  0  0  0  0  0  0  0  0  0
   -3.5663    0.9665    2.4318 H   0  0  0  0  0  0  0  0  0  0  0  0
   -6.3859    1.2307    2.9947 H   0  0  0  0  0  0  0  0  0  0  0  0
   -6.1737    0.7193    1.3014 H   0  0  0  0  0  0  0  0  0  0  0  0
   -5.5354   -0.2832    2.6215 H   0  0  0  0  0  0  0  0  0  0  0  0
  1  2  2  0  0  0  0
  1  3  1  0  0  0  0
  1  7  1  0  0  0  0
  3  4  1  0  0  0  0
  3  5  1  0  0  0  0
  3  6  1  0  0  0  0
  7  8  1  0  0  0  0
  7 12  1  0  0  0  0
  8  9  1  0  0  0  0
  8 11  1  0  0  0  0
  8 13  1  0  0  0  0
  9 10  2  0  0  0  0
  9 17  1  0  0  0  0
 11 14  1  0  0  0  0
 11 15  1  0  0  0  0
 11 16  1  0  0  0  0
 17 18  1  0  0  0  0
 17 25  1  0  0  0  0
 18 19  1  0  0  0  0
 18 21  1  0  0  0  0
 18 26  1  0  0  0  0
 19 20  2  0  0  0  0
 19 29  1  0  0  0  0
 21 22  1  0  0  0  0
 21 27  1  0  0  0  0
 21 28  1  0  0  0  0
 22 23  1  0  0  0  0
 22 24  2  0  0  0  0
 29 30  1  0  0  0  0
 29 34  1  0  0  0  0
 30 31  1  0  0  0  0
 30 33  1  0  0  0  0
 30 35  1  0  0  0  0
 31 32  2  0  0  0  0
 31 39  1  0  0  0  0
 33 36  1  0  0  0  0
 33 37  1  0  0  0  0
 33 38  1  0  0  0  0
 39 40  1  0  0  0  0
 39 41  1  0  0  0  0
 40 42  1  0  0  0  0
 40 43  1  0  0  0  0
 40 44  1  0  0  0  0
M  CHG  1  23  -1
M  END
$$$$

  -OEChem-05262215553D

 44 43  0     1  0  0  0  0  0999 V2000
   -4.7183    0.0195   -3.3180 C   0  0  0  0  0  0  0  0  0  0  0  0
   -4.4619   -0.9812   -3.9701 O   0  0  0  0  0  0  0  0  0  0  0  0
   -6.1695    0.3711   -3.0453 C   0  0  0  0  0  0  0  0  0  0  0  0
   -6.6261    0.7802   -3.9498 H   0  0  0  0  0  0  0  0  0  0  0  0
   -6.7180   -0.5235   -2.7397 H   0  0  0  0  0  0  0  0  0  0  0  0
   -6.2426    1.1148   -2.2491 H   0  0  0  0  0  0  0  0  0  0  0  0
   -3.7006    0.8226   -2.8489 N   0  0  0  0  0  0  0  0  0  0  0  0
   -2.2673    0.5755   -3.0781 C   0  0  2  0  0  0  0  0  0  0  0  0
   -1.4302    1.0435   -1.8699 C   0  0  0  0  0  0  0  0  0  0  0  0
   -1.1371    2.2285   -1.7583 O   0  0  0  0  0  0  0  0  0  0  0  0
   -1.8526    1.2793   -4.3756 C   0  0  0  0  0  0  0  0  0  0  0  0
   -3.9703    1.6004   -2.2375 H   0  0  0  0  0  0  0  0  0  0  0  0
   -2.0850   -0.4973   -3.1998 H   0  0  0  0  0  0  0  0  0  0  0  0
   -2.0515    2.3540   -4.3139 H   0  0  0  0  0  0  0  0  0  0  0  0
   -0.7839    1.1332   -4.5608 H   0  0  0  0  0  0  0  0  0  0  0  0
   -2.4107    0.8690   -5.2227 H   0  0  0  0  0  0  0  0  0  0  0  0
   -1.1665    0.1417   -0.8514 N   0  0  0  0  0  0  0  0  0  0  0  0
   -0.5344    0.3665    0.4679 C   0  0  2  0  0  0  0  0  0  0  0  0
   -1.2803    1.3755    1.3776 C   0  0  0  0  0  0  0  0  0  0  0  0
   -1.7954    0.9731    2.4186 O   0  0  0  0  0  0  0  0  0  0  0  0
    0.9419    0.7635    0.2731 C   0  0  0  0  0  0  0  0  0  0  0  0
    1.7820   -0.3969   -0.2565 C   0  0  0  0  0  0  0  0  0  0  0  0
    1.4355   -1.5707    0.0333 O   0  5  0  0  0  0  0  0  0  0  0  0
    2.7784   -0.1031   -0.9579 O   0  0  0  0  0  0  0  0  0  0  0  0
   -1.3041   -0.8347   -1.0998 H   0  0  0  0  0  0  0  0  0  0  0  0
   -0.5632   -0.5806    1.0185 H   0  0  0  0  0  0  0  0  0  0  0  0
    1.3629    1.0589    1.2375 H   0  0  0  0  0  0  0  0  0  0  0  0
    1.0274    1.6173   -0.4036 H   0  0  0  0  0  0  0  0  0  0  0  0
   -1.7450    2.5755    0.8747 N   0  0  0  0  0  0  0  0  0  0  0  0
   -3.0933    3.0741    1.1641 C   0  0  2  0  0  0  0  0  0  0  0  0
   -4.1618    2.1443    0.5366 C   0  0  0  0  0  0  0  0  0  0  0  0
   -4.7133    2.4036   -0.5310 O   0  0  0  0  0  0  0  0  0  0  0  0
   -3.1753    4.5098    0.6359 C   0  0  0  0  0  0  0  0  0  0  0  0
   -1.3980    2.7601   -0.0724 H   0  0  0  0  0  0  0  0  0  0  0  0
   -3.2583    3.0999    2.2461 H   0  0  0  0  0  0  0  0  0  0  0  0
   -2.9858    4.5348   -0.4425 H   0  0  0  0  0  0  0  0  0  0  0  0
   -4.1682    4.9288    0.8255 H   0  0  0  0  0  0  0  0  0  0  0  0
   -2.4311    5.1385    1.1342 H   0  0  0  0  0  0  0  0  0  0  0  0
   -4.4190    0.9318    1.1469 N   0  0  0  0  0  0  0  0  0  0  0  0
   -5.1840   -0.1396    0.5266 C   0  0  0  0  0  0  0  0  0  0  0  0
   -3.7549    0.6835    1.8866 H   0  0  0  0  0  0  0  0  0  0  0  0
   -6.1653    0.2225    0.2034 H   0  0  0  0  0  0  0  0  0  0  0  0
   -4.6476   -0.5390   -0.3395 H   0  0  0  0  0  0  0  0  0  0  0  0
   -5.3380   -0.9516    1.2438 H   0  0  0  0  0  0  0  0  0  0  0  0
  1  2  2  0  0  0  0
  1  3  1  0  0  0  0
  1  7  1  0  0  0  0
  3  4  1  0  0  0  0
  3  5  1  0  0  0  0
  3  6  1  0  0  0  0
  7  8  1  0  0  0  0
  7 12  1  0  0  0  0
  8  9  1  0  0  0  0
  8 11  1  0  0  0  0
  8 13  1  0  0  0  0
  9 10  2  0  0  0  0
  9 17  1  0  0  0  0
 11 14  1  0  0  0  0
 11 15  1  0  0  0  0
 11 16  1  0  0  0  0
 17 18  1  0  0  0  0
 17 25  1  0  0  0  0
 18 19  1  0  0  0  0
 18 21  1  0  0  0  0
 18 26  1  0  0  0  0
 19 20  2  0  0  0  0
 19 29  1  0  0  0  0
 21 22  1  0  0  0  0
 21 27  1  0  0  0  0
 21 28  1  0  0  0  0
 22 23  1  0  0  0  0
 22 24  2  0  0  0  0
 29 30  1  0  0  0  0
 29 34  1  0  0  0  0
 30 31  1  0  0  0  0
 30 33  1  0  0  0  0
 30 35  1  0  0  0  0
 31 32  2  0  0  0  0
 31 39  1  0  0  0  0
 33 36  1  0  0  0  0
 33 37  1  0  0  0  0
 33 38  1  0  0  0  0
 39 40  1  0  0  0  0
 39 41  1  0  0  0  0
 40 42  1  0  0  0  0
 40 43  1  0  0  0  0
 40 44  1  0  0  0  0
M  CHG  1  23  -1
M  END
$$$$

  -OEChem-05262215553D

 44 43  0     1  0  0  0  0  0999 V2000
   -4.3885   -0.0636   -2.9487 C   0  0  0  0  0  0  0  0  0  0  0  0
   -4.0941   -1.1701   -2.5218 O   0  0  0  0  0  0  0  0  0  0  0  0
   -5.8012    0.4670   -2.7916 C   0  0  0  0  0  0  0  0  0  0  0  0
   -6.2581    0.6117   -3.7732 H   0  0  0  0  0  0  0  0  0  0  0  0
   -6.4096   -0.2380   -2.2184 H   0  0  0  0  0  0  0  0  0  0  0  0
   -5.7837    1.4231   -2.2619 H   0  0  0  0  0  0  0  0  0  0  0  0
   -3.4310    0.7160   -3.5656 N   0  0  0  0  0  0  0  0  0  0  0  0
   -1.9973    0.4078   -3.4730 C   0  0  2  0  0  0  0  0  0  0  0  0
   -1.4323    0.9226   -2.1353 C   0  0  0  0  0  0  0  0  0  0  0  0
   -1.4048    2.1320   -1.9298 O   0  0  0  0  0  0  0  0  0  0  0  0
   -1.2825    1.0437   -4.6684 C   0  0  0  0  0  0  0  0  0  0  0  0
   -3.6821    1.6914   -3.7009 H   0  0  0  0  0  0  0  0  0  0  0  0
   -1.8340   -0.6742   -3.5247 H   0  0  0  0  0  0  0  0  0  0  0  0
   -1.4304    2.1284   -4.6774 H   0  0  0  0  0  0  0  0  0  0  0  0
   -0.2078    0.8414   -4.6155 H   0  0  0  0  0  0  0  0  0  0  0  0
   -1.6685    0.6299   -5.6047 H   0  0  0  0  0  0  0  0  0  0  0  0
   -1.1292    0.0086   -1.1428 N   0  0  0  0  0  0  0  0  0  0  0  0
   -0.6117    0.2287    0.2237 C   0  0  2  0  0  0  0  0  0  0  0  0
   -1.5036    1.0934    1.1526 C   0  0  0  0  0  0  0  0  0  0  0  0
   -1.7463    0.6983    2.2895 O   0  0  0  0  0  0  0  0  0  0  0  0
    0.8077    0.8201    0.1122 C   0  0  0  0  0  0  0  0  0  0  0  0
    1.8128   -0.1915   -0.4360 C   0  0  0  0  0  0  0  0  0  0  0  0
    1.6169   -1.4148   -0.2213 O   0  5  0  0  0  0  0  0  0  0  0  0
    2.7703    0.2671   -1.1036 O   0  0  0  0  0  0  0  0  0  0  0  0
   -1.1580   -0.9651   -1.4375 H   0  0  0  0  0  0  0  0  0  0  0  0
   -0.5467   -0.7458    0.7204 H   0  0  0  0  0  0  0  0  0  0  0  0
    1.1504    1.1134    1.1077 H   0  0  0  0  0  0  0  0  0  0  0  0
    0.8060    1.7149   -0.5154 H   0  0  0  0  0  0  0  0  0  0  0  0
   -2.3209    2.0920    0.6605 N   0  0  0  0  0  0  0  0  0  0  0  0
   -3.5496    2.5794    1.2975 C   0  0  2  0  0  0  0  0  0  0  0  0
   -4.7246    1.6005    1.0580 C   0  0  0  0  0  0  0  0  0  0  0  0
   -5.7428    1.9361    0.4587 O   0  0  0  0  0  0  0  0  0  0  0  0
   -3.8164    3.9874    0.7531 C   0  0  0  0  0  0  0  0  0  0  0  0
   -2.1498    2.3380   -0.3179 H   0  0  0  0  0  0  0  0  0  0  0  0
   -3.3996    2.6588    2.3790 H   0  0  0  0  0  0  0  0  0  0  0  0
   -3.9646    3.9583   -0.3313 H   0  0  0  0  0  0  0  0  0  0  0  0
   -4.7124    4.4113    1.2168 H   0  0  0  0  0  0  0  0  0  0  0  0
   -2.9697    4.6451    0.9716 H   0  0  0  0  0  0  0  0  0  0  0  0
   -4.5953    0.2958    1.4922 N   0  0  0  0  0  0  0  0  0  0  0  0
   -5.5028   -0.7792    1.1201 C   0  0  0  0  0  0  0  0  0  0  0  0
   -3.6850    0.0576    1.8951 H   0  0  0  0  0  0  0  0  0  0  0  0
   -6.5329   -0.5246    1.3891 H   0  0  0  0  0  0  0  0  0  0  0  0
   -5.4524   -0.9660    0.0430 H   0  0  0  0  0  0  0  0  0  0  0  0
   -5.2274   -1.6992    1.6442 H   0  0  0  0  0  0  0  0  0  0  0  0
  1  2  2  0  0  0  0
  1  3  1  0  0  0  0
  1  7  1  0  0  0  0
  3  4  1  0  0  0  0
  3  5  1  0  0  0  0
  3  6  1  0  0  0  0
  7  8  1  0  0  0  0
  7 12  1  0  0  0  0
  8  9  1  0  0  0  0
  8 11  1  0  0  0  0
  8 13  1  0  0  0  0
  9 10  2  0  0  0  0
  9 17  1  0  0  0  0
 11 14  1  0  0  0  0
 11 15  1  0  0  0  0
 11 16  1  0  0  0  0
 17 18  1  0  0  0  0
 17 25  1  0  0  0  0
 18 19  1  0  0  0  0
 18 21  1  0  0  0  0
 18 26  1  0  0  0  0
 19 20  2  0  0  0  0
 19 29  1  0  0  0  0
 21 22  1  0  0  0  0
 21 27  1  0  0  0  0
 21 28  1  0  0  0  0
 22 23  1  0  0  0  0
 22 24  2  0  0  0  0
 29 30  1  0  0  0  0
 29 34  1  0  0  0  0
 30 31  1  0  0  0  0
 30 33  1  0  0  0  0
 30 35  1  0  0  0  0
 31 32  2  0  0  0  0
 31 39  1  0  0  0  0
 33 36  1  0  0  0  0
 33 37  1  0  0  0  0
 33 38  1  0  0  0  0
 39 40  1  0  0  0  0
 39 41  1  0  0  0  0
 40 42  1  0  0  0  0
 40 43  1  0  0  0  0
 40 44  1  0  0  0  0
M  CHG  1  23  -1
M  END
$$$$

  -OEChem-05262215553D

 44 43  0     1  0  0  0  0  0999 V2000
   -4.2326   -0.4708   -4.3283 C   0  0  0  0  0  0  0  0  0  0  0  0
   -3.9691   -1.6477   -4.5248 O   0  0  0  0  0  0  0  0  0  0  0  0
   -5.6750   -0.0013   -4.3753 C   0  0  0  0  0  0  0  0  0  0  0  0
   -5.7926    0.7656   -5.1446 H   0  0  0  0  0  0  0  0  0  0  0  0
   -6.3388   -0.8391   -4.6055 H   0  0  0  0  0  0  0  0  0  0  0  0
   -5.9605    0.4175   -3.4064 H   0  0  0  0  0  0  0  0  0  0  0  0
   -3.2374    0.4404   -4.0459 N   0  0  0  0  0  0  0  0  0  0  0  0
   -1.8940    0.0594   -3.5867 C   0  0  2  0  0  0  0  0  0  0  0  0
   -1.6557    0.5596   -2.1481 C   0  0  0  0  0  0  0  0  0  0  0  0
   -2.2880    1.5321   -1.7469 O   0  0  0  0  0  0  0  0  0  0  0  0
   -0.8621    0.6725   -4.5354 C   0  0  0  0  0  0  0  0  0  0  0  0
   -3.5638    1.3432   -3.7033 H   0  0  0  0  0  0  0  0  0  0  0  0
   -1.7730   -1.0287   -3.5898 H   0  0  0  0  0  0  0  0  0  0  0  0
   -0.9495    1.7639   -4.5449 H   0  0  0  0  0  0  0  0  0  0  0  0
    0.1531    0.4119   -4.2173 H   0  0  0  0  0  0  0  0  0  0  0  0
   -1.0138    0.2994   -5.5527 H   0  0  0  0  0  0  0  0  0  0  0  0
   -0.7566   -0.1039   -1.3322 N   0  0  0  0  0  0  0  0  0  0  0  0
   -0.1539    0.3735   -0.0701 C   0  0  2  0  0  0  0  0  0  0  0  0
   -1.1179    0.7190    1.0983 C   0  0  0  0  0  0  0  0  0  0  0  0
   -0.6901    0.7563    2.2481 O   0  0  0  0  0  0  0  0  0  0  0  0
    0.7466    1.5738   -0.4312 C   0  0  0  0  0  0  0  0  0  0  0  0
    1.9693    1.1408   -1.2380 C   0  0  0  0  0  0  0  0  0  0  0  0
    2.4293   -0.0167   -1.0647 O   0  5  0  0  0  0  0  0  0  0  0  0
    2.3857    1.9450   -2.1051 O   0  0  0  0  0  0  0  0  0  0  0  0
   -0.1775   -0.7804   -1.8259 H   0  0  0  0  0  0  0  0  0  0  0  0
    0.4700   -0.4327    0.3303 H   0  0  0  0  0  0  0  0  0  0  0  0
    1.1116    2.0372    0.4890 H   0  0  0  0  0  0  0  0  0  0  0  0
    0.1841    2.3324   -0.9820 H   0  0  0  0  0  0  0  0  0  0  0  0
   -2.4776    0.8909    0.9204 N   0  0  0  0  0  0  0  0  0  0  0  0
   -3.4278    1.2761    1.9681 C   0  0  2  0  0  0  0  0  0  0  0  0
   -4.8334    0.6816    1.7382 C   0  0  0  0  0  0  0  0  0  0  0  0
   -5.3490    0.6686    0.6252 O   0  0  0  0  0  0  0  0  0  0  0  0
   -3.4919    2.8049    2.0116 C   0  0  0  0  0  0  0  0  0  0  0  0
   -2.7679    1.0266   -0.0524 H   0  0  0  0  0  0  0  0  0  0  0  0
   -3.0733    0.9088    2.9357 H   0  0  0  0  0  0  0  0  0  0  0  0
   -3.8461    3.1999    1.0535 H   0  0  0  0  0  0  0  0  0  0  0  0
   -4.1717    3.1369    2.8014 H   0  0  0  0  0  0  0  0  0  0  0  0
   -2.4991    3.2198    2.2125 H   0  0  0  0  0  0  0  0  0  0  0  0
   -5.5532    0.1878    2.8122 N   0  0  0  0  0  0  0  0  0  0  0  0
   -6.8625   -0.4364    2.6765 C   0  0  0  0  0  0  0  0  0  0  0  0
   -5.0772    0.1464    3.7083 H   0  0  0  0  0  0  0  0  0  0  0  0
   -7.5831    0.2734    2.2571 H   0  0  0  0  0  0  0  0  0  0  0  0
   -6.8032   -1.3096    2.0187 H   0  0  0  0  0  0  0  0  0  0  0  0
   -7.2280   -0.7638    3.6544 H   0  0  0  0  0  0  0  0  0  0  0  0
  1  2  2  0  0  0  0
  1  3  1  0  0  0  0
  1  7  1  0  0  0  0
  3  4  1  0  0  0  0
  3  5  1  0  0  0  0
  3  6  1  0  0  0  0
  7  8  1  0  0  0  0
  7 12  1  0  0  0  0
  8  9  1  0  0  0  0
  8 11  1  0  0  0  0
  8 13  1  0  0  0  0
  9 10  2  0  0  0  0
  9 17  1  0  0  0  0
 11 14  1  0  0  0  0
 11 15  1  0  0  0  0
 11 16  1  0  0  0  0
 17 18  1  0  0  0  0
 17 25  1  0  0  0  0
 18 19  1  0  0  0  0
 18 21  1  0  0  0  0
 18 26  1  0  0  0  0
 19 20  2  0  0  0  0
 19 29  1  0  0  0  0
 21 22  1  0  0  0  0
 21 27  1  0  0  0  0
 21 28  1  0  0  0  0
 22 23  1  0  0  0  0
 22 24  2  0  0  0  0
 29 30  1  0  0  0  0
 29 34  1  0  0  0  0
 30 31  1  0  0  0  0
 30 33  1  0  0  0  0
 30 35  1  0  0  0  0
 31 32  2  0  0  0  0
 31 39  1  0  0  0  0
 33 36  1  0  0  0  0
 33 37  1  0  0  0  0
 33 38  1  0  0  0  0
 39 40  1  0  0  0  0
 39 41  1  0  0  0  0
 40 42  1  0  0  0  0
 40 43  1  0  0  0  0
 40 44  1  0  0  0  0
M  CHG  1  23  -1
M  END
$$$$

  -OEChem-05262215553D

 44 43  0     1  0  0  0  0  0999 V2000
   -4.1680   -0.3348   -4.6746 C   0  0  0  0  0  0  0  0  0  0  0  0
   -3.7908   -1.4013   -5.1361 O   0  0  0  0  0  0  0  0  0  0  0  0
   -5.6172    0.0866   -4.8353 C   0  0  0  0  0  0  0  0  0  0  0  0
   -5.6726    1.0290   -5.3857 H   0  0  0  0  0  0  0  0  0  0  0  0
   -6.1740   -0.6773   -5.3851 H   0  0  0  0  0  0  0  0  0  0  0  0
   -6.0773    0.2189   -3.8526 H   0  0  0  0  0  0  0  0  0  0  0  0
   -3.2958    0.4911   -3.9991 N   0  0  0  0  0  0  0  0  0  0  0  0
   -1.9661    0.0805   -3.5270 C   0  0  2  0  0  0  0  0  0  0  0  0
   -1.7719    0.4427   -2.0406 C   0  0  0  0  0  0  0  0  0  0  0  0
   -2.5206    1.2629   -1.5175 O   0  0  0  0  0  0  0  0  0  0  0  0
   -0.9086    0.7842   -4.3809 C   0  0  0  0  0  0  0  0  0  0  0  0
   -3.7149    1.2714   -3.4943 H   0  0  0  0  0  0  0  0  0  0  0  0
   -1.8422   -1.0034   -3.6230 H   0  0  0  0  0  0  0  0  0  0  0  0
   -0.9952    1.8711   -4.2802 H   0  0  0  0  0  0  0  0  0  0  0  0
    0.0985    0.4898   -4.0667 H   0  0  0  0  0  0  0  0  0  0  0  0
   -1.0338    0.5188   -5.4348 H   0  0  0  0  0  0  0  0  0  0  0  0
   -0.7746   -0.1786   -1.3106 N   0  0  0  0  0  0  0  0  0  0  0  0
   -0.1243    0.3340   -0.0867 C   0  0  2  0  0  0  0  0  0  0  0  0
   -1.0348    0.6007    1.1433 C   0  0  0  0  0  0  0  0  0  0  0  0
   -0.5380    0.9106    2.2225 O   0  0  0  0  0  0  0  0  0  0  0  0
    0.6563    1.5988   -0.5074 C   0  0  0  0  0  0  0  0  0  0  0  0
    1.8448    1.2551   -1.4028 C   0  0  0  0  0  0  0  0  0  0  0  0
    2.3993    0.1348   -1.2675 O   0  5  0  0  0  0  0  0  0  0  0  0
    2.1208    2.0760   -2.3090 O   0  0  0  0  0  0  0  0  0  0  0  0
   -0.1476   -0.7412   -1.8838 H   0  0  0  0  0  0  0  0  0  0  0  0
    0.5821   -0.4246    0.2661 H   0  0  0  0  0  0  0  0  0  0  0  0
    1.0537    2.0909    0.3840 H   0  0  0  0  0  0  0  0  0  0  0  0
   -0.0004    2.3125   -1.0121 H   0  0  0  0  0  0  0  0  0  0  0  0
   -2.3980    0.3741    1.1091 N   0  0  0  0  0  0  0  0  0  0  0  0
   -3.3212    0.7156    2.1964 C   0  0  2  0  0  0  0  0  0  0  0  0
   -4.6025   -0.1447    2.1924 C   0  0  0  0  0  0  0  0  0  0  0  0
   -5.1169   -0.5277    1.1472 O   0  0  0  0  0  0  0  0  0  0  0  0
   -3.6822    2.1979    2.0634 C   0  0  0  0  0  0  0  0  0  0  0  0
   -2.7884    0.3486    0.1637 H   0  0  0  0  0  0  0  0  0  0  0  0
   -2.8254    0.5530    3.1585 H   0  0  0  0  0  0  0  0  0  0  0  0
   -4.1677    2.3862    1.1002 H   0  0  0  0  0  0  0  0  0  0  0  0
   -4.3634    2.5002    2.8640 H   0  0  0  0  0  0  0  0  0  0  0  0
   -2.7806    2.8156    2.1237 H   0  0  0  0  0  0  0  0  0  0  0  0
   -5.2187   -0.4554    3.3923 N   0  0  0  0  0  0  0  0  0  0  0  0
   -6.4261   -1.2644    3.4894 C   0  0  0  0  0  0  0  0  0  0  0  0
   -4.7572   -0.1510    4.2440 H   0  0  0  0  0  0  0  0  0  0  0  0
   -7.2588   -0.7704    2.9780 H   0  0  0  0  0  0  0  0  0  0  0  0
   -6.2656   -2.2483    3.0361 H   0  0  0  0  0  0  0  0  0  0  0  0
   -6.7004   -1.4076    4.5388 H   0  0  0  0  0  0  0  0  0  0  0  0
  1  2  2  0  0  0  0
  1  3  1  0  0  0  0
  1  7  1  0  0  0  0
  3  4  1  0  0  0  0
  3  5  1  0  0  0  0
  3  6  1  0  0  0  0
  7  8  1  0  0  0  0
  7 12  1  0  0  0  0
  8  9  1  0  0  0  0
  8 11  1  0  0  0  0
  8 13  1  0  0  0  0
  9 10  2  0  0  0  0
  9 17  1  0  0  0  0
 11 14  1  0  0  0  0
 11 15  1  0  0  0  0
 11 16  1  0  0  0  0
 17 18  1  0  0  0  0
 17 25  1  0  0  0  0
 18 19  1  0  0  0  0
 18 21  1  0  0  0  0
 18 26  1  0  0  0  0
 19 20  2  0  0  0  0
 19 29  1  0  0  0  0
 21 22  1  0  0  0  0
 21 27  1  0  0  0  0
 21 28  1  0  0  0  0
 22 23  1  0  0  0  0
 22 24  2  0  0  0  0
 29 30  1  0  0  0  0
 29 34  1  0  0  0  0
 30 31  1  0  0  0  0
 30 33  1  0  0  0  0
 30 35  1  0  0  0  0
 31 32  2  0  0  0  0
 31 39  1  0  0  0  0
 33 36  1  0  0  0  0
 33 37  1  0  0  0  0
 33 38  1  0  0  0  0
 39 40  1  0  0  0  0
 39 41  1  0  0  0  0
 40 42  1  0  0  0  0
 40 43  1  0  0  0  0
 40 44  1  0  0  0  0
M  CHG  1  23  -1
M  END
$$$$

  -OEChem-05262215553D

 44 43  0     1  0  0  0  0  0999 V2000
   -4.2414   -0.2164   -4.6173 C   0  0  0  0  0  0  0  0  0  0  0  0
   -3.8855   -1.2533   -5.1565 O   0  0  0  0  0  0  0  0  0  0  0  0
   -5.6757    0.2574   -4.7632 C   0  0  0  0  0  0  0  0  0  0  0  0
   -5.7070    1.1640   -5.3721 H   0  0  0  0  0  0  0  0  0  0  0  0
   -6.2823   -0.5143   -5.2448 H   0  0  0  0  0  0  0  0  0  0  0  0
   -6.0985    0.4732   -3.7787 H   0  0  0  0  0  0  0  0  0  0  0  0
   -3.3587    0.5303   -3.8681 N   0  0  0  0  0  0  0  0  0  0  0  0
   -2.0374    0.0605   -3.4311 C   0  0  2  0  0  0  0  0  0  0  0  0
   -1.8055    0.3762   -1.9384 C   0  0  0  0  0  0  0  0  0  0  0  0
   -2.5915    1.1076   -1.3433 O   0  0  0  0  0  0  0  0  0  0  0  0
   -0.9713    0.7439   -4.2920 C   0  0  0  0  0  0  0  0  0  0  0  0
   -3.7619    1.2804   -3.3079 H   0  0  0  0  0  0  0  0  0  0  0  0
   -1.9580   -1.0248   -3.5546 H   0  0  0  0  0  0  0  0  0  0  0  0
   -1.0089    1.8302   -4.1601 H   0  0  0  0  0  0  0  0  0  0  0  0
    0.0302    0.3999   -4.0136 H   0  0  0  0  0  0  0  0  0  0  0  0
   -1.1333    0.5133   -5.3493 H   0  0  0  0  0  0  0  0  0  0  0  0
   -0.7418   -0.2017   -1.2698 N   0  0  0  0  0  0  0  0  0  0  0  0
   -0.0573    0.3665   -0.0906 C   0  0  2  0  0  0  0  0  0  0  0  0
   -0.9386    0.6008    1.1657 C   0  0  0  0  0  0  0  0  0  0  0  0
   -0.4879    1.1711    2.1554 O   0  0  0  0  0  0  0  0  0  0  0  0
    0.6404    1.6582   -0.5741 C   0  0  0  0  0  0  0  0  0  0  0  0
    1.7978    1.3507   -1.5211 C   0  0  0  0  0  0  0  0  0  0  0  0
    2.4098    0.2602   -1.3911 O   0  5  0  0  0  0  0  0  0  0  0  0
    1.9847    2.1591   -2.4607 O   0  0  0  0  0  0  0  0  0  0  0  0
   -0.1068   -0.7066   -1.8869 H   0  0  0  0  0  0  0  0  0  0  0  0
    0.7013   -0.3480    0.2448 H   0  0  0  0  0  0  0  0  0  0  0  0
    1.0589    2.1879    0.2854 H   0  0  0  0  0  0  0  0  0  0  0  0
   -0.0738    2.3297   -1.0583 H   0  0  0  0  0  0  0  0  0  0  0  0
   -2.1887    0.0198    1.2743 N   0  0  0  0  0  0  0  0  0  0  0  0
   -3.1191    0.2722    2.3803 C   0  0  2  0  0  0  0  0  0  0  0  0
   -4.1883   -0.8300    2.5345 C   0  0  0  0  0  0  0  0  0  0  0  0
   -4.5524   -1.5100    1.5809 O   0  0  0  0  0  0  0  0  0  0  0  0
   -3.7977    1.6252    2.1389 C   0  0  0  0  0  0  0  0  0  0  0  0
   -2.5992   -0.2498    0.3802 H   0  0  0  0  0  0  0  0  0  0  0  0
   -2.5579    0.3135    3.3193 H   0  0  0  0  0  0  0  0  0  0  0  0
   -4.3470    1.6116    1.1917 H   0  0  0  0  0  0  0  0  0  0  0  0
   -4.4981    1.8540    2.9472 H   0  0  0  0  0  0  0  0  0  0  0  0
   -3.0506    2.4238    2.0937 H   0  0  0  0  0  0  0  0  0  0  0  0
   -4.7832   -1.0358    3.7674 N   0  0  0  0  0  0  0  0  0  0  0  0
   -5.8065   -2.0442    4.0079 C   0  0  0  0  0  0  0  0  0  0  0  0
   -4.4493   -0.4739    4.5444 H   0  0  0  0  0  0  0  0  0  0  0  0
   -6.6835   -1.8570    3.3795 H   0  0  0  0  0  0  0  0  0  0  0  0
   -5.4188   -3.0438    3.7855 H   0  0  0  0  0  0  0  0  0  0  0  0
   -6.1204   -2.0199    5.0556 H   0  0  0  0  0  0  0  0  0  0  0  0
  1  2  2  0  0  0  0
  1  3  1  0  0  0  0
  1  7  1  0  0  0  0
  3  4  1  0  0  0  0
  3  5  1  0  0  0  0
  3  6  1  0  0  0  0
  7  8  1  0  0  0  0
  7 12  1  0  0  0  0
  8  9  1  0  0  0  0
  8 11  1  0  0  0  0
  8 13  1  0  0  0  0
  9 10  2  0  0  0  0
  9 17  1  0  0  0  0
 11 14  1  0  0  0  0
 11 15  1  0  0  0  0
 11 16  1  0  0  0  0
 17 18  1  0  0  0  0
 17 25  1  0  0  0  0
 18 19  1  0  0  0  0
 18 21  1  0  0  0  0
 18 26  1  0  0  0  0
 19 20  2  0  0  0  0
 19 29  1  0  0  0  0
 21 22  1  0  0  0  0
 21 27  1  0  0  0  0
 21 28  1  0  0  0  0
 22 23  1  0  0  0  0
 22 24  2  0  0  0  0
 29 30  1  0  0  0  0
 29 34  1  0  0  0  0
 30 31  1  0  0  0  0
 30 33  1  0  0  0  0
 30 35  1  0  0  0  0
 31 32  2  0  0  0  0
 31 39  1  0  0  0  0
 33 36  1  0  0  0  0
 33 37  1  0  0  0  0
 33 38  1  0  0  0  0
 39 40  1  0  0  0  0
 39 41  1  0  0  0  0
 40 42  1  0  0  0  0
 40 43  1  0  0  0  0
 40 44  1  0  0  0  0
M  CHG  1  23  -1
M  END
$$$$

  -OEChem-05262215553D

 44 43  0     1  0  0  0  0  0999 V2000
   -4.3563   -0.1558   -4.4288 C   0  0  0  0  0  0  0  0  0  0  0  0
   -4.0812   -1.2336   -4.9338 O   0  0  0  0  0  0  0  0  0  0  0  0
   -5.7595    0.4065   -4.5683 C   0  0  0  0  0  0  0  0  0  0  0  0
   -5.7346    1.3245   -5.1607 H   0  0  0  0  0  0  0  0  0  0  0  0
   -6.4096   -0.3187   -5.0658 H   0  0  0  0  0  0  0  0  0  0  0  0
   -6.1713    0.6295   -3.5808 H   0  0  0  0  0  0  0  0  0  0  0  0
   -3.4100    0.5568   -3.7253 N   0  0  0  0  0  0  0  0  0  0  0  0
   -2.1072    0.0214   -3.3068 C   0  0  2  0  0  0  0  0  0  0  0  0
   -1.8118    0.3671   -1.8317 C   0  0  0  0  0  0  0  0  0  0  0  0
   -2.5735    1.1086   -1.2179 O   0  0  0  0  0  0  0  0  0  0  0  0
   -1.0276    0.6113   -4.2196 C   0  0  0  0  0  0  0  0  0  0  0  0
   -3.7510    1.3485   -3.1813 H   0  0  0  0  0  0  0  0  0  0  0  0
   -2.0969   -1.0699   -3.3963 H   0  0  0  0  0  0  0  0  0  0  0  0
   -0.9840    1.7002   -4.1093 H   0  0  0  0  0  0  0  0  0  0  0  0
   -0.0433    0.2024   -3.9696 H   0  0  0  0  0  0  0  0  0  0  0  0
   -1.2434    0.3729   -5.2655 H   0  0  0  0  0  0  0  0  0  0  0  0
   -0.7109   -0.1880   -1.2042 N   0  0  0  0  0  0  0  0  0  0  0  0
    0.0062    0.4221   -0.0681 C   0  0  2  0  0  0  0  0  0  0  0  0
   -0.8648    0.6522    1.1948 C   0  0  0  0  0  0  0  0  0  0  0  0
   -0.5618    1.4720    2.0576 O   0  0  0  0  0  0  0  0  0  0  0  0
    0.6742    1.7089   -0.6053 C   0  0  0  0  0  0  0  0  0  0  0  0
    1.8036    1.3863   -1.5805 C   0  0  0  0  0  0  0  0  0  0  0  0
    2.4285    0.3041   -1.4402 O   0  5  0  0  0  0  0  0  0  0  0  0
    1.9532    2.1685   -2.5485 O   0  0  0  0  0  0  0  0  0  0  0  0
   -0.0909   -0.6852   -1.8427 H   0  0  0  0  0  0  0  0  0  0  0  0
    0.7841   -0.2723    0.2654 H   0  0  0  0  0  0  0  0  0  0  0  0
    1.1155    2.2639    0.2261 H   0  0  0  0  0  0  0  0  0  0  0  0
   -0.0619    2.3616   -1.0822 H   0  0  0  0  0  0  0  0  0  0  0  0
   -1.9254   -0.1966    1.4555 N   0  0  0  0  0  0  0  0  0  0  0  0
   -2.8931   -0.0025    2.5404 C   0  0  2  0  0  0  0  0  0  0  0  0
   -3.6584   -1.2943    2.8969 C   0  0  0  0  0  0  0  0  0  0  0  0
   -3.7838   -2.2068    2.0867 O   0  0  0  0  0  0  0  0  0  0  0  0
   -3.8820    1.0891    2.1154 C   0  0  0  0  0  0  0  0  0  0  0  0
   -2.2113   -0.7858    0.6766 H   0  0  0  0  0  0  0  0  0  0  0  0
   -2.3623    0.3226    3.4409 H   0  0  0  0  0  0  0  0  0  0  0  0
   -4.4056    0.7939    1.2003 H   0  0  0  0  0  0  0  0  0  0  0  0
   -4.6217    1.2655    2.9015 H   0  0  0  0  0  0  0  0  0  0  0  0
   -3.3534    2.0280    1.9224 H   0  0  0  0  0  0  0  0  0  0  0  0
   -4.2421   -1.4219    4.1453 N   0  0  0  0  0  0  0  0  0  0  0  0
   -4.9868   -2.6002    4.5678 C   0  0  0  0  0  0  0  0  0  0  0  0
   -4.1084   -0.6585    4.8015 H   0  0  0  0  0  0  0  0  0  0  0  0
   -5.8370   -2.7746    3.9002 H   0  0  0  0  0  0  0  0  0  0  0  0
   -4.3416   -3.4847    4.5579 H   0  0  0  0  0  0  0  0  0  0  0  0
   -5.3682   -2.4606    5.5836 H   0  0  0  0  0  0  0  0  0  0  0  0
  1  2  2  0  0  0  0
  1  3  1  0  0  0  0
  1  7  1  0  0  0  0
  3  4  1  0  0  0  0
  3  5  1  0  0  0  0
  3  6  1  0  0  0  0
  7  8  1  0  0  0  0
  7 12  1  0  0  0  0
  8  9  1  0  0  0  0
  8 11  1  0  0  0  0
  8 13  1  0  0  0  0
  9 10  2  0  0  0  0
  9 17  1  0  0  0  0
 11 14  1  0  0  0  0
 11 15  1  0  0  0  0
 11 16  1  0  0  0  0
 17 18  1  0  0  0  0
 17 25  1  0  0  0  0
 18 19  1  0  0  0  0
 18 21  1  0  0  0  0
 18 26  1  0  0  0  0
 19 20  2  0  0  0  0
 19 29  1  0  0  0  0
 21 22  1  0  0  0  0
 21 27  1  0  0  0  0
 21 28  1  0  0  0  0
 22 23  1  0  0  0  0
 22 24  2  0  0  0  0
 29 30  1  0  0  0  0
 29 34  1  0  0  0  0
 30 31  1  0  0  0  0
 30 33  1  0  0  0  0
 30 35  1  0  0  0  0
 31 32  2  0  0  0  0
 31 39  1  0  0  0  0
 33 36  1  0  0  0  0
 33 37  1  0  0  0  0
 33 38  1  0  0  0  0
 39 40  1  0  0  0  0
 39 41  1  0  0  0  0
 40 42  1  0  0  0  0
 40 43  1  0  0  0  0
 40 44  1  0  0  0  0
M  CHG  1  23  -1
M  END
$$$$

  -OEChem-05262215553D

 44 43  0     1  0  0  0  0  0999 V2000
   -4.4158   -0.1502   -4.2927 C   0  0  0  0  0  0  0  0  0  0  0  0
   -4.2089   -1.2704   -4.7342 O   0  0  0  0  0  0  0  0  0  0  0  0
   -5.7996    0.4627   -4.4083 C   0  0  0  0  0  0  0  0  0  0  0  0
   -5.7612    1.3510   -5.0436 H   0  0  0  0  0  0  0  0  0  0  0  0
   -6.4966   -0.2564   -4.8473 H   0  0  0  0  0  0  0  0  0  0  0  0
   -6.1646    0.7478   -3.4182 H   0  0  0  0  0  0  0  0  0  0  0  0
   -3.4121    0.5667   -3.6791 N   0  0  0  0  0  0  0  0  0  0  0  0
   -2.1283   -0.0053   -3.2505 C   0  0  2  0  0  0  0  0  0  0  0  0
   -1.8279    0.3419   -1.7760 C   0  0  0  0  0  0  0  0  0  0  0  0
   -2.5906    1.0777   -1.1567 O   0  0  0  0  0  0  0  0  0  0  0  0
   -1.0314    0.5465   -4.1668 C   0  0  0  0  0  0  0  0  0  0  0  0
   -3.7052    1.4001   -3.1710 H   0  0  0  0  0  0  0  0  0  0  0  0
   -2.1474   -1.0971   -3.3320 H   0  0  0  0  0  0  0  0  0  0  0  0
   -0.9608    1.6352   -4.0706 H   0  0  0  0  0  0  0  0  0  0  0  0
   -0.0576    0.1170   -3.9103 H   0  0  0  0  0  0  0  0  0  0  0  0
   -1.2503    0.3007   -5.2103 H   0  0  0  0  0  0  0  0  0  0  0  0
   -0.7144   -0.1996   -1.1592 N   0  0  0  0  0  0  0  0  0  0  0  0
    0.0210    0.4435   -0.0547 C   0  0  2  0  0  0  0  0  0  0  0  0
   -0.8464    0.6970    1.2043 C   0  0  0  0  0  0  0  0  0  0  0  0
   -0.7131    1.6883    1.9171 O   0  0  0  0  0  0  0  0  0  0  0  0
    0.6786    1.7158   -0.6377 C   0  0  0  0  0  0  0  0  0  0  0  0
    1.7921    1.3667   -1.6221 C   0  0  0  0  0  0  0  0  0  0  0  0
    2.4196    0.2886   -1.4613 O   0  5  0  0  0  0  0  0  0  0  0  0
    1.9252    2.1208   -2.6145 O   0  0  0  0  0  0  0  0  0  0  0  0
   -0.1013   -0.6963   -1.8041 H   0  0  0  0  0  0  0  0  0  0  0  0
    0.8067   -0.2369    0.2888 H   0  0  0  0  0  0  0  0  0  0  0  0
    1.1324    2.2930    0.1717 H   0  0  0  0  0  0  0  0  0  0  0  0
   -0.0666    2.3545   -1.1198 H   0  0  0  0  0  0  0  0  0  0  0  0
   -1.6799   -0.3127    1.6504 N   0  0  0  0  0  0  0  0  0  0  0  0
   -2.6438   -0.1645    2.7455 C   0  0  2  0  0  0  0  0  0  0  0  0
   -3.1071   -1.5209    3.3162 C   0  0  0  0  0  0  0  0  0  0  0  0
   -3.0481   -2.5465    2.6455 O   0  0  0  0  0  0  0  0  0  0  0  0
   -3.8511    0.6224    2.2232 C   0  0  0  0  0  0  0  0  0  0  0  0
   -1.8124   -1.0943    1.0125 H   0  0  0  0  0  0  0  0  0  0  0  0
   -2.1754    0.3932    3.5629 H   0  0  0  0  0  0  0  0  0  0  0  0
   -4.3228    0.0891    1.3914 H   0  0  0  0  0  0  0  0  0  0  0  0
   -4.5919    0.7618    3.0158 H   0  0  0  0  0  0  0  0  0  0  0  0
   -3.5376    1.6088    1.8667 H   0  0  0  0  0  0  0  0  0  0  0  0
   -3.6215   -1.5860    4.5992 N   0  0  0  0  0  0  0  0  0  0  0  0
   -4.0689   -2.8233    5.2240 C   0  0  0  0  0  0  0  0  0  0  0  0
   -3.6280   -0.7274    5.1415 H   0  0  0  0  0  0  0  0  0  0  0  0
   -4.8511   -3.2966    4.6213 H   0  0  0  0  0  0  0  0  0  0  0  0
   -3.2327   -3.5222    5.3297 H   0  0  0  0  0  0  0  0  0  0  0  0
   -4.4767   -2.6171    6.2180 H   0  0  0  0  0  0  0  0  0  0  0  0
  1  2  2  0  0  0  0
  1  3  1  0  0  0  0
  1  7  1  0  0  0  0
  3  4  1  0  0  0  0
  3  5  1  0  0  0  0
  3  6  1  0  0  0  0
  7  8  1  0  0  0  0
  7 12  1  0  0  0  0
  8  9  1  0  0  0  0
  8 11  1  0  0  0  0
  8 13  1  0  0  0  0
  9 10  2  0  0  0  0
  9 17  1  0  0  0  0
 11 14  1  0  0  0  0
 11 15  1  0  0  0  0
 11 16  1  0  0  0  0
 17 18  1  0  0  0  0
 17 25  1  0  0  0  0
 18 19  1  0  0  0  0
 18 21  1  0  0  0  0
 18 26  1  0  0  0  0
 19 20  2  0  0  0  0
 19 29  1  0  0  0  0
 21 22  1  0  0  0  0
 21 27  1  0  0  0  0
 21 28  1  0  0  0  0
 22 23  1  0  0  0  0
 22 24  2  0  0  0  0
 29 30  1  0  0  0  0
 29 34  1  0  0  0  0
 30 31  1  0  0  0  0
 30 33  1  0  0  0  0
 30 35  1  0  0  0  0
 31 32  2  0  0  0  0
 31 39  1  0  0  0  0
 33 36  1  0  0  0  0
 33 37  1  0  0  0  0
 33 38  1  0  0  0  0
 39 40  1  0  0  0  0
 39 41  1  0  0  0  0
 40 42  1  0  0  0  0
 40 43  1  0  0  0  0
 40 44  1  0  0  0  0
M  CHG  1  23  -1
M  END
$$$$

  -OEChem-05262215553D

 44 43  0     1  0  0  0  0  0999 V2000
   -4.4330   -0.1540   -4.2713 C   0  0  0  0  0  0  0  0  0  0  0  0
   -4.2234   -1.2703   -4.7218 O   0  0  0  0  0  0  0  0  0  0  0  0
   -5.8166    0.4597   -4.3859 C   0  0  0  0  0  0  0  0  0  0  0  0
   -5.7759    1.3542   -5.0122 H   0  0  0  0  0  0  0  0  0  0  0  0
   -6.5119   -0.2553   -4.8339 H   0  0  0  0  0  0  0  0  0  0  0  0
   -6.1848    0.7349   -3.3945 H   0  0  0  0  0  0  0  0  0  0  0  0
   -3.4324    0.5581   -3.6477 N   0  0  0  0  0  0  0  0  0  0  0  0
   -2.1479   -0.0142   -3.2231 C   0  0  2  0  0  0  0  0  0  0  0  0
   -1.8409    0.3461   -1.7531 C   0  0  0  0  0  0  0  0  0  0  0  0
   -2.6026    1.0874   -1.1395 O   0  0  0  0  0  0  0  0  0  0  0  0
   -1.0563    0.5244   -4.1532 C   0  0  0  0  0  0  0  0  0  0  0  0
   -3.7277    1.3848   -3.1294 H   0  0  0  0  0  0  0  0  0  0  0  0
   -2.1712   -1.1063   -3.2934 H   0  0  0  0  0  0  0  0  0  0  0  0
   -0.9799    1.6134   -4.0668 H   0  0  0  0  0  0  0  0  0  0  0  0
   -0.0824    0.0920   -3.9012 H   0  0  0  0  0  0  0  0  0  0  0  0
   -1.2861    0.2713   -5.1928 H   0  0  0  0  0  0  0  0  0  0  0  0
   -0.7352   -0.2032   -1.1301 N   0  0  0  0  0  0  0  0  0  0  0  0
    0.0113    0.4448   -0.0376 C   0  0  2  0  0  0  0  0  0  0  0  0
   -0.8554    0.7289    1.2150 C   0  0  0  0  0  0  0  0  0  0  0  0
   -0.8866    1.8203    1.7776 O   0  0  0  0  0  0  0  0  0  0  0  0
    0.6915    1.6949   -0.6415 C   0  0  0  0  0  0  0  0  0  0  0  0
    1.7989    1.3101   -1.6201 C   0  0  0  0  0  0  0  0  0  0  0  0
    2.4064    0.2236   -1.4401 O   0  5  0  0  0  0  0  0  0  0  0  0
    1.9492    2.0458   -2.6236 O   0  0  0  0  0  0  0  0  0  0  0  0
   -0.1300   -0.7150   -1.7703 H   0  0  0  0  0  0  0  0  0  0  0  0
    0.7873   -0.2405    0.3172 H   0  0  0  0  0  0  0  0  0  0  0  0
    1.1536    2.2773    0.1597 H   0  0  0  0  0  0  0  0  0  0  0  0
   -0.0425    2.3378   -1.1353 H   0  0  0  0  0  0  0  0  0  0  0  0
   -1.4566   -0.3409    1.8537 N   0  0  0  0  0  0  0  0  0  0  0  0
   -2.3668   -0.2201    2.9977 C   0  0  2  0  0  0  0  0  0  0  0  0
   -2.5169   -1.5443    3.7761 C   0  0  0  0  0  0  0  0  0  0  0  0
   -2.2842   -2.6231    3.2402 O   0  0  0  0  0  0  0  0  0  0  0  0
   -3.7341    0.2431    2.4807 C   0  0  0  0  0  0  0  0  0  0  0  0
   -1.4291   -1.2344    1.3677 H   0  0  0  0  0  0  0  0  0  0  0  0
   -1.9721    0.5275    3.6934 H   0  0  0  0  0  0  0  0  0  0  0  0
   -4.1435   -0.4879    1.7761 H   0  0  0  0  0  0  0  0  0  0  0  0
   -4.4383    0.3640    3.3090 H   0  0  0  0  0  0  0  0  0  0  0  0
   -3.6409    1.2045    1.9652 H   0  0  0  0  0  0  0  0  0  0  0  0
   -2.9373   -1.5256    5.0945 N   0  0  0  0  0  0  0  0  0  0  0  0
   -3.0738   -2.7243    5.9111 C   0  0  0  0  0  0  0  0  0  0  0  0
   -3.0944   -0.6168    5.5197 H   0  0  0  0  0  0  0  0  0  0  0  0
   -3.7887   -3.4183    5.4571 H   0  0  0  0  0  0  0  0  0  0  0  0
   -2.1076   -3.2292    6.0139 H   0  0  0  0  0  0  0  0  0  0  0  0
   -3.4350   -2.4612    6.9096 H   0  0  0  0  0  0  0  0  0  0  0  0
  1  2  2  0  0  0  0
  1  3  1  0  0  0  0
  1  7  1  0  0  0  0
  3  4  1  0  0  0  0
  3  5  1  0  0  0  0
  3  6  1  0  0  0  0
  7  8  1  0  0  0  0
  7 12  1  0  0  0  0
  8  9  1  0  0  0  0
  8 11  1  0  0  0  0
  8 13  1  0  0  0  0
  9 10  2  0  0  0  0
  9 17  1  0  0  0  0
 11 14  1  0  0  0  0
 11 15  1  0  0  0  0
 11 16  1  0  0  0  0
 17 18  1  0  0  0  0
 17 25  1  0  0  0  0
 18 19  1  0  0  0  0
 18 21  1  0  0  0  0
 18 26  1  0  0  0  0
 19 20  2  0  0  0  0
 19 29  1  0  0  0  0
 21 22  1  0  0  0  0
 21 27  1  0  0  0  0
 21 28  1  0  0  0  0
 22 23  1  0  0  0  0
 22 24  2  0  0  0  0
 29 30  1  0  0  0  0
 29 34  1  0  0  0  0
 30 31  1  0  0  0  0
 30 33  1  0  0  0  0
 30 35  1  0  0  0  0
 31 32  2  0  0  0  0
 31 39  1  0  0  0  0
 33 36  1  0  0  0  0
 33 37  1  0  0  0  0
 33 38  1  0  0  0  0
 39 40  1  0  0  0  0
 39 41  1  0  0  0  0
 40 42  1  0  0  0  0
 40 43  1  0  0  0  0
 40 44  1  0  0  0  0
M  CHG  1  23  -1
M  END
$$$$

  -OEChem-05262215553D

 44 43  0     1  0  0  0  0  0999 V2000
   -4.4421   -0.1786   -4.2743 C   0  0  0  0  0  0  0  0  0  0  0  0
   -4.2513   -1.3174   -4.6742 O   0  0  0  0  0  0  0  0  0  0  0  0
   -5.8195    0.4454   -4.4061 C   0  0  0  0  0  0  0  0  0  0  0  0
   -5.7714    1.3154   -5.0659 H   0  0  0  0  0  0  0  0  0  0  0  0
   -6.5244   -0.2785   -4.8244 H   0  0  0  0  0  0  0  0  0  0  0  0
   -6.1807    0.7617   -3.4241 H   0  0  0  0  0  0  0  0  0  0  0  0
   -3.4266    0.5514   -3.6965 N   0  0  0  0  0  0  0  0  0  0  0  0
   -2.1483   -0.0184   -3.2477 C   0  0  2  0  0  0  0  0  0  0  0  0
   -1.8724    0.3307   -1.7685 C   0  0  0  0  0  0  0  0  0  0  0  0
   -2.6453    1.0689   -1.1668 O   0  0  0  0  0  0  0  0  0  0  0  0
   -1.0401    0.5379   -4.1472 C   0  0  0  0  0  0  0  0  0  0  0  0
   -3.7128    1.4002   -3.2102 H   0  0  0  0  0  0  0  0  0  0  0  0
   -2.1612   -1.1100   -3.3303 H   0  0  0  0  0  0  0  0  0  0  0  0
   -0.9729    1.6262   -4.0463 H   0  0  0  0  0  0  0  0  0  0  0  0
   -0.0693    0.1092   -3.8786 H   0  0  0  0  0  0  0  0  0  0  0  0
   -1.2443    0.2949   -5.1944 H   0  0  0  0  0  0  0  0  0  0  0  0
   -0.7782   -0.2220   -1.1288 N   0  0  0  0  0  0  0  0  0  0  0  0
   -0.0355    0.4229   -0.0323 C   0  0  2  0  0  0  0  0  0  0  0  0
   -0.8985    0.7282    1.2185 C   0  0  0  0  0  0  0  0  0  0  0  0
   -1.0935    1.8664    1.6369 O   0  0  0  0  0  0  0  0  0  0  0  0
    0.6667    1.6632   -0.6308 C   0  0  0  0  0  0  0  0  0  0  0  0
    1.7812    1.2638   -1.5949 C   0  0  0  0  0  0  0  0  0  0  0  0
    2.3735    0.1708   -1.4049 O   0  5  0  0  0  0  0  0  0  0  0  0
    1.9596    1.9994   -2.5935 O   0  0  0  0  0  0  0  0  0  0  0  0
   -0.1707   -0.7422   -1.7599 H   0  0  0  0  0  0  0  0  0  0  0  0
    0.7309   -0.2708    0.3273 H   0  0  0  0  0  0  0  0  0  0  0  0
    1.1243    2.2420    0.1753 H   0  0  0  0  0  0  0  0  0  0  0  0
   -0.0541    2.3135   -1.1346 H   0  0  0  0  0  0  0  0  0  0  0  0
   -1.2554   -0.3219    2.0464 N   0  0  0  0  0  0  0  0  0  0  0  0
   -2.0616   -0.1843    3.2646 C   0  0  2  0  0  0  0  0  0  0  0  0
   -1.9004   -1.3840    4.2210 C   0  0  0  0  0  0  0  0  0  0  0  0
   -1.5153   -2.4738    3.8095 O   0  0  0  0  0  0  0  0  0  0  0  0
   -3.5316   -0.0310    2.8579 C   0  0  0  0  0  0  0  0  0  0  0  0
   -1.0580   -1.2631    1.7135 H   0  0  0  0  0  0  0  0  0  0  0  0
   -1.7420    0.7115    3.8069 H   0  0  0  0  0  0  0  0  0  0  0  0
   -3.8717   -0.9174    2.3131 H   0  0  0  0  0  0  0  0  0  0  0  0
   -4.1625    0.1008    3.7416 H   0  0  0  0  0  0  0  0  0  0  0  0
   -3.6587    0.8429    2.2106 H   0  0  0  0  0  0  0  0  0  0  0  0
   -2.2179   -1.2435    5.5604 N   0  0  0  0  0  0  0  0  0  0  0  0
   -2.0863   -2.3181    6.5349 C   0  0  0  0  0  0  0  0  0  0  0  0
   -2.5047   -0.3218    5.8762 H   0  0  0  0  0  0  0  0  0  0  0  0
   -2.6815   -3.1855    6.2314 H   0  0  0  0  0  0  0  0  0  0  0  0
   -1.0391   -2.6232    6.6286 H   0  0  0  0  0  0  0  0  0  0  0  0
   -2.4393   -1.9832    7.5147 H   0  0  0  0  0  0  0  0  0  0  0  0
  1  2  2  0  0  0  0
  1  3  1  0  0  0  0
  1  7  1  0  0  0  0
  3  4  1  0  0  0  0
  3  5  1  0  0  0  0
  3  6  1  0  0  0  0
  7  8  1  0  0  0  0
  7 12  1  0  0  0  0
  8  9  1  0  0  0  0
  8 11  1  0  0  0  0
  8 13  1  0  0  0  0
  9 10  2  0  0  0  0
  9 17  1  0  0  0  0
 11 14  1  0  0  0  0
 11 15  1  0  0  0  0
 11 16  1  0  0  0  0
 17 18  1  0  0  0  0
 17 25  1  0  0  0  0
 18 19  1  0  0  0  0
 18 21  1  0  0  0  0
 18 26  1  0  0  0  0
 19 20  2  0  0  0  0
 19 29  1  0  0  0  0
 21 22  1  0  0  0  0
 21 27  1  0  0  0  0
 21 28  1  0  0  0  0
 22 23  1  0  0  0  0
 22 24  2  0  0  0  0
 29 30  1  0  0  0  0
 29 34  1  0  0  0  0
 30 31  1  0  0  0  0
 30 33  1  0  0  0  0
 30 35  1  0  0  0  0
 31 32  2  0  0  0  0
 31 39  1  0  0  0  0
 33 36  1  0  0  0  0
 33 37  1  0  0  0  0
 33 38  1  0  0  0  0
 39 40  1  0  0  0  0
 39 41  1  0  0  0  0
 40 42  1  0  0  0  0
 40 43  1  0  0  0  0
 40 44  1  0  0  0  0
M  CHG  1  23  -1
M  END
$$$$

  -OEChem-05262215553D

 44 43  0     1  0  0  0  0  0999 V2000
   -4.4137   -0.2137   -4.3556 C   0  0  0  0  0  0  0  0  0  0  0  0
   -4.1815   -1.3404   -4.7679 O   0  0  0  0  0  0  0  0  0  0  0  0
   -5.8019    0.3775   -4.5204 C   0  0  0  0  0  0  0  0  0  0  0  0
   -5.7594    1.2467   -5.1812 H   0  0  0  0  0  0  0  0  0  0  0  0
   -6.4805   -0.3627   -4.9533 H   0  0  0  0  0  0  0  0  0  0  0  0
   -6.1924    0.6869   -3.5476 H   0  0  0  0  0  0  0  0  0  0  0  0
   -3.4356    0.5321   -3.7354 N   0  0  0  0  0  0  0  0  0  0  0  0
   -2.1534   -0.0102   -3.2651 C   0  0  2  0  0  0  0  0  0  0  0  0
   -1.9096    0.3439   -1.7816 C   0  0  0  0  0  0  0  0  0  0  0  0
   -2.6889    1.0954   -1.2069 O   0  0  0  0  0  0  0  0  0  0  0  0
   -1.0412    0.5691   -4.1446 C   0  0  0  0  0  0  0  0  0  0  0  0
   -3.7557    1.3659   -3.2437 H   0  0  0  0  0  0  0  0  0  0  0  0
   -2.1425   -1.1017   -3.3481 H   0  0  0  0  0  0  0  0  0  0  0  0
   -0.9975    1.6584   -4.0409 H   0  0  0  0  0  0  0  0  0  0  0  0
   -0.0673    0.1590   -3.8585 H   0  0  0  0  0  0  0  0  0  0  0  0
   -1.2223    0.3239   -5.1954 H   0  0  0  0  0  0  0  0  0  0  0  0
   -0.8435   -0.2273   -1.1117 N   0  0  0  0  0  0  0  0  0  0  0  0
   -0.1130    0.3963    0.0050 C   0  0  2  0  0  0  0  0  0  0  0  0
   -0.9781    0.7266    1.2493 C   0  0  0  0  0  0  0  0  0  0  0  0
   -1.3263    1.8676    1.5396 O   0  0  0  0  0  0  0  0  0  0  0  0
    0.6330    1.6208   -0.5714 C   0  0  0  0  0  0  0  0  0  0  0  0
    1.7621    1.2002   -1.5093 C   0  0  0  0  0  0  0  0  0  0  0  0
    2.3237    0.0929   -1.3079 O   0  5  0  0  0  0  0  0  0  0  0  0
    1.9881    1.9382   -2.4966 O   0  0  0  0  0  0  0  0  0  0  0  0
   -0.2335   -0.7651   -1.7250 H   0  0  0  0  0  0  0  0  0  0  0  0
    0.6302   -0.3187    0.3710 H   0  0  0  0  0  0  0  0  0  0  0  0
    1.0822    2.1865    0.2489 H   0  0  0  0  0  0  0  0  0  0  0  0
   -0.0605    2.2875   -1.0915 H   0  0  0  0  0  0  0  0  0  0  0  0
   -1.1105   -0.2366    2.2353 N   0  0  0  0  0  0  0  0  0  0  0  0
   -1.7877   -0.0336    3.5212 C   0  0  2  0  0  0  0  0  0  0  0  0
   -1.3416   -1.0548    4.5879 C   0  0  0  0  0  0  0  0  0  0  0  0
   -0.8492   -2.1303    4.2624 O   0  0  0  0  0  0  0  0  0  0  0  0
   -3.3003   -0.1338    3.2958 C   0  0  0  0  0  0  0  0  0  0  0  0
   -0.7368   -1.1631    2.0396 H   0  0  0  0  0  0  0  0  0  0  0  0
   -1.5449    0.9637    3.9021 H   0  0  0  0  0  0  0  0  0  0  0  0
   -3.5625   -1.1234    2.9085 H   0  0  0  0  0  0  0  0  0  0  0  0
   -3.8403    0.0306    4.2328 H   0  0  0  0  0  0  0  0  0  0  0  0
   -3.6280    0.6203    2.5726 H   0  0  0  0  0  0  0  0  0  0  0  0
   -1.5082   -0.7687    5.9316 N   0  0  0  0  0  0  0  0  0  0  0  0
   -1.0711   -1.6571    7.0003 C   0  0  0  0  0  0  0  0  0  0  0  0
   -1.8719    0.1493    6.1697 H   0  0  0  0  0  0  0  0  0  0  0  0
   -1.5330   -2.6440    6.8921 H   0  0  0  0  0  0  0  0  0  0  0  0
    0.0175   -1.7722    6.9792 H   0  0  0  0  0  0  0  0  0  0  0  0
   -1.3586   -1.2469    7.9730 H   0  0  0  0  0  0  0  0  0  0  0  0
  1  2  2  0  0  0  0
  1  3  1  0  0  0  0
  1  7  1  0  0  0  0
  3  4  1  0  0  0  0
  3  5  1  0  0  0  0
  3  6  1  0  0  0  0
  7  8  1  0  0  0  0
  7 12  1  0  0  0  0
  8  9  1  0  0  0  0
  8 11  1  0  0  0  0
  8 13  1  0  0  0  0
  9 10  2  0  0  0  0
  9 17  1  0  0  0  0
 11 14  1  0  0  0  0
 11 15  1  0  0  0  0
 11 16  1  0  0  0  0
 17 18  1  0  0  0  0
 17 25  1  0  0  0  0
 18 19  1  0  0  0  0
 18 21  1  0  0  0  0
 18 26  1  0  0  0  0
 19 20  2  0  0  0  0
 19 29  1  0  0  0  0
 21 22  1  0  0  0  0
 21 27  1  0  0  0  0
 21 28  1  0  0  0  0
 22 23  1  0  0  0  0
 22 24  2  0  0  0  0
 29 30  1  0  0  0  0
 29 34  1  0  0  0  0
 30 31  1  0  0  0  0
 30 33  1  0  0  0  0
 30 35  1  0  0  0  0
 31 32  2  0  0  0  0
 31 39  1  0  0  0  0
 33 36  1  0  0  0  0
 33 37  1  0  0  0  0
 33 38  1  0  0  0  0
 39 40  1  0  0  0  0
 39 41  1  0  0  0  0
 40 42  1  0  0  0  0
 40 43  1  0  0  0  0
 40 44  1  0  0  0  0
M  CHG  1  23  -1
M  END
$$$$

  -OEChem-05262215553D

 44 43  0     1  0  0  0  0  0999 V2000
   -4.4027   -0.2305   -4.3876 C   0  0  0  0  0  0  0  0  0  0  0  0
   -4.1710   -1.3589   -4.7951 O   0  0  0  0  0  0  0  0  0  0  0  0
   -5.7890    0.3627   -4.5589 C   0  0  0  0  0  0  0  0  0  0  0  0
   -5.7422    1.2316   -5.2197 H   0  0  0  0  0  0  0  0  0  0  0  0
   -6.4662   -0.3770   -4.9945 H   0  0  0  0  0  0  0  0  0  0  0  0
   -6.1837    0.6735   -3.5882 H   0  0  0  0  0  0  0  0  0  0  0  0
   -3.4255    0.5144   -3.7651 N   0  0  0  0  0  0  0  0  0  0  0  0
   -2.1576   -0.0371   -3.2671 C   0  0  2  0  0  0  0  0  0  0  0  0
   -1.9354    0.3419   -1.7864 C   0  0  0  0  0  0  0  0  0  0  0  0
   -2.7308    1.0954   -1.2390 O   0  0  0  0  0  0  0  0  0  0  0  0
   -1.0230    0.5113   -4.1377 C   0  0  0  0  0  0  0  0  0  0  0  0
   -3.7496    1.3465   -3.2725 H   0  0  0  0  0  0  0  0  0  0  0  0
   -2.1613   -1.1299   -3.3301 H   0  0  0  0  0  0  0  0  0  0  0  0
   -0.9649    1.6013   -4.0512 H   0  0  0  0  0  0  0  0  0  0  0  0
   -0.0600    0.0916   -3.8296 H   0  0  0  0  0  0  0  0  0  0  0  0
   -1.1916    0.2521   -5.1873 H   0  0  0  0  0  0  0  0  0  0  0  0
   -0.8744   -0.2150   -1.0965 N   0  0  0  0  0  0  0  0  0  0  0  0
   -0.1651    0.4000    0.0395 C   0  0  2  0  0  0  0  0  0  0  0  0
   -1.0276    0.7193    1.2897 C   0  0  0  0  0  0  0  0  0  0  0  0
   -1.5820    1.7998    1.4653 O   0  0  0  0  0  0  0  0  0  0  0  0
    0.5798    1.6391   -0.5047 C   0  0  0  0  0  0  0  0  0  0  0  0
    1.7282    1.2451   -1.4306 C   0  0  0  0  0  0  0  0  0  0  0  0
    2.2969    0.1398   -1.2383 O   0  5  0  0  0  0  0  0  0  0  0  0
    1.9719    2.0071   -2.3949 O   0  0  0  0  0  0  0  0  0  0  0  0
   -0.2535   -0.7527   -1.6985 H   0  0  0  0  0  0  0  0  0  0  0  0
    0.5794   -0.3176    0.3973 H   0  0  0  0  0  0  0  0  0  0  0  0
    1.0083    2.1962    0.3324 H   0  0  0  0  0  0  0  0  0  0  0  0
   -0.1108    2.3074   -1.0271 H   0  0  0  0  0  0  0  0  0  0  0  0
   -0.9125   -0.1000    2.4009 N   0  0  0  0  0  0  0  0  0  0  0  0
   -1.5237    0.1693    3.7084 C   0  0  2  0  0  0  0  0  0  0  0  0
   -0.8087   -0.5724    4.8558 C   0  0  0  0  0  0  0  0  0  0  0  0
   -0.1565   -1.5882    4.6380 O   0  0  0  0  0  0  0  0  0  0  0  0
   -2.9983   -0.2445    3.6535 C   0  0  0  0  0  0  0  0  0  0  0  0
   -0.3363   -0.9348    2.3126 H   0  0  0  0  0  0  0  0  0  0  0  0
   -1.4577    1.2410    3.9226 H   0  0  0  0  0  0  0  0  0  0  0  0
   -3.0872   -1.3113    3.4249 H   0  0  0  0  0  0  0  0  0  0  0  0
   -3.4870   -0.0501    4.6125 H   0  0  0  0  0  0  0  0  0  0  0  0
   -3.5237    0.3222    2.8779 H   0  0  0  0  0  0  0  0  0  0  0  0
   -0.9174   -0.1042    6.1532 N   0  0  0  0  0  0  0  0  0  0  0  0
   -0.2470   -0.7236    7.2885 C   0  0  0  0  0  0  0  0  0  0  0  0
   -1.4199    0.7675    6.2922 H   0  0  0  0  0  0  0  0  0  0  0  0
   -0.5446   -1.7730    7.3834 H   0  0  0  0  0  0  0  0  0  0  0  0
    0.8398   -0.6738    7.1647 H   0  0  0  0  0  0  0  0  0  0  0  0
   -0.5151   -0.2047    8.2137 H   0  0  0  0  0  0  0  0  0  0  0  0
  1  2  2  0  0  0  0
  1  3  1  0  0  0  0
  1  7  1  0  0  0  0
  3  4  1  0  0  0  0
  3  5  1  0  0  0  0
  3  6  1  0  0  0  0
  7  8  1  0  0  0  0
  7 12  1  0  0  0  0
  8  9  1  0  0  0  0
  8 11  1  0  0  0  0
  8 13  1  0  0  0  0
  9 10  2  0  0  0  0
  9 17  1  0  0  0  0
 11 14  1  0  0  0  0
 11 15  1  0  0  0  0
 11 16  1  0  0  0  0
 17 18  1  0  0  0  0
 17 25  1  0  0  0  0
 18 19  1  0  0  0  0
 18 21  1  0  0  0  0
 18 26  1  0  0  0  0
 19 20  2  0  0  0  0
 19 29  1  0  0  0  0
 21 22  1  0  0  0  0
 21 27  1  0  0  0  0
 21 28  1  0  0  0  0
 22 23  1  0  0  0  0
 22 24  2  0  0  0  0
 29 30  1  0  0  0  0
 29 34  1  0  0  0  0
 30 31  1  0  0  0  0
 30 33  1  0  0  0  0
 30 35  1  0  0  0  0
 31 32  2  0  0  0  0
 31 39  1  0  0  0  0
 33 36  1  0  0  0  0
 33 37  1  0  0  0  0
 33 38  1  0  0  0  0
 39 40  1  0  0  0  0
 39 41  1  0  0  0  0
 40 42  1  0  0  0  0
 40 43  1  0  0  0  0
 40 44  1  0  0  0  0
M  CHG  1  23  -1
M  END
$$$$

  -OEChem-05262215553D

 44 43  0     1  0  0  0  0  0999 V2000
   -4.3938   -0.2791   -4.4068 C   0  0  0  0  0  0  0  0  0  0  0  0
   -4.1650   -1.4313   -4.7442 O   0  0  0  0  0  0  0  0  0  0  0  0
   -5.7734    0.3121   -4.6329 C   0  0  0  0  0  0  0  0  0  0  0  0
   -5.7178    1.1148   -5.3724 H   0  0  0  0  0  0  0  0  0  0  0  0
   -6.4596   -0.4575   -4.9966 H   0  0  0  0  0  0  0  0  0  0  0  0
   -6.1636    0.7168   -3.6955 H   0  0  0  0  0  0  0  0  0  0  0  0
   -3.4195    0.4957   -3.8168 N   0  0  0  0  0  0  0  0  0  0  0  0
   -2.1605   -0.0326   -3.2736 C   0  0  2  0  0  0  0  0  0  0  0  0
   -1.9681    0.3904   -1.8004 C   0  0  0  0  0  0  0  0  0  0  0  0
   -2.7427    1.2043   -1.3156 O   0  0  0  0  0  0  0  0  0  0  0  0
   -1.0111    0.5017   -4.1337 C   0  0  0  0  0  0  0  0  0  0  0  0
   -3.7452    1.3550   -3.3749 H   0  0  0  0  0  0  0  0  0  0  0  0
   -2.1542   -1.1268   -3.3063 H   0  0  0  0  0  0  0  0  0  0  0  0
   -0.9690    1.5945   -4.0796 H   0  0  0  0  0  0  0  0  0  0  0  0
   -0.0511    0.1047   -3.7881 H   0  0  0  0  0  0  0  0  0  0  0  0
   -1.1499    0.2073   -5.1782 H   0  0  0  0  0  0  0  0  0  0  0  0
   -0.9254   -0.1652   -1.0808 N   0  0  0  0  0  0  0  0  0  0  0  0
   -0.2377    0.4144    0.0875 C   0  0  2  0  0  0  0  0  0  0  0  0
   -1.0874    0.7213    1.3509 C   0  0  0  0  0  0  0  0  0  0  0  0
   -1.8651    1.6642    1.4414 O   0  0  0  0  0  0  0  0  0  0  0  0
    0.5250    1.6616   -0.4072 C   0  0  0  0  0  0  0  0  0  0  0  0
    1.6923    1.2880   -1.3186 C   0  0  0  0  0  0  0  0  0  0  0  0
    2.2515    0.1749   -1.1435 O   0  5  0  0  0  0  0  0  0  0  0  0
    1.9705    2.0810   -2.2480 O   0  0  0  0  0  0  0  0  0  0  0  0
   -0.3059   -0.7280   -1.6599 H   0  0  0  0  0  0  0  0  0  0  0  0
    0.4934   -0.3249    0.4278 H   0  0  0  0  0  0  0  0  0  0  0  0
    0.9368    2.1943    0.4538 H   0  0  0  0  0  0  0  0  0  0  0  0
   -0.1521    2.3461   -0.9264 H   0  0  0  0  0  0  0  0  0  0  0  0
   -0.7569    0.0855    2.5374 N   0  0  0  0  0  0  0  0  0  0  0  0
   -1.3103    0.4251    3.8548 C   0  0  2  0  0  0  0  0  0  0  0  0
   -0.3643    0.0285    5.0064 C   0  0  0  0  0  0  0  0  0  0  0  0
    0.4707   -0.8572    4.8562 O   0  0  0  0  0  0  0  0  0  0  0  0
   -2.6590   -0.2834    4.0152 C   0  0  0  0  0  0  0  0  0  0  0  0
    0.0112   -0.5832    2.5122 H   0  0  0  0  0  0  0  0  0  0  0  0
   -1.4615    1.5079    3.9167 H   0  0  0  0  0  0  0  0  0  0  0  0
   -2.5290   -1.3685    3.9537 H   0  0  0  0  0  0  0  0  0  0  0  0
   -3.1078   -0.0384    4.9821 H   0  0  0  0  0  0  0  0  0  0  0  0
   -3.3489    0.0302    3.2253 H   0  0  0  0  0  0  0  0  0  0  0  0
   -0.4631    0.6634    6.2318 N   0  0  0  0  0  0  0  0  0  0  0  0
    0.4286    0.3885    7.3504 C   0  0  0  0  0  0  0  0  0  0  0  0
   -1.1211    1.4338    6.3038 H   0  0  0  0  0  0  0  0  0  0  0  0
    0.3624   -0.6644    7.6436 H   0  0  0  0  0  0  0  0  0  0  0  0
    1.4643    0.6162    7.0781 H   0  0  0  0  0  0  0  0  0  0  0  0
    0.1533    1.0045    8.2117 H   0  0  0  0  0  0  0  0  0  0  0  0
  1  2  2  0  0  0  0
  1  3  1  0  0  0  0
  1  7  1  0  0  0  0
  3  4  1  0  0  0  0
  3  5  1  0  0  0  0
  3  6  1  0  0  0  0
  7  8  1  0  0  0  0
  7 12  1  0  0  0  0
  8  9  1  0  0  0  0
  8 11  1  0  0  0  0
  8 13  1  0  0  0  0
  9 10  2  0  0  0  0
  9 17  1  0  0  0  0
 11 14  1  0  0  0  0
 11 15  1  0  0  0  0
 11 16  1  0  0  0  0
 17 18  1  0  0  0  0
 17 25  1  0  0  0  0
 18 19  1  0  0  0  0
 18 21  1  0  0  0  0
 18 26  1  0  0  0  0
 19 20  2  0  0  0  0
 19 29  1  0  0  0  0
 21 22  1  0  0  0  0
 21 27  1  0  0  0  0
 21 28  1  0  0  0  0
 22 23  1  0  0  0  0
 22 24  2  0  0  0  0
 29 30  1  0  0  0  0
 29 34  1  0  0  0  0
 30 31  1  0  0  0  0
 30 33  1  0  0  0  0
 30 35  1  0  0  0  0
 31 32  2  0  0  0  0
 31 39  1  0  0  0  0
 33 36  1  0  0  0  0
 33 37  1  0  0  0  0
 33 38  1  0  0  0  0
 39 40  1  0  0  0  0
 39 41  1  0  0  0  0
 40 42  1  0  0  0  0
 40 43  1  0  0  0  0
 40 44  1  0  0  0  0
M  CHG  1  23  -1
M  END
$$$$

  -OEChem-05262215553D

 44 43  0     1  0  0  0  0  0999 V2000
   -4.5955   -0.1666   -4.0905 C   0  0  0  0  0  0  0  0  0  0  0  0
   -4.5232   -1.3635   -4.3278 O   0  0  0  0  0  0  0  0  0  0  0  0
   -5.9118    0.5649   -4.2781 C   0  0  0  0  0  0  0  0  0  0  0  0
   -5.7808    1.3923   -4.9798 H   0  0  0  0  0  0  0  0  0  0  0  0
   -6.6708   -0.1160   -4.6725 H   0  0  0  0  0  0  0  0  0  0  0  0
   -6.2556    0.9611   -3.3191 H   0  0  0  0  0  0  0  0  0  0  0  0
   -3.4964    0.5317   -3.6432 N   0  0  0  0  0  0  0  0  0  0  0  0
   -2.2628   -0.0909   -3.1470 C   0  0  2  0  0  0  0  0  0  0  0  0
   -1.7697    0.6187   -1.8672 C   0  0  0  0  0  0  0  0  0  0  0  0
   -2.2742    1.6948   -1.5661 O   0  0  0  0  0  0  0  0  0  0  0  0
   -1.2039   -0.0144   -4.2506 C   0  0  0  0  0  0  0  0  0  0  0  0
   -3.6685    1.4752   -3.2935 H   0  0  0  0  0  0  0  0  0  0  0  0
   -2.4440   -1.1397   -2.8902 H   0  0  0  0  0  0  0  0  0  0  0  0
   -0.9830    1.0295   -4.4961 H   0  0  0  0  0  0  0  0  0  0  0  0
   -0.2757   -0.4970   -3.9291 H   0  0  0  0  0  0  0  0  0  0  0  0
   -1.5608   -0.5185   -5.1540 H   0  0  0  0  0  0  0  0  0  0  0  0
   -0.7337    0.0471   -1.1483 N   0  0  0  0  0  0  0  0  0  0  0  0
   -0.0410    0.5909    0.0331 C   0  0  2  0  0  0  0  0  0  0  0  0
   -0.8856    0.8757    1.3045 C   0  0  0  0  0  0  0  0  0  0  0  0
   -2.0522    1.2488    1.2981 O   0  0  0  0  0  0  0  0  0  0  0  0
    0.7956    1.8153   -0.3900 C   0  0  0  0  0  0  0  0  0  0  0  0
    1.9792    1.4195   -1.2723 C   0  0  0  0  0  0  0  0  0  0  0  0
    2.4811    0.2758   -1.1166 O   0  5  0  0  0  0  0  0  0  0  0  0
    2.3809    2.2611   -2.1094 O   0  0  0  0  0  0  0  0  0  0  0  0
   -0.2367   -0.6932   -1.6350 H   0  0  0  0  0  0  0  0  0  0  0  0
    0.6489   -0.1920    0.3615 H   0  0  0  0  0  0  0  0  0  0  0  0
    1.1982    2.3029    0.5010 H   0  0  0  0  0  0  0  0  0  0  0  0
    0.1708    2.5438   -0.9137 H   0  0  0  0  0  0  0  0  0  0  0  0
   -0.3792    0.4730    2.5300 N   0  0  0  0  0  0  0  0  0  0  0  0
   -1.0931    0.5945    3.8081 C   0  0  2  0  0  0  0  0  0  0  0  0
   -0.1420    0.8188    5.0004 C   0  0  0  0  0  0  0  0  0  0  0  0
    1.0027    0.3803    4.9810 O   0  0  0  0  0  0  0  0  0  0  0  0
   -1.9159   -0.6790    4.0230 C   0  0  0  0  0  0  0  0  0  0  0  0
    0.6028    0.2010    2.5627 H   0  0  0  0  0  0  0  0  0  0  0  0
   -1.7678    1.4565    3.7680 H   0  0  0  0  0  0  0  0  0  0  0  0
   -1.2607   -1.5550    4.0604 H   0  0  0  0  0  0  0  0  0  0  0  0
   -2.4751   -0.6200    4.9612 H   0  0  0  0  0  0  0  0  0  0  0  0
   -2.6292   -0.8119    3.2035 H   0  0  0  0  0  0  0  0  0  0  0  0
   -0.5897    1.4973    6.1199 N   0  0  0  0  0  0  0  0  0  0  0  0
    0.2547    1.7903    7.2701 C   0  0  0  0  0  0  0  0  0  0  0  0
   -1.5200    1.9026    6.0752 H   0  0  0  0  0  0  0  0  0  0  0  0
    0.6436    0.8640    7.7061 H   0  0  0  0  0  0  0  0  0  0  0  0
    1.0979    2.4234    6.9746 H   0  0  0  0  0  0  0  0  0  0  0  0
   -0.3224    2.3164    8.0364 H   0  0  0  0  0  0  0  0  0  0  0  0
  1  2  2  0  0  0  0
  1  3  1  0  0  0  0
  1  7  1  0  0  0  0
  3  4  1  0  0  0  0
  3  5  1  0  0  0  0
  3  6  1  0  0  0  0
  7  8  1  0  0  0  0
  7 12  1  0  0  0  0
  8  9  1  0  0  0  0
  8 11  1  0  0  0  0
  8 13  1  0  0  0  0
  9 10  2  0  0  0  0
  9 17  1  0  0  0  0
 11 14  1  0  0  0  0
 11 15  1  0  0  0  0
 11 16  1  0  0  0  0
 17 18  1  0  0  0  0
 17 25  1  0  0  0  0
 18 19  1  0  0  0  0
 18 21  1  0  0  0  0
 18 26  1  0  0  0  0
 19 20  2  0  0  0  0
 19 29  1  0  0  0  0
 21 22  1  0  0  0  0
 21 27  1  0  0  0  0
 21 28  1  0  0  0  0
 22 23  1  0  0  0  0
 22 24  2  0  0  0  0
 29 30  1  0  0  0  0
 29 34  1  0  0  0  0
 30 31  1  0  0  0  0
 30 33  1  0  0  0  0
 30 35  1  0  0  0  0
 31 32  2  0  0  0  0
 31 39  1  0  0  0  0
 33 36  1  0  0  0  0
 33 37  1  0  0  0  0
 33 38  1  0  0  0  0
 39 40  1  0  0  0  0
 39 41  1  0  0  0  0
 40 42  1  0  0  0  0
 40 43  1  0  0  0  0
 40 44  1  0  0  0  0
M  CHG  1  23  -1
M  END
$$$$

  -OEChem-05262215553D

 44 43  0     1  0  0  0  0  0999 V2000
   -4.6092   -0.1465   -4.0695 C   0  0  0  0  0  0  0  0  0  0  0  0
   -4.5267   -1.3354   -4.3411 O   0  0  0  0  0  0  0  0  0  0  0  0
   -5.9251    0.5846   -4.2644 C   0  0  0  0  0  0  0  0  0  0  0  0
   -5.7831    1.4326   -4.9386 H   0  0  0  0  0  0  0  0  0  0  0  0
   -6.6720   -0.0878   -4.6951 H   0  0  0  0  0  0  0  0  0  0  0  0
   -6.2921    0.9515   -3.3025 H   0  0  0  0  0  0  0  0  0  0  0  0
   -3.5204    0.5416   -3.5816 N   0  0  0  0  0  0  0  0  0  0  0  0
   -2.2802   -0.0880   -3.1114 C   0  0  2  0  0  0  0  0  0  0  0  0
   -1.7501    0.6162   -1.8434 C   0  0  0  0  0  0  0  0  0  0  0  0
   -2.2266    1.7033   -1.5303 O   0  0  0  0  0  0  0  0  0  0  0  0
   -1.2445   -0.0214   -4.2381 C   0  0  0  0  0  0  0  0  0  0  0  0
   -3.6943    1.4779   -3.2150 H   0  0  0  0  0  0  0  0  0  0  0  0
   -2.4657   -1.1349   -2.8496 H   0  0  0  0  0  0  0  0  0  0  0  0
   -1.0221    1.0203   -4.4918 H   0  0  0  0  0  0  0  0  0  0  0  0
   -0.3133   -0.5098   -3.9347 H   0  0  0  0  0  0  0  0  0  0  0  0
   -1.6237   -0.5266   -5.1315 H   0  0  0  0  0  0  0  0  0  0  0  0
   -0.7133    0.0291   -1.1382 N   0  0  0  0  0  0  0  0  0  0  0  0
   -0.0101    0.5823    0.0309 C   0  0  2  0  0  0  0  0  0  0  0  0
   -0.8585    0.8820    1.2948 C   0  0  0  0  0  0  0  0  0  0  0  0
   -2.0851    0.8943    1.3052 O   0  0  0  0  0  0  0  0  0  0  0  0
    0.8348    1.7980   -0.4045 C   0  0  0  0  0  0  0  0  0  0  0  0
    2.0125    1.3866   -1.2867 C   0  0  0  0  0  0  0  0  0  0  0  0
    2.5070    0.2411   -1.1240 O   0  5  0  0  0  0  0  0  0  0  0  0
    2.4176    2.2199   -2.1302 O   0  0  0  0  0  0  0  0  0  0  0  0
   -0.2379   -0.7301   -1.6166 H   0  0  0  0  0  0  0  0  0  0  0  0
    0.6734   -0.2012    0.3717 H   0  0  0  0  0  0  0  0  0  0  0  0
    1.2453    2.2898    0.4806 H   0  0  0  0  0  0  0  0  0  0  0  0
    0.2152    2.5274   -0.9325 H   0  0  0  0  0  0  0  0  0  0  0  0
   -0.2407    0.7885    2.5315 N   0  0  0  0  0  0  0  0  0  0  0  0
   -0.9280    0.9496    3.8197 C   0  0  2  0  0  0  0  0  0  0  0  0
   -0.0318    1.6027    4.8908 C   0  0  0  0  0  0  0  0  0  0  0  0
    1.1845    1.4509    4.8699 O   0  0  0  0  0  0  0  0  0  0  0  0
   -1.3974   -0.4292    4.2934 C   0  0  0  0  0  0  0  0  0  0  0  0
    0.7791    0.7780    2.5402 H   0  0  0  0  0  0  0  0  0  0  0  0
   -1.7991    1.6001    3.6884 H   0  0  0  0  0  0  0  0  0  0  0  0
   -0.5412   -1.0973    4.4296 H   0  0  0  0  0  0  0  0  0  0  0  0
   -1.9319   -0.3464    5.2444 H   0  0  0  0  0  0  0  0  0  0  0  0
   -2.0726   -0.8734    3.5552 H   0  0  0  0  0  0  0  0  0  0  0  0
   -0.6040    2.3430    5.9099 N   0  0  0  0  0  0  0  0  0  0  0  0
    0.1695    3.0048    6.9516 C   0  0  0  0  0  0  0  0  0  0  0  0
   -1.6072    2.4958    5.8669 H   0  0  0  0  0  0  0  0  0  0  0  0
    0.7326    2.2689    7.5349 H   0  0  0  0  0  0  0  0  0  0  0  0
    0.8719    3.7202    6.5115 H   0  0  0  0  0  0  0  0  0  0  0  0
   -0.4975    3.5464    7.6290 H   0  0  0  0  0  0  0  0  0  0  0  0
  1  2  2  0  0  0  0
  1  3  1  0  0  0  0
  1  7  1  0  0  0  0
  3  4  1  0  0  0  0
  3  5  1  0  0  0  0
  3  6  1  0  0  0  0
  7  8  1  0  0  0  0
  7 12  1  0  0  0  0
  8  9  1  0  0  0  0
  8 11  1  0  0  0  0
  8 13  1  0  0  0  0
  9 10  2  0  0  0  0
  9 17  1  0  0  0  0
 11 14  1  0  0  0  0
 11 15  1  0  0  0  0
 11 16  1  0  0  0  0
 17 18  1  0  0  0  0
 17 25  1  0  0  0  0
 18 19  1  0  0  0  0
 18 21  1  0  0  0  0
 18 26  1  0  0  0  0
 19 20  2  0  0  0  0
 19 29  1  0  0  0  0
 21 22  1  0  0  0  0
 21 27  1  0  0  0  0
 21 28  1  0  0  0  0
 22 23  1  0  0  0  0
 22 24  2  0  0  0  0
 29 30  1  0  0  0  0
 29 34  1  0  0  0  0
 30 31  1  0  0  0  0
 30 33  1  0  0  0  0
 30 35  1  0  0  0  0
 31 32  2  0  0  0  0
 31 39  1  0  0  0  0
 33 36  1  0  0  0  0
 33 37  1  0  0  0  0
 33 38  1  0  0  0  0
 39 40  1  0  0  0  0
 39 41  1  0  0  0  0
 40 42  1  0  0  0  0
 40 43  1  0  0  0  0
 40 44  1  0  0  0  0
M  CHG  1  23  -1
M  END
$$$$

  -OEChem-05262215553D

 44 43  0     1  0  0  0  0  0999 V2000
   -4.5929   -0.1227   -4.0796 C   0  0  0  0  0  0  0  0  0  0  0  0
   -4.4974   -1.2979   -4.4010 O   0  0  0  0  0  0  0  0  0  0  0  0
   -5.9106    0.6071   -4.2674 C   0  0  0  0  0  0  0  0  0  0  0  0
   -5.7724    1.4580   -4.9390 H   0  0  0  0  0  0  0  0  0  0  0  0
   -6.6572   -0.0655   -4.6986 H   0  0  0  0  0  0  0  0  0  0  0  0
   -6.2763    0.9691   -3.3030 H   0  0  0  0  0  0  0  0  0  0  0  0
   -3.5177    0.5502   -3.5437 N   0  0  0  0  0  0  0  0  0  0  0  0
   -2.2775   -0.0897   -3.0887 C   0  0  2  0  0  0  0  0  0  0  0  0
   -1.7649    0.5680   -1.7898 C   0  0  0  0  0  0  0  0  0  0  0  0
   -2.2564    1.6356   -1.4319 O   0  0  0  0  0  0  0  0  0  0  0  0
   -1.2328    0.0335   -4.2024 C   0  0  0  0  0  0  0  0  0  0  0  0
   -3.7026    1.4694   -3.1411 H   0  0  0  0  0  0  0  0  0  0  0  0
   -2.4559   -1.1481   -2.8714 H   0  0  0  0  0  0  0  0  0  0  0  0
   -1.0233    1.0870   -4.4142 H   0  0  0  0  0  0  0  0  0  0  0  0
   -0.2964   -0.4513   -3.9096 H   0  0  0  0  0  0  0  0  0  0  0  0
   -1.5970   -0.4425   -5.1179 H   0  0  0  0  0  0  0  0  0  0  0  0
   -0.7247   -0.0303   -1.1001 N   0  0  0  0  0  0  0  0  0  0  0  0
    0.0011    0.5433    0.0440 C   0  0  2  0  0  0  0  0  0  0  0  0
   -0.8434    0.8750    1.3017 C   0  0  0  0  0  0  0  0  0  0  0  0
   -2.0396    0.6115    1.3903 O   0  0  0  0  0  0  0  0  0  0  0  0
    0.8396    1.7453   -0.4454 C   0  0  0  0  0  0  0  0  0  0  0  0
    1.9944    1.3037   -1.3430 C   0  0  0  0  0  0  0  0  0  0  0  0
    2.4893    0.1616   -1.1604 O   0  5  0  0  0  0  0  0  0  0  0  0
    2.3735    2.1078   -2.2262 O   0  0  0  0  0  0  0  0  0  0  0  0
   -0.2443   -0.7761   -1.5947 H   0  0  0  0  0  0  0  0  0  0  0  0
    0.6875   -0.2301    0.4022 H   0  0  0  0  0  0  0  0  0  0  0  0
    1.2731    2.2646    0.4125 H   0  0  0  0  0  0  0  0  0  0  0  0
    0.2107    2.4611   -0.9813 H   0  0  0  0  0  0  0  0  0  0  0  0
   -0.1804    1.1173    2.4932 N   0  0  0  0  0  0  0  0  0  0  0  0
   -0.8419    1.3420    3.7848 C   0  0  2  0  0  0  0  0  0  0  0  0
   -0.0844    2.3567    4.6653 C   0  0  0  0  0  0  0  0  0  0  0  0
    1.1295    2.4942    4.5618 O   0  0  0  0  0  0  0  0  0  0  0  0
   -0.9587   -0.0037    4.5060 C   0  0  0  0  0  0  0  0  0  0  0  0
    0.8142    1.3325    2.4299 H   0  0  0  0  0  0  0  0  0  0  0  0
   -1.8447    1.7469    3.6147 H   0  0  0  0  0  0  0  0  0  0  0  0
    0.0344   -0.4272    4.6872 H   0  0  0  0  0  0  0  0  0  0  0  0
   -1.4676    0.1184    5.4666 H   0  0  0  0  0  0  0  0  0  0  0  0
   -1.5330   -0.7098    3.8980 H   0  0  0  0  0  0  0  0  0  0  0  0
   -0.7709    3.1072    5.6034 N   0  0  0  0  0  0  0  0  0  0  0  0
   -0.1350    4.1169    6.4392 C   0  0  0  0  0  0  0  0  0  0  0  0
   -1.7827    3.0209    5.6173 H   0  0  0  0  0  0  0  0  0  0  0  0
    0.6652    3.6700    7.0382 H   0  0  0  0  0  0  0  0  0  0  0  0
    0.2902    4.9133    5.8196 H   0  0  0  0  0  0  0  0  0  0  0  0
   -0.8680    4.5598    7.1198 H   0  0  0  0  0  0  0  0  0  0  0  0
  1  2  2  0  0  0  0
  1  3  1  0  0  0  0
  1  7  1  0  0  0  0
  3  4  1  0  0  0  0
  3  5  1  0  0  0  0
  3  6  1  0  0  0  0
  7  8  1  0  0  0  0
  7 12  1  0  0  0  0
  8  9  1  0  0  0  0
  8 11  1  0  0  0  0
  8 13  1  0  0  0  0
  9 10  2  0  0  0  0
  9 17  1  0  0  0  0
 11 14  1  0  0  0  0
 11 15  1  0  0  0  0
 11 16  1  0  0  0  0
 17 18  1  0  0  0  0
 17 25  1  0  0  0  0
 18 19  1  0  0  0  0
 18 21  1  0  0  0  0
 18 26  1  0  0  0  0
 19 20  2  0  0  0  0
 19 29  1  0  0  0  0
 21 22  1  0  0  0  0
 21 27  1  0  0  0  0
 21 28  1  0  0  0  0
 22 23  1  0  0  0  0
 22 24  2  0  0  0  0
 29 30  1  0  0  0  0
 29 34  1  0  0  0  0
 30 31  1  0  0  0  0
 30 33  1  0  0  0  0
 30 35  1  0  0  0  0
 31 32  2  0  0  0  0
 31 39  1  0  0  0  0
 33 36  1  0  0  0  0
 33 37  1  0  0  0  0
 33 38  1  0  0  0  0
 39 40  1  0  0  0  0
 39 41  1  0  0  0  0
 40 42  1  0  0  0  0
 40 43  1  0  0  0  0
 40 44  1  0  0  0  0
M  CHG  1  23  -1
M  END
$$$$

  -OEChem-05262215553D

 44 43  0     1  0  0  0  0  0999 V2000
   -4.5538   -0.0820   -4.1371 C   0  0  0  0  0  0  0  0  0  0  0  0
   -4.3806   -1.1975   -4.6052 O   0  0  0  0  0  0  0  0  0  0  0  0
   -5.9086    0.5901   -4.2667 C   0  0  0  0  0  0  0  0  0  0  0  0
   -5.8153    1.5036   -4.8589 H   0  0  0  0  0  0  0  0  0  0  0  0
   -6.6185   -0.0799   -4.7591 H   0  0  0  0  0  0  0  0  0  0  0  0
   -6.2935    0.8451   -3.2761 H   0  0  0  0  0  0  0  0  0  0  0  0
   -3.5360    0.5749   -3.4821 N   0  0  0  0  0  0  0  0  0  0  0  0
   -2.2731   -0.0484   -3.0659 C   0  0  2  0  0  0  0  0  0  0  0  0
   -1.8702    0.4129   -1.6485 C   0  0  0  0  0  0  0  0  0  0  0  0
   -2.5052    1.3154   -1.1068 O   0  0  0  0  0  0  0  0  0  0  0  0
   -1.1890    0.3319   -4.0796 C   0  0  0  0  0  0  0  0  0  0  0  0
   -3.7919    1.4172   -2.9669 H   0  0  0  0  0  0  0  0  0  0  0  0
   -2.3782   -1.1380   -3.0386 H   0  0  0  0  0  0  0  0  0  0  0  0
   -1.0396    1.4168   -4.0928 H   0  0  0  0  0  0  0  0  0  0  0  0
   -0.2362   -0.1416   -3.8231 H   0  0  0  0  0  0  0  0  0  0  0  0
   -1.4768    0.0052   -5.0835 H   0  0  0  0  0  0  0  0  0  0  0  0
   -0.7948   -0.1896   -1.0209 N   0  0  0  0  0  0  0  0  0  0  0  0
   -0.0057    0.4304    0.0563 C   0  0  2  0  0  0  0  0  0  0  0  0
   -0.7164    0.4628    1.4328 C   0  0  0  0  0  0  0  0  0  0  0  0
   -1.7167   -0.2116    1.6656 O   0  0  0  0  0  0  0  0  0  0  0  0
    0.5509    1.8005   -0.4056 C   0  0  0  0  0  0  0  0  0  0  0  0
    1.6178    1.6377   -1.4874 C   0  0  0  0  0  0  0  0  0  0  0  0
    2.3086    0.5867   -1.4943 O   0  5  0  0  0  0  0  0  0  0  0  0
    1.7111    2.5524   -2.3385 O   0  0  0  0  0  0  0  0  0  0  0  0
   -0.2665   -0.8183   -1.6187 H   0  0  0  0  0  0  0  0  0  0  0  0
    0.8482   -0.2280    0.2428 H   0  0  0  0  0  0  0  0  0  0  0  0
    1.0267    2.3061    0.4372 H   0  0  0  0  0  0  0  0  0  0  0  0
   -0.2467    2.4534   -0.7669 H   0  0  0  0  0  0  0  0  0  0  0  0
   -0.0713    1.0248    2.5217 N   0  0  0  0  0  0  0  0  0  0  0  0
   -0.6187    1.0640    3.8839 C   0  0  2  0  0  0  0  0  0  0  0  0
   -0.2329    2.3514    4.6407 C   0  0  0  0  0  0  0  0  0  0  0  0
    0.7911    2.9635    4.3584 O   0  0  0  0  0  0  0  0  0  0  0  0
   -0.1118   -0.1674    4.6398 C   0  0  0  0  0  0  0  0  0  0  0  0
    0.7389    1.6110    2.3231 H   0  0  0  0  0  0  0  0  0  0  0  0
   -1.7124    1.0333    3.8382 H   0  0  0  0  0  0  0  0  0  0  0  0
    0.9813   -0.1559    4.6979 H   0  0  0  0  0  0  0  0  0  0  0  0
   -0.5160   -0.1875    5.6562 H   0  0  0  0  0  0  0  0  0  0  0  0
   -0.4239   -1.0818    4.1253 H   0  0  0  0  0  0  0  0  0  0  0  0
   -1.0324    2.8129    5.6716 N   0  0  0  0  0  0  0  0  0  0  0  0
   -0.7634    4.0437    6.4034 C   0  0  0  0  0  0  0  0  0  0  0  0
   -1.9029    2.3180    5.8414 H   0  0  0  0  0  0  0  0  0  0  0  0
    0.2123    3.9905    6.8973 H   0  0  0  0  0  0  0  0  0  0  0  0
   -0.7688    4.9020    5.7238 H   0  0  0  0  0  0  0  0  0  0  0  0
   -1.5292    4.2031    7.1682 H   0  0  0  0  0  0  0  0  0  0  0  0
  1  2  2  0  0  0  0
  1  3  1  0  0  0  0
  1  7  1  0  0  0  0
  3  4  1  0  0  0  0
  3  5  1  0  0  0  0
  3  6  1  0  0  0  0
  7  8  1  0  0  0  0
  7 12  1  0  0  0  0
  8  9  1  0  0  0  0
  8 11  1  0  0  0  0
  8 13  1  0  0  0  0
  9 10  2  0  0  0  0
  9 17  1  0  0  0  0
 11 14  1  0  0  0  0
 11 15  1  0  0  0  0
 11 16  1  0  0  0  0
 17 18  1  0  0  0  0
 17 25  1  0  0  0  0
 18 19  1  0  0  0  0
 18 21  1  0  0  0  0
 18 26  1  0  0  0  0
 19 20  2  0  0  0  0
 19 29  1  0  0  0  0
 21 22  1  0  0  0  0
 21 27  1  0  0  0  0
 21 28  1  0  0  0  0
 22 23  1  0  0  0  0
 22 24  2  0  0  0  0
 29 30  1  0  0  0  0
 29 34  1  0  0  0  0
 30 31  1  0  0  0  0
 30 33  1  0  0  0  0
 30 35  1  0  0  0  0
 31 32  2  0  0  0  0
 31 39  1  0  0  0  0
 33 36  1  0  0  0  0
 33 37  1  0  0  0  0
 33 38  1  0  0  0  0
 39 40  1  0  0  0  0
 39 41  1  0  0  0  0
 40 42  1  0  0  0  0
 40 43  1  0  0  0  0
 40 44  1  0  0  0  0
M  CHG  1  23  -1
M  END
$$$$

  -OEChem-05262215553D

 44 43  0     1  0  0  0  0  0999 V2000
   -4.5486   -0.0848   -4.0838 C   0  0  0  0  0  0  0  0  0  0  0  0
   -4.3933   -1.2109   -4.5325 O   0  0  0  0  0  0  0  0  0  0  0  0
   -5.8947    0.6028   -4.2210 C   0  0  0  0  0  0  0  0  0  0  0  0
   -5.7839    1.5279   -4.7919 H   0  0  0  0  0  0  0  0  0  0  0  0
   -6.6022   -0.0500   -4.7394 H   0  0  0  0  0  0  0  0  0  0  0  0
   -6.2934    0.8396   -3.2314 H   0  0  0  0  0  0  0  0  0  0  0  0
   -3.5187    0.5698   -3.4454 N   0  0  0  0  0  0  0  0  0  0  0  0
   -2.2622   -0.0654   -3.0272 C   0  0  2  0  0  0  0  0  0  0  0  0
   -1.8486    0.3969   -1.6133 C   0  0  0  0  0  0  0  0  0  0  0  0
   -2.4917    1.2826   -1.0526 O   0  0  0  0  0  0  0  0  0  0  0  0
   -1.1777    0.2952   -4.0481 C   0  0  0  0  0  0  0  0  0  0  0  0
   -3.7600    1.4253   -2.9457 H   0  0  0  0  0  0  0  0  0  0  0  0
   -2.3798   -1.1536   -2.9936 H   0  0  0  0  0  0  0  0  0  0  0  0
   -1.0103    1.3773   -4.0642 H   0  0  0  0  0  0  0  0  0  0  0  0
   -0.2312   -0.1940   -3.7975 H   0  0  0  0  0  0  0  0  0  0  0  0
   -1.4775   -0.0277   -5.0495 H   0  0  0  0  0  0  0  0  0  0  0  0
   -0.7561   -0.1896   -1.0013 N   0  0  0  0  0  0  0  0  0  0  0  0
    0.0506    0.4578    0.0457 C   0  0  2  0  0  0  0  0  0  0  0  0
   -0.6549    0.4984    1.4256 C   0  0  0  0  0  0  0  0  0  0  0  0
   -1.4942   -0.3434    1.7374 O   0  0  0  0  0  0  0  0  0  0  0  0
    0.5757    1.8260   -0.4599 C   0  0  0  0  0  0  0  0  0  0  0  0
    1.6153    1.6540   -1.5665 C   0  0  0  0  0  0  0  0  0  0  0  0
    2.3206    0.6130   -1.5714 O   0  5  0  0  0  0  0  0  0  0  0  0
    1.6674    2.5494   -2.4414 O   0  0  0  0  0  0  0  0  0  0  0  0
   -0.2306   -0.8153   -1.6053 H   0  0  0  0  0  0  0  0  0  0  0  0
    0.9183   -0.1823    0.2322 H   0  0  0  0  0  0  0  0  0  0  0  0
    1.0730    2.3537    0.3560 H   0  0  0  0  0  0  0  0  0  0  0  0
   -0.2397    2.4627   -0.8103 H   0  0  0  0  0  0  0  0  0  0  0  0
   -0.1905    1.3287    2.4320 N   0  0  0  0  0  0  0  0  0  0  0  0
   -0.7923    1.4277    3.7678 C   0  0  2  0  0  0  0  0  0  0  0  0
   -0.6996    2.8518    4.3533 C   0  0  0  0  0  0  0  0  0  0  0  0
    0.2175    3.6023    4.0392 O   0  0  0  0  0  0  0  0  0  0  0  0
   -0.0894    0.4276    4.6905 C   0  0  0  0  0  0  0  0  0  0  0  0
    0.4666    2.0576    2.1568 H   0  0  0  0  0  0  0  0  0  0  0  0
   -1.8556    1.1734    3.7057 H   0  0  0  0  0  0  0  0  0  0  0  0
    0.9767    0.6634    4.7676 H   0  0  0  0  0  0  0  0  0  0  0  0
   -0.5280    0.4566    5.6921 H   0  0  0  0  0  0  0  0  0  0  0  0
   -0.1942   -0.5883    4.2968 H   0  0  0  0  0  0  0  0  0  0  0  0
   -1.6445    3.2865    5.2662 N   0  0  0  0  0  0  0  0  0  0  0  0
   -1.6590    4.6329    5.8225 C   0  0  0  0  0  0  0  0  0  0  0  0
   -2.4280    2.6680    5.4528 H   0  0  0  0  0  0  0  0  0  0  0  0
   -0.7297    4.8334    6.3658 H   0  0  0  0  0  0  0  0  0  0  0  0
   -1.7696    5.3755    5.0253 H   0  0  0  0  0  0  0  0  0  0  0  0
   -2.4960    4.7442    6.5185 H   0  0  0  0  0  0  0  0  0  0  0  0
  1  2  2  0  0  0  0
  1  3  1  0  0  0  0
  1  7  1  0  0  0  0
  3  4  1  0  0  0  0
  3  5  1  0  0  0  0
  3  6  1  0  0  0  0
  7  8  1  0  0  0  0
  7 12  1  0  0  0  0
  8  9  1  0  0  0  0
  8 11  1  0  0  0  0
  8 13  1  0  0  0  0
  9 10  2  0  0  0  0
  9 17  1  0  0  0  0
 11 14  1  0  0  0  0
 11 15  1  0  0  0  0
 11 16  1  0  0  0  0
 17 18  1  0  0  0  0
 17 25  1  0  0  0  0
 18 19  1  0  0  0  0
 18 21  1  0  0  0  0
 18 26  1  0  0  0  0
 19 20  2  0  0  0  0
 19 29  1  0  0  0  0
 21 22  1  0  0  0  0
 21 27  1  0  0  0  0
 21 28  1  0  0  0  0
 22 23  1  0  0  0  0
 22 24  2  0  0  0  0
 29 30  1  0  0  0  0
 29 34  1  0  0  0  0
 30 31  1  0  0  0  0
 30 33  1  0  0  0  0
 30 35  1  0  0  0  0
 31 32  2  0  0  0  0
 31 39  1  0  0  0  0
 33 36  1  0  0  0  0
 33 37  1  0  0  0  0
 33 38  1  0  0  0  0
 39 40  1  0  0  0  0
 39 41  1  0  0  0  0
 40 42  1  0  0  0  0
 40 43  1  0  0  0  0
 40 44  1  0  0  0  0
M  CHG  1  23  -1
M  END
$$$$

  -OEChem-05262215553D

 44 43  0     1  0  0  0  0  0999 V2000
   -4.5412   -0.0828   -4.0493 C   0  0  0  0  0  0  0  0  0  0  0  0
   -4.3928   -1.2086   -4.5009 O   0  0  0  0  0  0  0  0  0  0  0  0
   -5.8797    0.6180   -4.1919 C   0  0  0  0  0  0  0  0  0  0  0  0
   -5.7566    1.5405   -4.7647 H   0  0  0  0  0  0  0  0  0  0  0  0
   -6.5921   -0.0286   -4.7113 H   0  0  0  0  0  0  0  0  0  0  0  0
   -6.2787    0.8615   -3.2041 H   0  0  0  0  0  0  0  0  0  0  0  0
   -3.5102    0.5625   -3.4033 N   0  0  0  0  0  0  0  0  0  0  0  0
   -2.2518   -0.0752   -2.9957 C   0  0  2  0  0  0  0  0  0  0  0  0
   -1.8316    0.3764   -1.5804 C   0  0  0  0  0  0  0  0  0  0  0  0
   -2.4805    1.2460   -1.0019 O   0  0  0  0  0  0  0  0  0  0  0  0
   -1.1725    0.2976   -4.0177 C   0  0  0  0  0  0  0  0  0  0  0  0
   -3.7484    1.4167   -2.9002 H   0  0  0  0  0  0  0  0  0  0  0  0
   -2.3685   -1.1637   -2.9720 H   0  0  0  0  0  0  0  0  0  0  0  0
   -1.0096    1.3807   -4.0256 H   0  0  0  0  0  0  0  0  0  0  0  0
   -0.2228   -0.1895   -3.7746 H   0  0  0  0  0  0  0  0  0  0  0  0
   -1.4747   -0.0184   -5.0208 H   0  0  0  0  0  0  0  0  0  0  0  0
   -0.7296   -0.2000   -0.9774 N   0  0  0  0  0  0  0  0  0  0  0  0
    0.0897    0.4740    0.0423 C   0  0  2  0  0  0  0  0  0  0  0  0
   -0.6110    0.5344    1.4230 C   0  0  0  0  0  0  0  0  0  0  0  0
   -1.2673   -0.4193    1.8360 O   0  0  0  0  0  0  0  0  0  0  0  0
    0.6009    1.8340   -0.5002 C   0  0  0  0  0  0  0  0  0  0  0  0
    1.6239    1.6419   -1.6184 C   0  0  0  0  0  0  0  0  0  0  0  0
    2.3335    0.6040   -1.6124 O   0  5  0  0  0  0  0  0  0  0  0  0
    1.6553    2.5173   -2.5142 O   0  0  0  0  0  0  0  0  0  0  0  0
   -0.2043   -0.8218   -1.5857 H   0  0  0  0  0  0  0  0  0  0  0  0
    0.9637   -0.1556    0.2354 H   0  0  0  0  0  0  0  0  0  0  0  0
    1.1117    2.3788    0.2964 H   0  0  0  0  0  0  0  0  0  0  0  0
   -0.2229    2.4605   -0.8502 H   0  0  0  0  0  0  0  0  0  0  0  0
   -0.3694    1.5742    2.3041 N   0  0  0  0  0  0  0  0  0  0  0  0
   -1.0386    1.7287    3.6010 C   0  0  2  0  0  0  0  0  0  0  0  0
   -1.2601    3.2077    3.9776 C   0  0  0  0  0  0  0  0  0  0  0  0
   -0.4917    4.0792    3.5863 O   0  0  0  0  0  0  0  0  0  0  0  0
   -0.1919    1.0317    4.6694 C   0  0  0  0  0  0  0  0  0  0  0  0
    0.1060    2.3907    1.9214 H   0  0  0  0  0  0  0  0  0  0  0  0
   -2.0251    1.2555    3.5586 H   0  0  0  0  0  0  0  0  0  0  0  0
    0.7998    1.4912    4.7301 H   0  0  0  0  0  0  0  0  0  0  0  0
   -0.6734    1.1070    5.6487 H   0  0  0  0  0  0  0  0  0  0  0  0
   -0.0704   -0.0281    4.4244 H   0  0  0  0  0  0  0  0  0  0  0  0
   -2.3211    3.5595    4.7931 N   0  0  0  0  0  0  0  0  0  0  0  0
   -2.6345    4.9374    5.1469 C   0  0  0  0  0  0  0  0  0  0  0  0
   -2.9792    2.8261    5.0383 H   0  0  0  0  0  0  0  0  0  0  0  0
   -1.7940    5.3975    5.6766 H   0  0  0  0  0  0  0  0  0  0  0  0
   -2.8496    5.5241    4.2477 H   0  0  0  0  0  0  0  0  0  0  0  0
   -3.5123    4.9684    5.7992 H   0  0  0  0  0  0  0  0  0  0  0  0
  1  2  2  0  0  0  0
  1  3  1  0  0  0  0
  1  7  1  0  0  0  0
  3  4  1  0  0  0  0
  3  5  1  0  0  0  0
  3  6  1  0  0  0  0
  7  8  1  0  0  0  0
  7 12  1  0  0  0  0
  8  9  1  0  0  0  0
  8 11  1  0  0  0  0
  8 13  1  0  0  0  0
  9 10  2  0  0  0  0
  9 17  1  0  0  0  0
 11 14  1  0  0  0  0
 11 15  1  0  0  0  0
 11 16  1  0  0  0  0
 17 18  1  0  0  0  0
 17 25  1  0  0  0  0
 18 19  1  0  0  0  0
 18 21  1  0  0  0  0
 18 26  1  0  0  0  0
 19 20  2  0  0  0  0
 19 29  1  0  0  0  0
 21 22  1  0  0  0  0
 21 27  1  0  0  0  0
 21 28  1  0  0  0  0
 22 23  1  0  0  0  0
 22 24  2  0  0  0  0
 29 30  1  0  0  0  0
 29 34  1  0  0  0  0
 30 31  1  0  0  0  0
 30 33  1  0  0  0  0
 30 35  1  0  0  0  0
 31 32  2  0  0  0  0
 31 39  1  0  0  0  0
 33 36  1  0  0  0  0
 33 37  1  0  0  0  0
 33 38  1  0  0  0  0
 39 40  1  0  0  0  0
 39 41  1  0  0  0  0
 40 42  1  0  0  0  0
 40 43  1  0  0  0  0
 40 44  1  0  0  0  0
M  CHG  1  23  -1
M  END
$$$$

  -OEChem-05262215553D

 44 43  0     1  0  0  0  0  0999 V2000
   -4.5339   -0.0876   -4.0223 C   0  0  0  0  0  0  0  0  0  0  0  0
   -4.3931   -1.2190   -4.4621 O   0  0  0  0  0  0  0  0  0  0  0  0
   -5.8656    0.6233   -4.1781 C   0  0  0  0  0  0  0  0  0  0  0  0
   -5.7327    1.5364   -4.7636 H   0  0  0  0  0  0  0  0  0  0  0  0
   -6.5828   -0.0239   -4.6901 H   0  0  0  0  0  0  0  0  0  0  0  0
   -6.2646    0.8848   -3.1951 H   0  0  0  0  0  0  0  0  0  0  0  0
   -3.4990    0.5564   -3.3813 N   0  0  0  0  0  0  0  0  0  0  0  0
   -2.2426   -0.0837   -2.9712 C   0  0  2  0  0  0  0  0  0  0  0  0
   -1.8241    0.3683   -1.5554 C   0  0  0  0  0  0  0  0  0  0  0  0
   -2.4815    1.2258   -0.9681 O   0  0  0  0  0  0  0  0  0  0  0  0
   -1.1611    0.2864   -3.9921 C   0  0  0  0  0  0  0  0  0  0  0  0
   -3.7315    1.4174   -2.8873 H   0  0  0  0  0  0  0  0  0  0  0  0
   -2.3608   -1.1718   -2.9466 H   0  0  0  0  0  0  0  0  0  0  0  0
   -0.9937    1.3690   -3.9984 H   0  0  0  0  0  0  0  0  0  0  0  0
   -0.2134   -0.2048   -3.7494 H   0  0  0  0  0  0  0  0  0  0  0  0
   -1.4636   -0.0270   -4.9960 H   0  0  0  0  0  0  0  0  0  0  0  0
   -0.7164   -0.1979   -0.9535 N   0  0  0  0  0  0  0  0  0  0  0  0
    0.1124    0.4997    0.0419 C   0  0  2  0  0  0  0  0  0  0  0  0
   -0.5830    0.5856    1.4221 C   0  0  0  0  0  0  0  0  0  0  0  0
   -1.0509   -0.4227    1.9461 O   0  0  0  0  0  0  0  0  0  0  0  0
    0.6094    1.8523   -0.5305 C   0  0  0  0  0  0  0  0  0  0  0  0
    1.6189    1.6476   -1.6582 C   0  0  0  0  0  0  0  0  0  0  0  0
    2.3351    0.6148   -1.6454 O   0  5  0  0  0  0  0  0  0  0  0  0
    1.6280    2.5055   -2.5711 O   0  0  0  0  0  0  0  0  0  0  0  0
   -0.1902   -0.8188   -1.5624 H   0  0  0  0  0  0  0  0  0  0  0  0
    0.9921   -0.1209    0.2404 H   0  0  0  0  0  0  0  0  0  0  0  0
    1.1273    2.4102    0.2529 H   0  0  0  0  0  0  0  0  0  0  0  0
   -0.2216    2.4696   -0.8806 H   0  0  0  0  0  0  0  0  0  0  0  0
   -0.5943    1.7620    2.1509 N   0  0  0  0  0  0  0  0  0  0  0  0
   -1.3355    1.9452    3.4033 C   0  0  2  0  0  0  0  0  0  0  0  0
   -1.8609    3.3853    3.5699 C   0  0  0  0  0  0  0  0  0  0  0  0
   -1.2429    4.3382    3.1084 O   0  0  0  0  0  0  0  0  0  0  0  0
   -0.4150    1.5802    4.5709 C   0  0  0  0  0  0  0  0  0  0  0  0
   -0.3041    2.6018    1.6506 H   0  0  0  0  0  0  0  0  0  0  0  0
   -2.2055    1.2803    3.4092 H   0  0  0  0  0  0  0  0  0  0  0  0
    0.4636    2.2332    4.5822 H   0  0  0  0  0  0  0  0  0  0  0  0
   -0.9437    1.6876    5.5224 H   0  0  0  0  0  0  0  0  0  0  0  0
   -0.0775    0.5431    4.4774 H   0  0  0  0  0  0  0  0  0  0  0  0
   -3.0248    3.6169    4.2813 N   0  0  0  0  0  0  0  0  0  0  0  0
   -3.6148    4.9398    4.4342 C   0  0  0  0  0  0  0  0  0  0  0  0
   -3.5525    2.8033    4.5829 H   0  0  0  0  0  0  0  0  0  0  0  0
   -2.9132    5.6162    4.9337 H   0  0  0  0  0  0  0  0  0  0  0  0
   -3.8737    5.3584    3.4560 H   0  0  0  0  0  0  0  0  0  0  0  0
   -4.5250    4.8793    5.0381 H   0  0  0  0  0  0  0  0  0  0  0  0
  1  2  2  0  0  0  0
  1  3  1  0  0  0  0
  1  7  1  0  0  0  0
  3  4  1  0  0  0  0
  3  5  1  0  0  0  0
  3  6  1  0  0  0  0
  7  8  1  0  0  0  0
  7 12  1  0  0  0  0
  8  9  1  0  0  0  0
  8 11  1  0  0  0  0
  8 13  1  0  0  0  0
  9 10  2  0  0  0  0
  9 17  1  0  0  0  0
 11 14  1  0  0  0  0
 11 15  1  0  0  0  0
 11 16  1  0  0  0  0
 17 18  1  0  0  0  0
 17 25  1  0  0  0  0
 18 19  1  0  0  0  0
 18 21  1  0  0  0  0
 18 26  1  0  0  0  0
 19 20  2  0  0  0  0
 19 29  1  0  0  0  0
 21 22  1  0  0  0  0
 21 27  1  0  0  0  0
 21 28  1  0  0  0  0
 22 23  1  0  0  0  0
 22 24  2  0  0  0  0
 29 30  1  0  0  0  0
 29 34  1  0  0  0  0
 30 31  1  0  0  0  0
 30 33  1  0  0  0  0
 30 35  1  0  0  0  0
 31 32  2  0  0  0  0
 31 39  1  0  0  0  0
 33 36  1  0  0  0  0
 33 37  1  0  0  0  0
 33 38  1  0  0  0  0
 39 40  1  0  0  0  0
 39 41  1  0  0  0  0
 40 42  1  0  0  0  0
 40 43  1  0  0  0  0
 40 44  1  0  0  0  0
M  CHG  1  23  -1
M  END
$$$$

  -OEChem-05262215553D

 44 43  0     1  0  0  0  0  0999 V2000
   -4.5300   -0.0901   -4.0089 C   0  0  0  0  0  0  0  0  0  0  0  0
   -4.3871   -1.2268   -4.4342 O   0  0  0  0  0  0  0  0  0  0  0  0
   -5.8595    0.6203   -4.1862 C   0  0  0  0  0  0  0  0  0  0  0  0
   -5.7223    1.5178   -4.7945 H   0  0  0  0  0  0  0  0  0  0  0  0
   -6.5769   -0.0378   -4.6842 H   0  0  0  0  0  0  0  0  0  0  0  0
   -6.2612    0.9077   -3.2114 H   0  0  0  0  0  0  0  0  0  0  0  0
   -3.4985    0.5600   -3.3681 N   0  0  0  0  0  0  0  0  0  0  0  0
   -2.2402   -0.0739   -2.9535 C   0  0  2  0  0  0  0  0  0  0  0  0
   -1.8289    0.3728   -1.5341 C   0  0  0  0  0  0  0  0  0  0  0  0
   -2.4861    1.2293   -0.9454 O   0  0  0  0  0  0  0  0  0  0  0  0
   -1.1567    0.3067   -3.9681 C   0  0  0  0  0  0  0  0  0  0  0  0
   -3.7311    1.4288   -2.8883 H   0  0  0  0  0  0  0  0  0  0  0  0
   -2.3510   -1.1627   -2.9346 H   0  0  0  0  0  0  0  0  0  0  0  0
   -0.9905    1.3894   -3.9647 H   0  0  0  0  0  0  0  0  0  0  0  0
   -0.2096   -0.1857   -3.7263 H   0  0  0  0  0  0  0  0  0  0  0  0
   -1.4546    0.0025   -4.9759 H   0  0  0  0  0  0  0  0  0  0  0  0
   -0.7267   -0.1973   -0.9260 N   0  0  0  0  0  0  0  0  0  0  0  0
    0.1146    0.5127    0.0493 C   0  0  2  0  0  0  0  0  0  0  0  0
   -0.5771    0.6374    1.4267 C   0  0  0  0  0  0  0  0  0  0  0  0
   -0.8607   -0.3696    2.0711 O   0  0  0  0  0  0  0  0  0  0  0  0
    0.6169    1.8511   -0.5486 C   0  0  0  0  0  0  0  0  0  0  0  0
    1.6169    1.6215   -1.6798 C   0  0  0  0  0  0  0  0  0  0  0  0
    2.3263    0.5843   -1.6557 O   0  5  0  0  0  0  0  0  0  0  0  0
    1.6175    2.4596   -2.6110 O   0  0  0  0  0  0  0  0  0  0  0  0
   -0.2050   -0.8253   -1.5318 H   0  0  0  0  0  0  0  0  0  0  0  0
    0.9909   -0.1106    0.2554 H   0  0  0  0  0  0  0  0  0  0  0  0
    1.1394    2.4168    0.2267 H   0  0  0  0  0  0  0  0  0  0  0  0
   -0.2119    2.4676   -0.9051 H   0  0  0  0  0  0  0  0  0  0  0  0
   -0.8429    1.8747    1.9857 N   0  0  0  0  0  0  0  0  0  0  0  0
   -1.6476    2.0722    3.1960 C   0  0  2  0  0  0  0  0  0  0  0  0
   -2.4678    3.3771    3.1471 C   0  0  0  0  0  0  0  0  0  0  0  0
   -2.0217    4.3815    2.6040 O   0  0  0  0  0  0  0  0  0  0  0  0
   -0.7121    2.0813    4.4077 C   0  0  0  0  0  0  0  0  0  0  0  0
   -0.7347    2.6733    1.3603 H   0  0  0  0  0  0  0  0  0  0  0  0
   -2.3578    1.2451    3.2979 H   0  0  0  0  0  0  0  0  0  0  0  0
    0.0076    2.9023    4.3280 H   0  0  0  0  0  0  0  0  0  0  0  0
   -1.2850    2.2062    5.3312 H   0  0  0  0  0  0  0  0  0  0  0  0
   -0.1605    1.1378    4.4672 H   0  0  0  0  0  0  0  0  0  0  0  0
   -3.7040    3.4394    3.7656 N   0  0  0  0  0  0  0  0  0  0  0  0
   -4.5616    4.6157    3.7138 C   0  0  0  0  0  0  0  0  0  0  0  0
   -4.0792    2.5716    4.1361 H   0  0  0  0  0  0  0  0  0  0  0  0
   -4.0541    5.4795    4.1555 H   0  0  0  0  0  0  0  0  0  0  0  0
   -4.8240    4.8522    2.6774 H   0  0  0  0  0  0  0  0  0  0  0  0
   -5.4842    4.4348    4.2731 H   0  0  0  0  0  0  0  0  0  0  0  0
  1  2  2  0  0  0  0
  1  3  1  0  0  0  0
  1  7  1  0  0  0  0
  3  4  1  0  0  0  0
  3  5  1  0  0  0  0
  3  6  1  0  0  0  0
  7  8  1  0  0  0  0
  7 12  1  0  0  0  0
  8  9  1  0  0  0  0
  8 11  1  0  0  0  0
  8 13  1  0  0  0  0
  9 10  2  0  0  0  0
  9 17  1  0  0  0  0
 11 14  1  0  0  0  0
 11 15  1  0  0  0  0
 11 16  1  0  0  0  0
 17 18  1  0  0  0  0
 17 25  1  0  0  0  0
 18 19  1  0  0  0  0
 18 21  1  0  0  0  0
 18 26  1  0  0  0  0
 19 20  2  0  0  0  0
 19 29  1  0  0  0  0
 21 22  1  0  0  0  0
 21 27  1  0  0  0  0
 21 28  1  0  0  0  0
 22 23  1  0  0  0  0
 22 24  2  0  0  0  0
 29 30  1  0  0  0  0
 29 34  1  0  0  0  0
 30 31  1  0  0  0  0
 30 33  1  0  0  0  0
 30 35  1  0  0  0  0
 31 32  2  0  0  0  0
 31 39  1  0  0  0  0
 33 36  1  0  0  0  0
 33 37  1  0  0  0  0
 33 38  1  0  0  0  0
 39 40  1  0  0  0  0
 39 41  1  0  0  0  0
 40 42  1  0  0  0  0
 40 43  1  0  0  0  0
 40 44  1  0  0  0  0
M  CHG  1  23  -1
M  END
$$$$

  -OEChem-05262215553D

 44 43  0     1  0  0  0  0  0999 V2000
   -4.8304    0.5929   -3.4330 C   0  0  0  0  0  0  0  0  0  0  0  0
   -5.0605   -0.5925   -3.6170 O   0  0  0  0  0  0  0  0  0  0  0  0
   -5.9439    1.6118   -3.5944 C   0  0  0  0  0  0  0  0  0  0  0  0
   -5.6789    2.3339   -4.3707 H   0  0  0  0  0  0  0  0  0  0  0  0
   -6.8747    1.1134   -3.8791 H   0  0  0  0  0  0  0  0  0  0  0  0
   -6.1021    2.1423   -2.6521 H   0  0  0  0  0  0  0  0  0  0  0  0
   -3.5725    1.0219   -3.0689 N   0  0  0  0  0  0  0  0  0  0  0  0
   -2.4923    0.1336   -2.6155 C   0  0  2  0  0  0  0  0  0  0  0  0
   -1.9620    0.5547   -1.2292 C   0  0  0  0  0  0  0  0  0  0  0  0
   -2.3453    1.6046   -0.7126 O   0  0  0  0  0  0  0  0  0  0  0  0
   -1.3658    0.1894   -3.6521 C   0  0  0  0  0  0  0  0  0  0  0  0
   -3.5029    1.9901   -2.7611 H   0  0  0  0  0  0  0  0  0  0  0  0
   -2.8485   -0.8982   -2.5307 H   0  0  0  0  0  0  0  0  0  0  0  0
   -0.9602    1.2041   -3.7253 H   0  0  0  0  0  0  0  0  0  0  0  0
   -0.5494   -0.4852   -3.3744 H   0  0  0  0  0  0  0  0  0  0  0  0
   -1.7397   -0.1098   -4.6360 H   0  0  0  0  0  0  0  0  0  0  0  0
   -1.0521   -0.2428   -0.5623 N   0  0  0  0  0  0  0  0  0  0  0  0
   -0.0463    0.2911    0.3684 C   0  0  2  0  0  0  0  0  0  0  0  0
   -0.6886    0.6996    1.7121 C   0  0  0  0  0  0  0  0  0  0  0  0
   -1.0452   -0.1501    2.5198 O   0  0  0  0  0  0  0  0  0  0  0  0
    0.7789    1.4165   -0.3042 C   0  0  0  0  0  0  0  0  0  0  0  0
    1.6781    0.8734   -1.4106 C   0  0  0  0  0  0  0  0  0  0  0  0
    2.0995   -0.3062   -1.3226 O   0  5  0  0  0  0  0  0  0  0  0  0
    1.8741    1.6278   -2.3915 O   0  0  0  0  0  0  0  0  0  0  0  0
   -0.7249   -1.0379   -1.1064 H   0  0  0  0  0  0  0  0  0  0  0  0
    0.6402   -0.5208    0.6317 H   0  0  0  0  0  0  0  0  0  0  0  0
    1.4320    1.8718    0.4447 H   0  0  0  0  0  0  0  0  0  0  0  0
    0.1390    2.2052   -0.7059 H   0  0  0  0  0  0  0  0  0  0  0  0
   -0.8862    2.0357    2.0097 N   0  0  0  0  0  0  0  0  0  0  0  0
   -1.6251    2.5165    3.1871 C   0  0  2  0  0  0  0  0  0  0  0  0
   -3.1575    2.5935    2.9837 C   0  0  0  0  0  0  0  0  0  0  0  0
   -3.8790    2.9594    3.9065 O   0  0  0  0  0  0  0  0  0  0  0  0
   -1.0513    3.8918    3.5401 C   0  0  0  0  0  0  0  0  0  0  0  0
   -0.7567    2.6696    1.2241 H   0  0  0  0  0  0  0  0  0  0  0  0
   -1.4460    1.8424    4.0315 H   0  0  0  0  0  0  0  0  0  0  0  0
   -1.2347    4.6041    2.7296 H   0  0  0  0  0  0  0  0  0  0  0  0
   -1.5175    4.2758    4.4529 H   0  0  0  0  0  0  0  0  0  0  0  0
    0.0278    3.8206    3.7081 H   0  0  0  0  0  0  0  0  0  0  0  0
   -3.7314    2.3416    1.7505 N   0  0  0  0  0  0  0  0  0  0  0  0
   -5.1651    2.3463    1.5057 C   0  0  0  0  0  0  0  0  0  0  0  0
   -3.1095    2.0154    1.0048 H   0  0  0  0  0  0  0  0  0  0  0  0
   -5.6541    1.5604    2.0902 H   0  0  0  0  0  0  0  0  0  0  0  0
   -5.5987    3.3139    1.7780 H   0  0  0  0  0  0  0  0  0  0  0  0
   -5.3624    2.1651    0.4448 H   0  0  0  0  0  0  0  0  0  0  0  0
  1  2  2  0  0  0  0
  1  3  1  0  0  0  0
  1  7  1  0  0  0  0
  3  4  1  0  0  0  0
  3  5  1  0  0  0  0
  3  6  1  0  0  0  0
  7  8  1  0  0  0  0
  7 12  1  0  0  0  0
  8  9  1  0  0  0  0
  8 11  1  0  0  0  0
  8 13  1  0  0  0  0
  9 10  2  0  0  0  0
  9 17  1  0  0  0  0
 11 14  1  0  0  0  0
 11 15  1  0  0  0  0
 11 16  1  0  0  0  0
 17 18  1  0  0  0  0
 17 25  1  0  0  0  0
 18 19  1  0  0  0  0
 18 21  1  0  0  0  0
 18 26  1  0  0  0  0
 19 20  2  0  0  0  0
 19 29  1  0  0  0  0
 21 22  1  0  0  0  0
 21 27  1  0  0  0  0
 21 28  1  0  0  0  0
 22 23  1  0  0  0  0
 22 24  2  0  0  0  0
 29 30  1  0  0  0  0
 29 34  1  0  0  0  0
 30 31  1  0  0  0  0
 30 33  1  0  0  0  0
 30 35  1  0  0  0  0
 31 32  2  0  0  0  0
 31 39  1  0  0  0  0
 33 36  1  0  0  0  0
 33 37  1  0  0  0  0
 33 38  1  0  0  0  0
 39 40  1  0  0  0  0
 39 41  1  0  0  0  0
 40 42  1  0  0  0  0
 40 43  1  0  0  0  0
 40 44  1  0  0  0  0
M  CHG  1  23  -1
M  END
$$$$

  -OEChem-05262215553D

 44 43  0     1  0  0  0  0  0999 V2000
   -4.8433    0.5402   -3.2158 C   0  0  0  0  0  0  0  0  0  0  0  0
   -5.1944   -0.5993   -2.9506 O   0  0  0  0  0  0  0  0  0  0  0  0
   -5.8885    1.6094   -3.4774 C   0  0  0  0  0  0  0  0  0  0  0  0
   -5.7608    2.0183   -4.4827 H   0  0  0  0  0  0  0  0  0  0  0  0
   -6.8928    1.1849   -3.3940 H   0  0  0  0  0  0  0  0  0  0  0  0
   -5.7858    2.4164   -2.7472 H   0  0  0  0  0  0  0  0  0  0  0  0
   -3.5072    0.8768   -3.2668 N   0  0  0  0  0  0  0  0  0  0  0  0
   -2.4408    0.0301   -2.7108 C   0  0  2  0  0  0  0  0  0  0  0  0
   -1.9752    0.5220   -1.3236 C   0  0  0  0  0  0  0  0  0  0  0  0
   -2.3746    1.5983   -0.8791 O   0  0  0  0  0  0  0  0  0  0  0  0
   -1.2687    0.0509   -3.6966 C   0  0  0  0  0  0  0  0  0  0  0  0
   -3.3131    1.8747   -3.2877 H   0  0  0  0  0  0  0  0  0  0  0  0
   -2.7855   -1.0037   -2.6021 H   0  0  0  0  0  0  0  0  0  0  0  0
   -0.8606    1.0631   -3.7885 H   0  0  0  0  0  0  0  0  0  0  0  0
   -0.4653   -0.6107   -3.3563 H   0  0  0  0  0  0  0  0  0  0  0  0
   -1.5959   -0.2857   -4.6849 H   0  0  0  0  0  0  0  0  0  0  0  0
   -1.0869   -0.2373   -0.5853 N   0  0  0  0  0  0  0  0  0  0  0  0
   -0.1131    0.3310    0.3613 C   0  0  2  0  0  0  0  0  0  0  0  0
   -0.7928    0.7960    1.6680 C   0  0  0  0  0  0  0  0  0  0  0  0
   -0.9452    0.0203    2.6041 O   0  0  0  0  0  0  0  0  0  0  0  0
    0.7245    1.4378   -0.3243 C   0  0  0  0  0  0  0  0  0  0  0  0
    1.6582    0.8627   -1.3856 C   0  0  0  0  0  0  0  0  0  0  0  0
    2.0834   -0.3108   -1.2462 O   0  5  0  0  0  0  0  0  0  0  0  0
    1.8649    1.5785   -2.3932 O   0  0  0  0  0  0  0  0  0  0  0  0
   -0.7412   -1.0574   -1.0785 H   0  0  0  0  0  0  0  0  0  0  0  0
    0.5688   -0.4677    0.6736 H   0  0  0  0  0  0  0  0  0  0  0  0
    1.3501    1.9224    0.4297 H   0  0  0  0  0  0  0  0  0  0  0  0
    0.0932    2.2098   -0.7694 H   0  0  0  0  0  0  0  0  0  0  0  0
   -1.2698    2.0895    1.7758 N   0  0  0  0  0  0  0  0  0  0  0  0
   -2.1136    2.5583    2.8865 C   0  0  2  0  0  0  0  0  0  0  0  0
   -3.6246    2.3041    2.6732 C   0  0  0  0  0  0  0  0  0  0  0  0
   -4.4245    2.5792    3.5618 O   0  0  0  0  0  0  0  0  0  0  0  0
   -1.8354    4.0531    3.0622 C   0  0  0  0  0  0  0  0  0  0  0  0
   -1.3370    2.5759    0.8812 H   0  0  0  0  0  0  0  0  0  0  0  0
   -1.8256    2.0449    3.8101 H   0  0  0  0  0  0  0  0  0  0  0  0
   -2.1399    4.6074    2.1691 H   0  0  0  0  0  0  0  0  0  0  0  0
   -2.3899    4.4441    3.9209 H   0  0  0  0  0  0  0  0  0  0  0  0
   -0.7680    4.2227    3.2342 H   0  0  0  0  0  0  0  0  0  0  0  0
   -4.1070    1.8593    1.4557 N   0  0  0  0  0  0  0  0  0  0  0  0
   -5.5106    1.6001    1.1762 C   0  0  0  0  0  0  0  0  0  0  0  0
   -3.4176    1.6784    0.7214 H   0  0  0  0  0  0  0  0  0  0  0  0
   -5.9158    0.8754    1.8898 H   0  0  0  0  0  0  0  0  0  0  0  0
   -6.0910    2.5257    1.2412 H   0  0  0  0  0  0  0  0  0  0  0  0
   -5.6209    1.1901    0.1676 H   0  0  0  0  0  0  0  0  0  0  0  0
  1  2  2  0  0  0  0
  1  3  1  0  0  0  0
  1  7  1  0  0  0  0
  3  4  1  0  0  0  0
  3  5  1  0  0  0  0
  3  6  1  0  0  0  0
  7  8  1  0  0  0  0
  7 12  1  0  0  0  0
  8  9  1  0  0  0  0
  8 11  1  0  0  0  0
  8 13  1  0  0  0  0
  9 10  2  0  0  0  0
  9 17  1  0  0  0  0
 11 14  1  0  0  0  0
 11 15  1  0  0  0  0
 11 16  1  0  0  0  0
 17 18  1  0  0  0  0
 17 25  1  0  0  0  0
 18 19  1  0  0  0  0
 18 21  1  0  0  0  0
 18 26  1  0  0  0  0
 19 20  2  0  0  0  0
 19 29  1  0  0  0  0
 21 22  1  0  0  0  0
 21 27  1  0  0  0  0
 21 28  1  0  0  0  0
 22 23  1  0  0  0  0
 22 24  2  0  0  0  0
 29 30  1  0  0  0  0
 29 34  1  0  0  0  0
 30 31  1  0  0  0  0
 30 33  1  0  0  0  0
 30 35  1  0  0  0  0
 31 32  2  0  0  0  0
 31 39  1  0  0  0  0
 33 36  1  0  0  0  0
 33 37  1  0  0  0  0
 33 38  1  0  0  0  0
 39 40  1  0  0  0  0
 39 41  1  0  0  0  0
 40 42  1  0  0  0  0
 40 43  1  0  0  0  0
 40 44  1  0  0  0  0
M  CHG  1  23  -1
M  END
$$$$

  -OEChem-05262215553D

 44 43  0     1  0  0  0  0  0999 V2000
   -4.8228    0.3797   -3.2037 C   0  0  0  0  0  0  0  0  0  0  0  0
   -5.1537   -0.7141   -2.7720 O   0  0  0  0  0  0  0  0  0  0  0  0
   -5.8832    1.4185   -3.5185 C   0  0  0  0  0  0  0  0  0  0  0  0
   -5.8101    1.7216   -4.5660 H   0  0  0  0  0  0  0  0  0  0  0  0
   -6.8804    1.0071   -3.3386 H   0  0  0  0  0  0  0  0  0  0  0  0
   -5.7435    2.2959   -2.8813 H   0  0  0  0  0  0  0  0  0  0  0  0
   -3.4928    0.6964   -3.3833 N   0  0  0  0  0  0  0  0  0  0  0  0
   -2.4029   -0.0802   -2.7734 C   0  0  2  0  0  0  0  0  0  0  0  0
   -1.9909    0.4804   -1.3954 C   0  0  0  0  0  0  0  0  0  0  0  0
   -2.4403    1.5577   -1.0057 O   0  0  0  0  0  0  0  0  0  0  0  0
   -1.2099   -0.0432   -3.7333 C   0  0  0  0  0  0  0  0  0  0  0  0
   -3.3024    1.6832   -3.5365 H   0  0  0  0  0  0  0  0  0  0  0  0
   -2.7055   -1.1238   -2.6378 H   0  0  0  0  0  0  0  0  0  0  0  0
   -0.8495    0.9832   -3.8607 H   0  0  0  0  0  0  0  0  0  0  0  0
   -0.3837   -0.6488   -3.3469 H   0  0  0  0  0  0  0  0  0  0  0  0
   -1.4965   -0.4379   -4.7124 H   0  0  0  0  0  0  0  0  0  0  0  0
   -1.1095   -0.2294   -0.6010 N   0  0  0  0  0  0  0  0  0  0  0  0
   -0.1685    0.3703    0.3630 C   0  0  2  0  0  0  0  0  0  0  0  0
   -0.8671    0.8676    1.6488 C   0  0  0  0  0  0  0  0  0  0  0  0
   -0.8294    0.2007    2.6759 O   0  0  0  0  0  0  0  0  0  0  0  0
    0.6573    1.4789   -0.3307 C   0  0  0  0  0  0  0  0  0  0  0  0
    1.6214    0.9004   -1.3632 C   0  0  0  0  0  0  0  0  0  0  0  0
    2.0675   -0.2610   -1.1905 O   0  5  0  0  0  0  0  0  0  0  0  0
    1.8172    1.5903   -2.3912 O   0  0  0  0  0  0  0  0  0  0  0  0
   -0.7379   -1.0605   -1.0555 H   0  0  0  0  0  0  0  0  0  0  0  0
    0.5205   -0.4116    0.7023 H   0  0  0  0  0  0  0  0  0  0  0  0
    1.2582    1.9927    0.4242 H   0  0  0  0  0  0  0  0  0  0  0  0
    0.0174    2.2282   -0.8014 H   0  0  0  0  0  0  0  0  0  0  0  0
   -1.6130    2.0313    1.6231 N   0  0  0  0  0  0  0  0  0  0  0  0
   -2.5571    2.4288    2.6794 C   0  0  2  0  0  0  0  0  0  0  0  0
   -4.0023    1.9388    2.4262 C   0  0  0  0  0  0  0  0  0  0  0  0
   -4.8639    2.0913    3.2860 O   0  0  0  0  0  0  0  0  0  0  0  0
   -2.5089    3.9554    2.7732 C   0  0  0  0  0  0  0  0  0  0  0  0
   -1.7804    2.3817    0.6765 H   0  0  0  0  0  0  0  0  0  0  0  0
   -2.2383    2.0155    3.6419 H   0  0  0  0  0  0  0  0  0  0  0  0
   -2.8406    4.4084    1.8336 H   0  0  0  0  0  0  0  0  0  0  0  0
   -3.1600    4.3070    3.5796 H   0  0  0  0  0  0  0  0  0  0  0  0
   -1.4879    4.2892    2.9824 H   0  0  0  0  0  0  0  0  0  0  0  0
   -4.3649    1.4045    1.2027 N   0  0  0  0  0  0  0  0  0  0  0  0
   -5.6982    0.9198    0.8810 C   0  0  0  0  0  0  0  0  0  0  0  0
   -3.6361    1.3498    0.4879 H   0  0  0  0  0  0  0  0  0  0  0  0
   -6.0133    0.1602    1.6035 H   0  0  0  0  0  0  0  0  0  0  0  0
   -6.4189    1.7436    0.8936 H   0  0  0  0  0  0  0  0  0  0  0  0
   -5.7017    0.4689   -0.1160 H   0  0  0  0  0  0  0  0  0  0  0  0
  1  2  2  0  0  0  0
  1  3  1  0  0  0  0
  1  7  1  0  0  0  0
  3  4  1  0  0  0  0
  3  5  1  0  0  0  0
  3  6  1  0  0  0  0
  7  8  1  0  0  0  0
  7 12  1  0  0  0  0
  8  9  1  0  0  0  0
  8 11  1  0  0  0  0
  8 13  1  0  0  0  0
  9 10  2  0  0  0  0
  9 17  1  0  0  0  0
 11 14  1  0  0  0  0
 11 15  1  0  0  0  0
 11 16  1  0  0  0  0
 17 18  1  0  0  0  0
 17 25  1  0  0  0  0
 18 19  1  0  0  0  0
 18 21  1  0  0  0  0
 18 26  1  0  0  0  0
 19 20  2  0  0  0  0
 19 29  1  0  0  0  0
 21 22  1  0  0  0  0
 21 27  1  0  0  0  0
 21 28  1  0  0  0  0
 22 23  1  0  0  0  0
 22 24  2  0  0  0  0
 29 30  1  0  0  0  0
 29 34  1  0  0  0  0
 30 31  1  0  0  0  0
 30 33  1  0  0  0  0
 30 35  1  0  0  0  0
 31 32  2  0  0  0  0
 31 39  1  0  0  0  0
 33 36  1  0  0  0  0
 33 37  1  0  0  0  0
 33 38  1  0  0  0  0
 39 40  1  0  0  0  0
 39 41  1  0  0  0  0
 40 42  1  0  0  0  0
 40 43  1  0  0  0  0
 40 44  1  0  0  0  0
M  CHG  1  23  -1
M  END
$$$$

  -OEChem-05262215553D

 44 43  0     1  0  0  0  0  0999 V2000
   -4.4614    0.4305   -4.3378 C   0  0  0  0  0  0  0  0  0  0  0  0
   -4.7077   -0.7654   -4.3803 O   0  0  0  0  0  0  0  0  0  0  0  0
   -5.5200    1.4352   -4.7547 C   0  0  0  0  0  0  0  0  0  0  0  0
   -5.1641    2.0196   -5.6067 H   0  0  0  0  0  0  0  0  0  0  0  0
   -6.4409    0.9191   -5.0399 H   0  0  0  0  0  0  0  0  0  0  0  0
   -5.7375    2.1114   -3.9238 H   0  0  0  0  0  0  0  0  0  0  0  0
   -3.2367    0.8881   -3.9012 N   0  0  0  0  0  0  0  0  0  0  0  0
   -2.2624    0.0617   -3.1745 C   0  0  2  0  0  0  0  0  0  0  0  0
   -2.0227    0.6008   -1.7489 C   0  0  0  0  0  0  0  0  0  0  0  0
   -2.3840    1.7408   -1.4623 O   0  0  0  0  0  0  0  0  0  0  0  0
   -0.9515    0.0693   -3.9651 C   0  0  0  0  0  0  0  0  0  0  0  0
   -3.1842    1.8872   -3.7111 H   0  0  0  0  0  0  0  0  0  0  0  0
   -2.6163   -0.9705   -3.0864 H   0  0  0  0  0  0  0  0  0  0  0  0
   -0.5543    1.0870   -4.0418 H   0  0  0  0  0  0  0  0  0  0  0  0
   -0.1989   -0.5546   -3.4718 H   0  0  0  0  0  0  0  0  0  0  0  0
   -1.1147   -0.3199   -4.9745 H   0  0  0  0  0  0  0  0  0  0  0  0
   -1.4048   -0.2062   -0.8093 N   0  0  0  0  0  0  0  0  0  0  0  0
   -0.5885    0.2631    0.3269 C   0  0  2  0  0  0  0  0  0  0  0  0
   -1.4104    0.8656    1.4900 C   0  0  0  0  0  0  0  0  0  0  0  0
   -1.4269    0.3227    2.5910 O   0  0  0  0  0  0  0  0  0  0  0  0
    0.5043    1.2310   -0.1779 C   0  0  0  0  0  0  0  0  0  0  0  0
    1.5545    0.5055   -1.0158 C   0  0  0  0  0  0  0  0  0  0  0  0
    1.7848   -0.7066   -0.7767 O   0  5  0  0  0  0  0  0  0  0  0  0
    2.0604    1.1499   -1.9639 O   0  0  0  0  0  0  0  0  0  0  0  0
   -1.0661   -1.0816   -1.2031 H   0  0  0  0  0  0  0  0  0  0  0  0
   -0.0942   -0.6110    0.7655 H   0  0  0  0  0  0  0  0  0  0  0  0
    1.0178    1.6634    0.6845 H   0  0  0  0  0  0  0  0  0  0  0  0
    0.0765    2.0571   -0.7507 H   0  0  0  0  0  0  0  0  0  0  0  0
   -2.2211    1.9666    1.2982 N   0  0  0  0  0  0  0  0  0  0  0  0
   -3.1226    2.5459    2.3038 C   0  0  2  0  0  0  0  0  0  0  0  0
   -4.4236    1.7247    2.4930 C   0  0  0  0  0  0  0  0  0  0  0  0
   -5.5350    2.2443    2.4491 O   0  0  0  0  0  0  0  0  0  0  0  0
   -3.3878    3.9950    1.8781 C   0  0  0  0  0  0  0  0  0  0  0  0
   -2.3324    2.2472    0.3184 H   0  0  0  0  0  0  0  0  0  0  0  0
   -2.6122    2.5676    3.2719 H   0  0  0  0  0  0  0  0  0  0  0  0
   -3.9126    4.0218    0.9175 H   0  0  0  0  0  0  0  0  0  0  0  0
   -4.0027    4.5050    2.6260 H   0  0  0  0  0  0  0  0  0  0  0  0
   -2.4440    4.5395    1.7762 H   0  0  0  0  0  0  0  0  0  0  0  0
   -4.3309    0.3727    2.7597 N   0  0  0  0  0  0  0  0  0  0  0  0
   -5.4708   -0.5203    2.8961 C   0  0  0  0  0  0  0  0  0  0  0  0
   -3.3816   -0.0096    2.7930 H   0  0  0  0  0  0  0  0  0  0  0  0
   -6.1347   -0.1751    3.6951 H   0  0  0  0  0  0  0  0  0  0  0  0
   -6.0354   -0.5644    1.9593 H   0  0  0  0  0  0  0  0  0  0  0  0
   -5.1283   -1.5298    3.1426 H   0  0  0  0  0  0  0  0  0  0  0  0
  1  2  2  0  0  0  0
  1  3  1  0  0  0  0
  1  7  1  0  0  0  0
  3  4  1  0  0  0  0
  3  5  1  0  0  0  0
  3  6  1  0  0  0  0
  7  8  1  0  0  0  0
  7 12  1  0  0  0  0
  8  9  1  0  0  0  0
  8 11  1  0  0  0  0
  8 13  1  0  0  0  0
  9 10  2  0  0  0  0
  9 17  1  0  0  0  0
 11 14  1  0  0  0  0
 11 15  1  0  0  0  0
 11 16  1  0  0  0  0
 17 18  1  0  0  0  0
 17 25  1  0  0  0  0
 18 19  1  0  0  0  0
 18 21  1  0  0  0  0
 18 26  1  0  0  0  0
 19 20  2  0  0  0  0
 19 29  1  0  0  0  0
 21 22  1  0  0  0  0
 21 27  1  0  0  0  0
 21 28  1  0  0  0  0
 22 23  1  0  0  0  0
 22 24  2  0  0  0  0
 29 30  1  0  0  0  0
 29 34  1  0  0  0  0
 30 31  1  0  0  0  0
 30 33  1  0  0  0  0
 30 35  1  0  0  0  0
 31 32  2  0  0  0  0
 31 39  1  0  0  0  0
 33 36  1  0  0  0  0
 33 37  1  0  0  0  0
 33 38  1  0  0  0  0
 39 40  1  0  0  0  0
 39 41  1  0  0  0  0
 40 42  1  0  0  0  0
 40 43  1  0  0  0  0
 40 44  1  0  0  0  0
M  CHG  1  23  -1
M  END
$$$$

  -OEChem-05262215553D

 44 43  0     1  0  0  0  0  0999 V2000
   -4.2361    0.4136   -4.7452 C   0  0  0  0  0  0  0  0  0  0  0  0
   -4.4258   -0.7858   -4.8796 O   0  0  0  0  0  0  0  0  0  0  0  0
   -5.2773    1.4021   -5.2375 C   0  0  0  0  0  0  0  0  0  0  0  0
   -4.8414    2.0538   -5.9987 H   0  0  0  0  0  0  0  0  0  0  0  0
   -6.1284    0.8712   -5.6728 H   0  0  0  0  0  0  0  0  0  0  0  0
   -5.6321    2.0140   -4.4043 H   0  0  0  0  0  0  0  0  0  0  0  0
   -3.0925    0.8881   -4.1399 N   0  0  0  0  0  0  0  0  0  0  0  0
   -2.1678    0.0545   -3.3582 C   0  0  2  0  0  0  0  0  0  0  0  0
   -2.0646    0.5434   -1.8979 C   0  0  0  0  0  0  0  0  0  0  0  0
   -2.5588    1.6239   -1.5824 O   0  0  0  0  0  0  0  0  0  0  0  0
   -0.7938    0.1121   -4.0321 C   0  0  0  0  0  0  0  0  0  0  0  0
   -3.0997    1.8768   -3.8955 H   0  0  0  0  0  0  0  0  0  0  0  0
   -2.5083   -0.9857   -3.3359 H   0  0  0  0  0  0  0  0  0  0  0  0
   -0.3996    1.1337   -4.0152 H   0  0  0  0  0  0  0  0  0  0  0  0
   -0.0811   -0.5373   -3.5134 H   0  0  0  0  0  0  0  0  0  0  0  0
   -0.8660   -0.2180   -5.0727 H   0  0  0  0  0  0  0  0  0  0  0  0
   -1.4199   -0.2454   -0.9606 N   0  0  0  0  0  0  0  0  0  0  0  0
   -0.7021    0.2363    0.2373 C   0  0  2  0  0  0  0  0  0  0  0  0
   -1.6073    0.7125    1.3988 C   0  0  0  0  0  0  0  0  0  0  0  0
   -1.4128    0.3119    2.5427 O   0  0  0  0  0  0  0  0  0  0  0  0
    0.3166    1.3205   -0.1761 C   0  0  0  0  0  0  0  0  0  0  0  0
    1.4618    0.7305   -0.9964 C   0  0  0  0  0  0  0  0  0  0  0  0
    1.7922   -0.4661   -0.7994 O   0  5  0  0  0  0  0  0  0  0  0  0
    1.9378    1.4574   -1.8992 O   0  0  0  0  0  0  0  0  0  0  0  0
   -0.9782   -1.0627   -1.3769 H   0  0  0  0  0  0  0  0  0  0  0  0
   -0.1503   -0.6127    0.6556 H   0  0  0  0  0  0  0  0  0  0  0  0
    0.7538    1.7572    0.7257 H   0  0  0  0  0  0  0  0  0  0  0  0
   -0.1628    2.1303   -0.7310 H   0  0  0  0  0  0  0  0  0  0  0  0
   -2.7008    1.5263    1.1823 N   0  0  0  0  0  0  0  0  0  0  0  0
   -3.6056    2.0454    2.2170 C   0  0  2  0  0  0  0  0  0  0  0  0
   -4.6390    0.9957    2.6996 C   0  0  0  0  0  0  0  0  0  0  0  0
   -5.8411    1.2396    2.7517 O   0  0  0  0  0  0  0  0  0  0  0  0
   -4.2619    3.3048    1.6389 C   0  0  0  0  0  0  0  0  0  0  0  0
   -2.8499    1.8042    0.2074 H   0  0  0  0  0  0  0  0  0  0  0  0
   -3.0164    2.3430    3.0904 H   0  0  0  0  0  0  0  0  0  0  0  0
   -4.8736    3.0520    0.7668 H   0  0  0  0  0  0  0  0  0  0  0  0
   -4.9027    3.7792    2.3885 H   0  0  0  0  0  0  0  0  0  0  0  0
   -3.4977    4.0255    1.3320 H   0  0  0  0  0  0  0  0  0  0  0  0
   -4.1932   -0.2415    3.1208 N   0  0  0  0  0  0  0  0  0  0  0  0
   -5.0583   -1.3293    3.5490 C   0  0  0  0  0  0  0  0  0  0  0  0
   -3.1817   -0.3913    3.0650 H   0  0  0  0  0  0  0  0  0  0  0  0
   -5.6653   -1.0218    4.4064 H   0  0  0  0  0  0  0  0  0  0  0  0
   -5.7228   -1.6315    2.7334 H   0  0  0  0  0  0  0  0  0  0  0  0
   -4.4556   -2.1932    3.8443 H   0  0  0  0  0  0  0  0  0  0  0  0
  1  2  2  0  0  0  0
  1  3  1  0  0  0  0
  1  7  1  0  0  0  0
  3  4  1  0  0  0  0
  3  5  1  0  0  0  0
  3  6  1  0  0  0  0
  7  8  1  0  0  0  0
  7 12  1  0  0  0  0
  8  9  1  0  0  0  0
  8 11  1  0  0  0  0
  8 13  1  0  0  0  0
  9 10  2  0  0  0  0
  9 17  1  0  0  0  0
 11 14  1  0  0  0  0
 11 15  1  0  0  0  0
 11 16  1  0  0  0  0
 17 18  1  0  0  0  0
 17 25  1  0  0  0  0
 18 19  1  0  0  0  0
 18 21  1  0  0  0  0
 18 26  1  0  0  0  0
 19 20  2  0  0  0  0
 19 29  1  0  0  0  0
 21 22  1  0  0  0  0
 21 27  1  0  0  0  0
 21 28  1  0  0  0  0
 22 23  1  0  0  0  0
 22 24  2  0  0  0  0
 29 30  1  0  0  0  0
 29 34  1  0  0  0  0
 30 31  1  0  0  0  0
 30 33  1  0  0  0  0
 30 35  1  0  0  0  0
 31 32  2  0  0  0  0
 31 39  1  0  0  0  0
 33 36  1  0  0  0  0
 33 37  1  0  0  0  0
 33 38  1  0  0  0  0
 39 40  1  0  0  0  0
 39 41  1  0  0  0  0
 40 42  1  0  0  0  0
 40 43  1  0  0  0  0
 40 44  1  0  0  0  0
M  CHG  1  23  -1
M  END
$$$$

  -OEChem-05262215553D

 44 43  0     1  0  0  0  0  0999 V2000
   -4.1127    0.4466   -4.8530 C   0  0  0  0  0  0  0  0  0  0  0  0
   -4.2758   -0.7559   -4.9939 O   0  0  0  0  0  0  0  0  0  0  0  0
   -5.2042    1.4096   -5.2837 C   0  0  0  0  0  0  0  0  0  0  0  0
   -4.8086    2.1220   -6.0116 H   0  0  0  0  0  0  0  0  0  0  0  0
   -6.0331    0.8621   -5.7409 H   0  0  0  0  0  0  0  0  0  0  0  0
   -5.5801    1.9573   -4.4155 H   0  0  0  0  0  0  0  0  0  0  0  0
   -2.9577    0.9453   -4.2888 N   0  0  0  0  0  0  0  0  0  0  0  0
   -2.0011    0.1259   -3.5299 C   0  0  2  0  0  0  0  0  0  0  0  0
   -2.0288    0.4702   -2.0256 C   0  0  0  0  0  0  0  0  0  0  0  0
   -2.6133    1.4803   -1.6398 O   0  0  0  0  0  0  0  0  0  0  0  0
   -0.6032    0.3789   -4.1017 C   0  0  0  0  0  0  0  0  0  0  0  0
   -2.9917    1.9279   -4.0258 H   0  0  0  0  0  0  0  0  0  0  0  0
   -2.2329   -0.9390   -3.6336 H   0  0  0  0  0  0  0  0  0  0  0  0
   -0.3135    1.4261   -3.9635 H   0  0  0  0  0  0  0  0  0  0  0  0
    0.1394   -0.2496   -3.5989 H   0  0  0  0  0  0  0  0  0  0  0  0
   -0.5816    0.1476   -5.1709 H   0  0  0  0  0  0  0  0  0  0  0  0
   -1.4110   -0.3745   -1.1201 N   0  0  0  0  0  0  0  0  0  0  0  0
   -0.7748    0.0344    0.1496 C   0  0  2  0  0  0  0  0  0  0  0  0
   -1.7485    0.3960    1.2984 C   0  0  0  0  0  0  0  0  0  0  0  0
   -1.4534    0.1435    2.4629 O   0  0  0  0  0  0  0  0  0  0  0  0
    0.2264    1.1758   -0.1308 C   0  0  0  0  0  0  0  0  0  0  0  0
    1.4302    0.6816   -0.9299 C   0  0  0  0  0  0  0  0  0  0  0  0
    1.7894   -0.5161   -0.8018 O   0  5  0  0  0  0  0  0  0  0  0  0
    1.9208    1.4835   -1.7588 O   0  0  0  0  0  0  0  0  0  0  0  0
   -0.9040   -1.1287   -1.5792 H   0  0  0  0  0  0  0  0  0  0  0  0
   -0.2185   -0.8277    0.5338 H   0  0  0  0  0  0  0  0  0  0  0  0
    0.6030    1.5568    0.8219 H   0  0  0  0  0  0  0  0  0  0  0  0
   -0.2517    2.0100   -0.6495 H   0  0  0  0  0  0  0  0  0  0  0  0
   -2.9996    0.9278    1.0562 N   0  0  0  0  0  0  0  0  0  0  0  0
   -3.9174    1.4371    2.0853 C   0  0  2  0  0  0  0  0  0  0  0  0
   -4.7298    0.3199    2.7883 C   0  0  0  0  0  0  0  0  0  0  0  0
   -5.9407    0.4119    2.9698 O   0  0  0  0  0  0  0  0  0  0  0  0
   -4.8100    2.4791    1.4002 C   0  0  0  0  0  0  0  0  0  0  0  0
   -3.1545    1.2132    0.0850 H   0  0  0  0  0  0  0  0  0  0  0  0
   -3.3370    1.9472    2.8608 H   0  0  0  0  0  0  0  0  0  0  0  0
   -5.4242    2.0068    0.6269 H   0  0  0  0  0  0  0  0  0  0  0  0
   -5.4727    2.9544    2.1299 H   0  0  0  0  0  0  0  0  0  0  0  0
   -4.1972    3.2565    0.9336 H   0  0  0  0  0  0  0  0  0  0  0  0
   -4.0664   -0.7876    3.2783 N   0  0  0  0  0  0  0  0  0  0  0  0
   -4.6986   -1.8673    4.0196 C   0  0  0  0  0  0  0  0  0  0  0  0
   -3.0488   -0.7811    3.1615 H   0  0  0  0  0  0  0  0  0  0  0  0
   -5.1183   -1.4906    4.9578 H   0  0  0  0  0  0  0  0  0  0  0  0
   -5.5007   -2.3203    3.4279 H   0  0  0  0  0  0  0  0  0  0  0  0
   -3.9626   -2.6422    4.2537 H   0  0  0  0  0  0  0  0  0  0  0  0
  1  2  2  0  0  0  0
  1  3  1  0  0  0  0
  1  7  1  0  0  0  0
  3  4  1  0  0  0  0
  3  5  1  0  0  0  0
  3  6  1  0  0  0  0
  7  8  1  0  0  0  0
  7 12  1  0  0  0  0
  8  9  1  0  0  0  0
  8 11  1  0  0  0  0
  8 13  1  0  0  0  0
  9 10  2  0  0  0  0
  9 17  1  0  0  0  0
 11 14  1  0  0  0  0
 11 15  1  0  0  0  0
 11 16  1  0  0  0  0
 17 18  1  0  0  0  0
 17 25  1  0  0  0  0
 18 19  1  0  0  0  0
 18 21  1  0  0  0  0
 18 26  1  0  0  0  0
 19 20  2  0  0  0  0
 19 29  1  0  0  0  0
 21 22  1  0  0  0  0
 21 27  1  0  0  0  0
 21 28  1  0  0  0  0
 22 23  1  0  0  0  0
 22 24  2  0  0  0  0
 29 30  1  0  0  0  0
 29 34  1  0  0  0  0
 30 31  1  0  0  0  0
 30 33  1  0  0  0  0
 30 35  1  0  0  0  0
 31 32  2  0  0  0  0
 31 39  1  0  0  0  0
 33 36  1  0  0  0  0
 33 37  1  0  0  0  0
 33 38  1  0  0  0  0
 39 40  1  0  0  0  0
 39 41  1  0  0  0  0
 40 42  1  0  0  0  0
 40 43  1  0  0  0  0
 40 44  1  0  0  0  0
M  CHG  1  23  -1
M  END
$$$$

  -OEChem-05262215553D

 44 43  0     1  0  0  0  0  0999 V2000
   -4.2063   -0.1633   -4.6268 C   0  0  0  0  0  0  0  0  0  0  0  0
   -3.8653   -1.2404   -5.0922 O   0  0  0  0  0  0  0  0  0  0  0  0
   -5.6494    0.2897   -4.7551 C   0  0  0  0  0  0  0  0  0  0  0  0
   -5.6950    1.2451   -5.2831 H   0  0  0  0  0  0  0  0  0  0  0  0
   -6.2302   -0.4505   -5.3125 H   0  0  0  0  0  0  0  0  0  0  0  0
   -6.0914    0.4089   -3.7625 H   0  0  0  0  0  0  0  0  0  0  0  0
   -3.3001    0.6461   -3.9760 N   0  0  0  0  0  0  0  0  0  0  0  0
   -1.9822    0.1956   -3.5068 C   0  0  2  0  0  0  0  0  0  0  0  0
   -1.8184    0.4484   -1.9941 C   0  0  0  0  0  0  0  0  0  0  0  0
   -2.5960    1.2013   -1.4131 O   0  0  0  0  0  0  0  0  0  0  0  0
   -0.9047    0.9539   -4.2855 C   0  0  0  0  0  0  0  0  0  0  0  0
   -3.6973    1.4302   -3.4601 H   0  0  0  0  0  0  0  0  0  0  0  0
   -1.8575   -0.8783   -3.6794 H   0  0  0  0  0  0  0  0  0  0  0  0
   -0.9855    2.0309   -4.1042 H   0  0  0  0  0  0  0  0  0  0  0  0
    0.0945    0.6288   -3.9767 H   0  0  0  0  0  0  0  0  0  0  0  0
   -1.0113    0.7698   -5.3586 H   0  0  0  0  0  0  0  0  0  0  0  0
   -0.8480   -0.2306   -1.2802 N   0  0  0  0  0  0  0  0  0  0  0  0
   -0.1528    0.2919   -0.0860 C   0  0  2  0  0  0  0  0  0  0  0  0
   -0.9963    0.2982    1.2137 C   0  0  0  0  0  0  0  0  0  0  0  0
   -0.4445    0.3657    2.3080 O   0  0  0  0  0  0  0  0  0  0  0  0
    0.4398    1.6817   -0.4098 C   0  0  0  0  0  0  0  0  0  0  0  0
    1.5893    1.5820   -1.4109 C   0  0  0  0  0  0  0  0  0  0  0  0
    2.2792    0.5311   -1.4366 O   0  5  0  0  0  0  0  0  0  0  0  0
    1.7076    2.5257   -2.2275 O   0  0  0  0  0  0  0  0  0  0  0  0
   -0.2299   -0.7710   -1.8822 H   0  0  0  0  0  0  0  0  0  0  0  0
    0.6725   -0.3910    0.1421 H   0  0  0  0  0  0  0  0  0  0  0  0
    0.8447    2.1176    0.5072 H   0  0  0  0  0  0  0  0  0  0  0  0
   -0.3265    2.3647   -0.7844 H   0  0  0  0  0  0  0  0  0  0  0  0
   -2.3695    0.1417    1.1864 N   0  0  0  0  0  0  0  0  0  0  0  0
   -3.2455    0.2441    2.3583 C   0  0  2  0  0  0  0  0  0  0  0  0
   -4.4964   -0.6543    2.2552 C   0  0  0  0  0  0  0  0  0  0  0  0
   -5.1228   -0.7626    1.2069 O   0  0  0  0  0  0  0  0  0  0  0  0
   -3.6538    1.7111    2.5150 C   0  0  0  0  0  0  0  0  0  0  0  0
   -2.7927    0.2858    0.2644 H   0  0  0  0  0  0  0  0  0  0  0  0
   -2.6967   -0.0676    3.2524 H   0  0  0  0  0  0  0  0  0  0  0  0
   -4.1952    2.0522    1.6265 H   0  0  0  0  0  0  0  0  0  0  0  0
   -4.2994    1.8371    3.3889 H   0  0  0  0  0  0  0  0  0  0  0  0
   -2.7675    2.3403    2.6449 H   0  0  0  0  0  0  0  0  0  0  0  0
   -4.9620   -1.3117    3.3810 N   0  0  0  0  0  0  0  0  0  0  0  0
   -6.1234   -2.1914    3.3750 C   0  0  0  0  0  0  0  0  0  0  0  0
   -4.3989   -1.2432    4.2232 H   0  0  0  0  0  0  0  0  0  0  0  0
   -7.0198   -1.6403    3.0720 H   0  0  0  0  0  0  0  0  0  0  0  0
   -5.9698   -3.0250    2.6818 H   0  0  0  0  0  0  0  0  0  0  0  0
   -6.2913   -2.6000    4.3760 H   0  0  0  0  0  0  0  0  0  0  0  0
  1  2  2  0  0  0  0
  1  3  1  0  0  0  0
  1  7  1  0  0  0  0
  3  4  1  0  0  0  0
  3  5  1  0  0  0  0
  3  6  1  0  0  0  0
  7  8  1  0  0  0  0
  7 12  1  0  0  0  0
  8  9  1  0  0  0  0
  8 11  1  0  0  0  0
  8 13  1  0  0  0  0
  9 10  2  0  0  0  0
  9 17  1  0  0  0  0
 11 14  1  0  0  0  0
 11 15  1  0  0  0  0
 11 16  1  0  0  0  0
 17 18  1  0  0  0  0
 17 25  1  0  0  0  0
 18 19  1  0  0  0  0
 18 21  1  0  0  0  0
 18 26  1  0  0  0  0
 19 20  2  0  0  0  0
 19 29  1  0  0  0  0
 21 22  1  0  0  0  0
 21 27  1  0  0  0  0
 21 28  1  0  0  0  0
 22 23  1  0  0  0  0
 22 24  2  0  0  0  0
 29 30  1  0  0  0  0
 29 34  1  0  0  0  0
 30 31  1  0  0  0  0
 30 33  1  0  0  0  0
 30 35  1  0  0  0  0
 31 32  2  0  0  0  0
 31 39  1  0  0  0  0
 33 36  1  0  0  0  0
 33 37  1  0  0  0  0
 33 38  1  0  0  0  0
 39 40  1  0  0  0  0
 39 41  1  0  0  0  0
 40 42  1  0  0  0  0
 40 43  1  0  0  0  0
 40 44  1  0  0  0  0
M  CHG  1  23  -1
M  END
$$$$

  -OEChem-05262215553D

 44 43  0     1  0  0  0  0  0999 V2000
   -4.2339   -0.0852   -4.6489 C   0  0  0  0  0  0  0  0  0  0  0  0
   -3.8666   -1.0976   -5.2261 O   0  0  0  0  0  0  0  0  0  0  0  0
   -5.6776    0.3689   -4.7646 C   0  0  0  0  0  0  0  0  0  0  0  0
   -5.7258    1.3258   -5.2902 H   0  0  0  0  0  0  0  0  0  0  0  0
   -6.2639   -0.3697   -5.3184 H   0  0  0  0  0  0  0  0  0  0  0  0
   -6.1109    0.4867   -3.7680 H   0  0  0  0  0  0  0  0  0  0  0  0
   -3.3576    0.6511   -3.8819 N   0  0  0  0  0  0  0  0  0  0  0  0
   -2.0327    0.1808   -3.4551 C   0  0  2  0  0  0  0  0  0  0  0  0
   -1.8402    0.3726   -1.9355 C   0  0  0  0  0  0  0  0  0  0  0  0
   -2.6693    1.0040   -1.2852 O   0  0  0  0  0  0  0  0  0  0  0  0
   -0.9726    0.9670   -4.2306 C   0  0  0  0  0  0  0  0  0  0  0  0
   -3.7733    1.3716   -3.2931 H   0  0  0  0  0  0  0  0  0  0  0  0
   -1.9166   -0.8862   -3.6713 H   0  0  0  0  0  0  0  0  0  0  0  0
   -1.0316    2.0335   -3.9890 H   0  0  0  0  0  0  0  0  0  0  0  0
    0.0323    0.6136   -3.9780 H   0  0  0  0  0  0  0  0  0  0  0  0
   -1.1205    0.8443   -5.3078 H   0  0  0  0  0  0  0  0  0  0  0  0
   -0.7966   -0.2504   -1.2770 N   0  0  0  0  0  0  0  0  0  0  0  0
   -0.0914    0.3228   -0.1117 C   0  0  2  0  0  0  0  0  0  0  0  0
   -0.8911    0.2652    1.2143 C   0  0  0  0  0  0  0  0  0  0  0  0
   -0.3706    0.5935    2.2766 O   0  0  0  0  0  0  0  0  0  0  0  0
    0.3880    1.7502   -0.4621 C   0  0  0  0  0  0  0  0  0  0  0  0
    1.4986    1.7267   -1.5096 C   0  0  0  0  0  0  0  0  0  0  0  0
    2.2586    0.7263   -1.5615 O   0  5  0  0  0  0  0  0  0  0  0  0
    1.5113    2.6686   -2.3368 O   0  0  0  0  0  0  0  0  0  0  0  0
   -0.1577   -0.7140   -1.9201 H   0  0  0  0  0  0  0  0  0  0  0  0
    0.7873   -0.2996    0.0876 H   0  0  0  0  0  0  0  0  0  0  0  0
    0.8002    2.2190    0.4350 H   0  0  0  0  0  0  0  0  0  0  0  0
   -0.4401    2.3755   -0.8045 H   0  0  0  0  0  0  0  0  0  0  0  0
   -2.1588   -0.2843    1.2543 N   0  0  0  0  0  0  0  0  0  0  0  0
   -3.0199   -0.2960    2.4416 C   0  0  2  0  0  0  0  0  0  0  0  0
   -4.0724   -1.4247    2.4147 C   0  0  0  0  0  0  0  0  0  0  0  0
   -4.5229   -1.8589    1.3600 O   0  0  0  0  0  0  0  0  0  0  0  0
   -3.7117    1.0670    2.5439 C   0  0  0  0  0  0  0  0  0  0  0  0
   -2.6184   -0.3361    0.3428 H   0  0  0  0  0  0  0  0  0  0  0  0
   -2.4023   -0.4520    3.3317 H   0  0  0  0  0  0  0  0  0  0  0  0
   -4.3214    1.2519    1.6532 H   0  0  0  0  0  0  0  0  0  0  0  0
   -4.3583    1.1042    3.4255 H   0  0  0  0  0  0  0  0  0  0  0  0
   -2.9675    1.8655    2.6268 H   0  0  0  0  0  0  0  0  0  0  0  0
   -4.5504   -1.9412    3.6067 N   0  0  0  0  0  0  0  0  0  0  0  0
   -5.5336   -3.0135    3.6800 C   0  0  0  0  0  0  0  0  0  0  0  0
   -4.1410   -1.5856    4.4651 H   0  0  0  0  0  0  0  0  0  0  0  0
   -6.4677   -2.7088    3.1968 H   0  0  0  0  0  0  0  0  0  0  0  0
   -5.1565   -3.9141    3.1843 H   0  0  0  0  0  0  0  0  0  0  0  0
   -5.7481   -3.2577    4.7246 H   0  0  0  0  0  0  0  0  0  0  0  0
  1  2  2  0  0  0  0
  1  3  1  0  0  0  0
  1  7  1  0  0  0  0
  3  4  1  0  0  0  0
  3  5  1  0  0  0  0
  3  6  1  0  0  0  0
  7  8  1  0  0  0  0
  7 12  1  0  0  0  0
  8  9  1  0  0  0  0
  8 11  1  0  0  0  0
  8 13  1  0  0  0  0
  9 10  2  0  0  0  0
  9 17  1  0  0  0  0
 11 14  1  0  0  0  0
 11 15  1  0  0  0  0
 11 16  1  0  0  0  0
 17 18  1  0  0  0  0
 17 25  1  0  0  0  0
 18 19  1  0  0  0  0
 18 21  1  0  0  0  0
 18 26  1  0  0  0  0
 19 20  2  0  0  0  0
 19 29  1  0  0  0  0
 21 22  1  0  0  0  0
 21 27  1  0  0  0  0
 21 28  1  0  0  0  0
 22 23  1  0  0  0  0
 22 24  2  0  0  0  0
 29 30  1  0  0  0  0
 29 34  1  0  0  0  0
 30 31  1  0  0  0  0
 30 33  1  0  0  0  0
 30 35  1  0  0  0  0
 31 32  2  0  0  0  0
 31 39  1  0  0  0  0
 33 36  1  0  0  0  0
 33 37  1  0  0  0  0
 33 38  1  0  0  0  0
 39 40  1  0  0  0  0
 39 41  1  0  0  0  0
 40 42  1  0  0  0  0
 40 43  1  0  0  0  0
 40 44  1  0  0  0  0
M  CHG  1  23  -1
M  END
$$$$

  -OEChem-05262215553D

 44 43  0     1  0  0  0  0  0999 V2000
   -4.3247   -0.0352   -4.5212 C   0  0  0  0  0  0  0  0  0  0  0  0
   -4.0014   -1.0525   -5.1155 O   0  0  0  0  0  0  0  0  0  0  0  0
   -5.7517    0.4730   -4.6149 C   0  0  0  0  0  0  0  0  0  0  0  0
   -5.7708    1.4294   -5.1433 H   0  0  0  0  0  0  0  0  0  0  0  0
   -6.3739   -0.2440   -5.1574 H   0  0  0  0  0  0  0  0  0  0  0  0
   -6.1651    0.6099   -3.6125 H   0  0  0  0  0  0  0  0  0  0  0  0
   -3.4120    0.6606   -3.7593 N   0  0  0  0  0  0  0  0  0  0  0  0
   -2.0893    0.1503   -3.3747 C   0  0  2  0  0  0  0  0  0  0  0  0
   -1.8473    0.3280   -1.8605 C   0  0  0  0  0  0  0  0  0  0  0  0
   -2.6742    0.9178   -1.1701 O   0  0  0  0  0  0  0  0  0  0  0  0
   -1.0317    0.9107   -4.1796 C   0  0  0  0  0  0  0  0  0  0  0  0
   -3.7931    1.3827   -3.1493 H   0  0  0  0  0  0  0  0  0  0  0  0
   -2.0109   -0.9187   -3.5971 H   0  0  0  0  0  0  0  0  0  0  0  0
   -1.0595    1.9783   -3.9371 H   0  0  0  0  0  0  0  0  0  0  0  0
   -0.0286    0.5348   -3.9542 H   0  0  0  0  0  0  0  0  0  0  0  0
   -1.2110    0.7911   -5.2523 H   0  0  0  0  0  0  0  0  0  0  0  0
   -0.7536   -0.2588   -1.2519 N   0  0  0  0  0  0  0  0  0  0  0  0
   -0.0345    0.3521   -0.1153 C   0  0  2  0  0  0  0  0  0  0  0  0
   -0.8015    0.2519    1.2271 C   0  0  0  0  0  0  0  0  0  0  0  0
   -0.4147    0.8366    2.2352 O   0  0  0  0  0  0  0  0  0  0  0  0
    0.3811    1.7950   -0.4901 C   0  0  0  0  0  0  0  0  0  0  0  0
    1.4591    1.8033   -1.5712 C   0  0  0  0  0  0  0  0  0  0  0  0
    2.2524    0.8299   -1.6382 O   0  5  0  0  0  0  0  0  0  0  0  0
    1.4146    2.7380   -2.4053 O   0  0  0  0  0  0  0  0  0  0  0  0
   -0.1171   -0.6798   -1.9265 H   0  0  0  0  0  0  0  0  0  0  0  0
    0.8737   -0.2326    0.0626 H   0  0  0  0  0  0  0  0  0  0  0  0
    0.8045    2.2863    0.3893 H   0  0  0  0  0  0  0  0  0  0  0  0
   -0.4799    2.3873   -0.8103 H   0  0  0  0  0  0  0  0  0  0  0  0
   -1.8706   -0.6160    1.3512 N   0  0  0  0  0  0  0  0  0  0  0  0
   -2.7503   -0.6805    2.5228 C   0  0  2  0  0  0  0  0  0  0  0  0
   -3.5116   -2.0185    2.6305 C   0  0  0  0  0  0  0  0  0  0  0  0
   -3.7193   -2.7190    1.6452 O   0  0  0  0  0  0  0  0  0  0  0  0
   -3.7430    0.4848    2.4407 C   0  0  0  0  0  0  0  0  0  0  0  0
   -2.2439   -0.9612    0.4684 H   0  0  0  0  0  0  0  0  0  0  0  0
   -2.1479   -0.5765    3.4308 H   0  0  0  0  0  0  0  0  0  0  0  0
   -4.3396    0.4130    1.5254 H   0  0  0  0  0  0  0  0  0  0  0  0
   -4.4184    0.4774    3.3011 H   0  0  0  0  0  0  0  0  0  0  0  0
   -3.2085    1.4402    2.4303 H   0  0  0  0  0  0  0  0  0  0  0  0
   -3.9928   -2.4337    3.8600 N   0  0  0  0  0  0  0  0  0  0  0  0
   -4.7074   -3.6869    4.0608 C   0  0  0  0  0  0  0  0  0  0  0  0
   -3.7820   -1.8496    4.6635 H   0  0  0  0  0  0  0  0  0  0  0  0
   -5.6057   -3.7204    3.4354 H   0  0  0  0  0  0  0  0  0  0  0  0
   -4.0665   -4.5370    3.8049 H   0  0  0  0  0  0  0  0  0  0  0  0
   -5.0117   -3.7838    5.1071 H   0  0  0  0  0  0  0  0  0  0  0  0
  1  2  2  0  0  0  0
  1  3  1  0  0  0  0
  1  7  1  0  0  0  0
  3  4  1  0  0  0  0
  3  5  1  0  0  0  0
  3  6  1  0  0  0  0
  7  8  1  0  0  0  0
  7 12  1  0  0  0  0
  8  9  1  0  0  0  0
  8 11  1  0  0  0  0
  8 13  1  0  0  0  0
  9 10  2  0  0  0  0
  9 17  1  0  0  0  0
 11 14  1  0  0  0  0
 11 15  1  0  0  0  0
 11 16  1  0  0  0  0
 17 18  1  0  0  0  0
 17 25  1  0  0  0  0
 18 19  1  0  0  0  0
 18 21  1  0  0  0  0
 18 26  1  0  0  0  0
 19 20  2  0  0  0  0
 19 29  1  0  0  0  0
 21 22  1  0  0  0  0
 21 27  1  0  0  0  0
 21 28  1  0  0  0  0
 22 23  1  0  0  0  0
 22 24  2  0  0  0  0
 29 30  1  0  0  0  0
 29 34  1  0  0  0  0
 30 31  1  0  0  0  0
 30 33  1  0  0  0  0
 30 35  1  0  0  0  0
 31 32  2  0  0  0  0
 31 39  1  0  0  0  0
 33 36  1  0  0  0  0
 33 37  1  0  0  0  0
 33 38  1  0  0  0  0
 39 40  1  0  0  0  0
 39 41  1  0  0  0  0
 40 42  1  0  0  0  0
 40 43  1  0  0  0  0
 40 44  1  0  0  0  0
M  CHG  1  23  -1
M  END
$$$$

  -OEChem-05262215553D

 44 43  0     1  0  0  0  0  0999 V2000
   -4.3916   -0.0445   -4.4111 C   0  0  0  0  0  0  0  0  0  0  0  0
   -4.1000   -1.0810   -4.9886 O   0  0  0  0  0  0  0  0  0  0  0  0
   -5.8109    0.4880   -4.4863 C   0  0  0  0  0  0  0  0  0  0  0  0
   -5.8182    1.4543   -4.9965 H   0  0  0  0  0  0  0  0  0  0  0  0
   -6.4482   -0.2088   -5.0374 H   0  0  0  0  0  0  0  0  0  0  0  0
   -6.2152    0.6128   -3.4785 H   0  0  0  0  0  0  0  0  0  0  0  0
   -3.4524    0.6486   -3.6798 N   0  0  0  0  0  0  0  0  0  0  0  0
   -2.1326    0.1212   -3.3083 C   0  0  2  0  0  0  0  0  0  0  0  0
   -1.8582    0.3239   -1.8021 C   0  0  0  0  0  0  0  0  0  0  0  0
   -2.6687    0.9306   -1.1070 O   0  0  0  0  0  0  0  0  0  0  0  0
   -1.0774    0.8436   -4.1506 C   0  0  0  0  0  0  0  0  0  0  0  0
   -3.8083    1.3916   -3.0796 H   0  0  0  0  0  0  0  0  0  0  0  0
   -2.0774   -0.9532   -3.5108 H   0  0  0  0  0  0  0  0  0  0  0  0
   -1.0804    1.9170   -3.9327 H   0  0  0  0  0  0  0  0  0  0  0  0
   -0.0771    0.4541   -3.9368 H   0  0  0  0  0  0  0  0  0  0  0  0
   -1.2810    0.7021   -5.2163 H   0  0  0  0  0  0  0  0  0  0  0  0
   -0.7475   -0.2491   -1.2101 N   0  0  0  0  0  0  0  0  0  0  0  0
   -0.0115    0.3895   -0.1014 C   0  0  2  0  0  0  0  0  0  0  0  0
   -0.7672    0.2979    1.2468 C   0  0  0  0  0  0  0  0  0  0  0  0
   -0.5566    1.0766    2.1724 O   0  0  0  0  0  0  0  0  0  0  0  0
    0.4041    1.8217   -0.5168 C   0  0  0  0  0  0  0  0  0  0  0  0
    1.4680    1.7952   -1.6122 C   0  0  0  0  0  0  0  0  0  0  0  0
    2.2546    0.8150   -1.6627 O   0  5  0  0  0  0  0  0  0  0  0  0
    1.4177    2.7057   -2.4723 O   0  0  0  0  0  0  0  0  0  0  0  0
   -0.1217   -0.6725   -1.8933 H   0  0  0  0  0  0  0  0  0  0  0  0
    0.8993   -0.1905    0.0779 H   0  0  0  0  0  0  0  0  0  0  0  0
    0.8412    2.3335    0.3441 H   0  0  0  0  0  0  0  0  0  0  0  0
   -0.4585    2.4094   -0.8404 H   0  0  0  0  0  0  0  0  0  0  0  0
   -1.6012   -0.7793    1.4839 N   0  0  0  0  0  0  0  0  0  0  0  0
   -2.4622   -0.9167    2.6627 C   0  0  2  0  0  0  0  0  0  0  0  0
   -2.8946   -2.3752    2.9206 C   0  0  0  0  0  0  0  0  0  0  0  0
   -2.8867   -3.2106    2.0224 O   0  0  0  0  0  0  0  0  0  0  0  0
   -3.6969   -0.0303    2.4616 C   0  0  0  0  0  0  0  0  0  0  0  0
   -1.8132   -1.3598    0.6753 H   0  0  0  0  0  0  0  0  0  0  0  0
   -1.9148   -0.5780    3.5480 H   0  0  0  0  0  0  0  0  0  0  0  0
   -4.2495   -0.3439    1.5701 H   0  0  0  0  0  0  0  0  0  0  0  0
   -4.3619   -0.0945    3.3275 H   0  0  0  0  0  0  0  0  0  0  0  0
   -3.3991    1.0151    2.3325 H   0  0  0  0  0  0  0  0  0  0  0  0
   -3.3215   -2.7509    4.1823 N   0  0  0  0  0  0  0  0  0  0  0  0
   -3.7381   -4.1054    4.5191 C   0  0  0  0  0  0  0  0  0  0  0  0
   -3.2927   -2.0457    4.9125 H   0  0  0  0  0  0  0  0  0  0  0  0
   -4.5712   -4.4197    3.8818 H   0  0  0  0  0  0  0  0  0  0  0  0
   -2.9067   -4.8052    4.3854 H   0  0  0  0  0  0  0  0  0  0  0  0
   -4.0656   -4.1504    5.5620 H   0  0  0  0  0  0  0  0  0  0  0  0
  1  2  2  0  0  0  0
  1  3  1  0  0  0  0
  1  7  1  0  0  0  0
  3  4  1  0  0  0  0
  3  5  1  0  0  0  0
  3  6  1  0  0  0  0
  7  8  1  0  0  0  0
  7 12  1  0  0  0  0
  8  9  1  0  0  0  0
  8 11  1  0  0  0  0
  8 13  1  0  0  0  0
  9 10  2  0  0  0  0
  9 17  1  0  0  0  0
 11 14  1  0  0  0  0
 11 15  1  0  0  0  0
 11 16  1  0  0  0  0
 17 18  1  0  0  0  0
 17 25  1  0  0  0  0
 18 19  1  0  0  0  0
 18 21  1  0  0  0  0
 18 26  1  0  0  0  0
 19 20  2  0  0  0  0
 19 29  1  0  0  0  0
 21 22  1  0  0  0  0
 21 27  1  0  0  0  0
 21 28  1  0  0  0  0
 22 23  1  0  0  0  0
 22 24  2  0  0  0  0
 29 30  1  0  0  0  0
 29 34  1  0  0  0  0
 30 31  1  0  0  0  0
 30 33  1  0  0  0  0
 30 35  1  0  0  0  0
 31 32  2  0  0  0  0
 31 39  1  0  0  0  0
 33 36  1  0  0  0  0
 33 37  1  0  0  0  0
 33 38  1  0  0  0  0
 39 40  1  0  0  0  0
 39 41  1  0  0  0  0
 40 42  1  0  0  0  0
 40 43  1  0  0  0  0
 40 44  1  0  0  0  0
M  CHG  1  23  -1
M  END
$$$$

  -OEChem-05262215553D

 44 43  0     1  0  0  0  0  0999 V2000
   -4.4557   -0.0919   -4.2572 C   0  0  0  0  0  0  0  0  0  0  0  0
   -4.2491   -1.2086   -4.7082 O   0  0  0  0  0  0  0  0  0  0  0  0
   -5.8454    0.5120   -4.3470 C   0  0  0  0  0  0  0  0  0  0  0  0
   -5.8208    1.4089   -4.9710 H   0  0  0  0  0  0  0  0  0  0  0  0
   -6.5432   -0.2061   -4.7866 H   0  0  0  0  0  0  0  0  0  0  0  0
   -6.1991    0.7810   -3.3485 H   0  0  0  0  0  0  0  0  0  0  0  0
   -3.4451    0.6353   -3.6673 N   0  0  0  0  0  0  0  0  0  0  0  0
   -2.1448    0.0763   -3.2716 C   0  0  2  0  0  0  0  0  0  0  0  0
   -1.8649    0.3195   -1.7726 C   0  0  0  0  0  0  0  0  0  0  0  0
   -2.6660    0.9554   -1.0934 O   0  0  0  0  0  0  0  0  0  0  0  0
   -1.0652    0.7346   -4.1356 C   0  0  0  0  0  0  0  0  0  0  0  0
   -3.7406    1.4559   -3.1405 H   0  0  0  0  0  0  0  0  0  0  0  0
   -2.1219   -1.0054   -3.4379 H   0  0  0  0  0  0  0  0  0  0  0  0
   -1.0361    1.8150   -3.9583 H   0  0  0  0  0  0  0  0  0  0  0  0
   -0.0777    0.3231   -3.9037 H   0  0  0  0  0  0  0  0  0  0  0  0
   -1.2694    0.5601   -5.1962 H   0  0  0  0  0  0  0  0  0  0  0  0
   -0.7503   -0.2396   -1.1750 N   0  0  0  0  0  0  0  0  0  0  0  0
   -0.0069    0.4213   -0.0862 C   0  0  2  0  0  0  0  0  0  0  0  0
   -0.7664    0.3496    1.2603 C   0  0  0  0  0  0  0  0  0  0  0  0
   -0.7533    1.2606    2.0836 O   0  0  0  0  0  0  0  0  0  0  0  0
    0.4082    1.8436   -0.5339 C   0  0  0  0  0  0  0  0  0  0  0  0
    1.4649    1.7921   -1.6348 C   0  0  0  0  0  0  0  0  0  0  0  0
    2.2492    0.8093   -1.6686 O   0  5  0  0  0  0  0  0  0  0  0  0
    1.4102    2.6824   -2.5153 O   0  0  0  0  0  0  0  0  0  0  0  0
   -0.1314   -0.6824   -1.8518 H   0  0  0  0  0  0  0  0  0  0  0  0
    0.9055   -0.1535    0.1017 H   0  0  0  0  0  0  0  0  0  0  0  0
    0.8519    2.3711    0.3142 H   0  0  0  0  0  0  0  0  0  0  0  0
   -0.4554    2.4262   -0.8642 H   0  0  0  0  0  0  0  0  0  0  0  0
   -1.3383   -0.8523    1.6356 N   0  0  0  0  0  0  0  0  0  0  0  0
   -2.1554   -1.0463    2.8375 C   0  0  2  0  0  0  0  0  0  0  0  0
   -2.2485   -2.5275    3.2584 C   0  0  0  0  0  0  0  0  0  0  0  0
   -2.0287   -3.4301    2.4570 O   0  0  0  0  0  0  0  0  0  0  0  0
   -3.5572   -0.4908    2.5620 C   0  0  0  0  0  0  0  0  0  0  0  0
   -1.3635   -1.5803    0.9251 H   0  0  0  0  0  0  0  0  0  0  0  0
   -1.7057   -0.4957    3.6701 H   0  0  0  0  0  0  0  0  0  0  0  0
   -4.0247   -1.0298    1.7316 H   0  0  0  0  0  0  0  0  0  0  0  0
   -4.1911   -0.5921    3.4475 H   0  0  0  0  0  0  0  0  0  0  0  0
   -3.5018    0.5702    2.2974 H   0  0  0  0  0  0  0  0  0  0  0  0
   -2.6111   -2.8529    4.5534 N   0  0  0  0  0  0  0  0  0  0  0  0
   -2.7276   -4.2231    5.0334 C   0  0  0  0  0  0  0  0  0  0  0  0
   -2.7720   -2.0858    5.1992 H   0  0  0  0  0  0  0  0  0  0  0  0
   -3.4546   -4.7787    4.4320 H   0  0  0  0  0  0  0  0  0  0  0  0
   -1.7594   -4.7311    4.9764 H   0  0  0  0  0  0  0  0  0  0  0  0
   -3.0632   -4.2308    6.0745 H   0  0  0  0  0  0  0  0  0  0  0  0
  1  2  2  0  0  0  0
  1  3  1  0  0  0  0
  1  7  1  0  0  0  0
  3  4  1  0  0  0  0
  3  5  1  0  0  0  0
  3  6  1  0  0  0  0
  7  8  1  0  0  0  0
  7 12  1  0  0  0  0
  8  9  1  0  0  0  0
  8 11  1  0  0  0  0
  8 13  1  0  0  0  0
  9 10  2  0  0  0  0
  9 17  1  0  0  0  0
 11 14  1  0  0  0  0
 11 15  1  0  0  0  0
 11 16  1  0  0  0  0
 17 18  1  0  0  0  0
 17 25  1  0  0  0  0
 18 19  1  0  0  0  0
 18 21  1  0  0  0  0
 18 26  1  0  0  0  0
 19 20  2  0  0  0  0
 19 29  1  0  0  0  0
 21 22  1  0  0  0  0
 21 27  1  0  0  0  0
 21 28  1  0  0  0  0
 22 23  1  0  0  0  0
 22 24  2  0  0  0  0
 29 30  1  0  0  0  0
 29 34  1  0  0  0  0
 30 31  1  0  0  0  0
 30 33  1  0  0  0  0
 30 35  1  0  0  0  0
 31 32  2  0  0  0  0
 31 39  1  0  0  0  0
 33 36  1  0  0  0  0
 33 37  1  0  0  0  0
 33 38  1  0  0  0  0
 39 40  1  0  0  0  0
 39 41  1  0  0  0  0
 40 42  1  0  0  0  0
 40 43  1  0  0  0  0
 40 44  1  0  0  0  0
M  CHG  1  23  -1
M  END
$$$$

  -OEChem-05262215553D

 44 43  0     1  0  0  0  0  0999 V2000
   -4.4723   -0.1105   -4.2369 C   0  0  0  0  0  0  0  0  0  0  0  0
   -4.2744   -1.2385   -4.6633 O   0  0  0  0  0  0  0  0  0  0  0  0
   -5.8601    0.4971   -4.3300 C   0  0  0  0  0  0  0  0  0  0  0  0
   -5.8337    1.3884   -4.9614 H   0  0  0  0  0  0  0  0  0  0  0  0
   -6.5609   -0.2220   -4.7628 H   0  0  0  0  0  0  0  0  0  0  0  0
   -6.2114    0.7756   -3.3334 H   0  0  0  0  0  0  0  0  0  0  0  0
   -3.4550    0.6224   -3.6658 N   0  0  0  0  0  0  0  0  0  0  0  0
   -2.1590    0.0611   -3.2590 C   0  0  2  0  0  0  0  0  0  0  0  0
   -1.8808    0.3214   -1.7625 C   0  0  0  0  0  0  0  0  0  0  0  0
   -2.6772    0.9757   -1.0967 O   0  0  0  0  0  0  0  0  0  0  0  0
   -1.0742    0.7053   -4.1270 C   0  0  0  0  0  0  0  0  0  0  0  0
   -3.7436    1.4551   -3.1541 H   0  0  0  0  0  0  0  0  0  0  0  0
   -2.1405   -1.0229   -3.4117 H   0  0  0  0  0  0  0  0  0  0  0  0
   -1.0481    1.7889   -3.9688 H   0  0  0  0  0  0  0  0  0  0  0  0
   -0.0877    0.3005   -3.8802 H   0  0  0  0  0  0  0  0  0  0  0  0
   -1.2706    0.5105   -5.1855 H   0  0  0  0  0  0  0  0  0  0  0  0
   -0.7750   -0.2450   -1.1564 N   0  0  0  0  0  0  0  0  0  0  0  0
   -0.0238    0.4110   -0.0713 C   0  0  2  0  0  0  0  0  0  0  0  0
   -0.7856    0.3589    1.2746 C   0  0  0  0  0  0  0  0  0  0  0  0
   -0.9605    1.3449    1.9850 O   0  0  0  0  0  0  0  0  0  0  0  0
    0.4166    1.8236   -0.5271 C   0  0  0  0  0  0  0  0  0  0  0  0
    1.4757    1.7472   -1.6247 C   0  0  0  0  0  0  0  0  0  0  0  0
    2.2427    0.7502   -1.6484 O   0  5  0  0  0  0  0  0  0  0  0  0
    1.4466    2.6369   -2.5072 O   0  0  0  0  0  0  0  0  0  0  0  0
   -0.1620   -0.7036   -1.8276 H   0  0  0  0  0  0  0  0  0  0  0  0
    0.8806   -0.1754    0.1206 H   0  0  0  0  0  0  0  0  0  0  0  0
    0.8652    2.3484    0.3203 H   0  0  0  0  0  0  0  0  0  0  0  0
   -0.4362    2.4180   -0.8644 H   0  0  0  0  0  0  0  0  0  0  0  0
   -1.1012   -0.8783    1.8071 N   0  0  0  0  0  0  0  0  0  0  0  0
   -1.8451   -1.0832    3.0543 C   0  0  2  0  0  0  0  0  0  0  0  0
   -1.6298   -2.4912    3.6463 C   0  0  0  0  0  0  0  0  0  0  0  0
   -1.2618   -3.4251    2.9407 O   0  0  0  0  0  0  0  0  0  0  0  0
   -3.3350   -0.8548    2.7734 C   0  0  0  0  0  0  0  0  0  0  0  0
   -0.9387   -1.6895    1.2145 H   0  0  0  0  0  0  0  0  0  0  0  0
   -1.5024   -0.3578    3.7994 H   0  0  0  0  0  0  0  0  0  0  0  0
   -3.6964   -1.5697    2.0273 H   0  0  0  0  0  0  0  0  0  0  0  0
   -3.9217   -0.9772    3.6884 H   0  0  0  0  0  0  0  0  0  0  0  0
   -3.5003    0.1577    2.3908 H   0  0  0  0  0  0  0  0  0  0  0  0
   -1.8772   -2.7176    4.9887 N   0  0  0  0  0  0  0  0  0  0  0  0
   -1.6913   -4.0108    5.6329 C   0  0  0  0  0  0  0  0  0  0  0  0
   -2.1540   -1.9193    5.5522 H   0  0  0  0  0  0  0  0  0  0  0  0
   -2.2999   -4.7759    5.1396 H   0  0  0  0  0  0  0  0  0  0  0  0
   -0.6395   -4.3121    5.5887 H   0  0  0  0  0  0  0  0  0  0  0  0
   -1.9925   -3.9552    6.6832 H   0  0  0  0  0  0  0  0  0  0  0  0
  1  2  2  0  0  0  0
  1  3  1  0  0  0  0
  1  7  1  0  0  0  0
  3  4  1  0  0  0  0
  3  5  1  0  0  0  0
  3  6  1  0  0  0  0
  7  8  1  0  0  0  0
  7 12  1  0  0  0  0
  8  9  1  0  0  0  0
  8 11  1  0  0  0  0
  8 13  1  0  0  0  0
  9 10  2  0  0  0  0
  9 17  1  0  0  0  0
 11 14  1  0  0  0  0
 11 15  1  0  0  0  0
 11 16  1  0  0  0  0
 17 18  1  0  0  0  0
 17 25  1  0  0  0  0
 18 19  1  0  0  0  0
 18 21  1  0  0  0  0
 18 26  1  0  0  0  0
 19 20  2  0  0  0  0
 19 29  1  0  0  0  0
 21 22  1  0  0  0  0
 21 27  1  0  0  0  0
 21 28  1  0  0  0  0
 22 23  1  0  0  0  0
 22 24  2  0  0  0  0
 29 30  1  0  0  0  0
 29 34  1  0  0  0  0
 30 31  1  0  0  0  0
 30 33  1  0  0  0  0
 30 35  1  0  0  0  0
 31 32  2  0  0  0  0
 31 39  1  0  0  0  0
 33 36  1  0  0  0  0
 33 37  1  0  0  0  0
 33 38  1  0  0  0  0
 39 40  1  0  0  0  0
 39 41  1  0  0  0  0
 40 42  1  0  0  0  0
 40 43  1  0  0  0  0
 40 44  1  0  0  0  0
M  CHG  1  23  -1
M  END
$$$$

  -OEChem-05262215553D

 44 43  0     1  0  0  0  0  0999 V2000
   -4.4614   -0.1162   -4.2834 C   0  0  0  0  0  0  0  0  0  0  0  0
   -4.2438   -1.2326   -4.7304 O   0  0  0  0  0  0  0  0  0  0  0  0
   -5.8576    0.4718   -4.3726 C   0  0  0  0  0  0  0  0  0  0  0  0
   -5.8434    1.3698   -4.9951 H   0  0  0  0  0  0  0  0  0  0  0  0
   -6.5471   -0.2539   -4.8126 H   0  0  0  0  0  0  0  0  0  0  0  0
   -6.2146    0.7350   -3.3737 H   0  0  0  0  0  0  0  0  0  0  0  0
   -3.4604    0.6193   -3.6880 N   0  0  0  0  0  0  0  0  0  0  0  0
   -2.1654    0.0643   -3.2705 C   0  0  2  0  0  0  0  0  0  0  0  0
   -1.9097    0.3125   -1.7680 C   0  0  0  0  0  0  0  0  0  0  0  0
   -2.7104    0.9736   -1.1150 O   0  0  0  0  0  0  0  0  0  0  0  0
   -1.0734    0.7231   -4.1185 C   0  0  0  0  0  0  0  0  0  0  0  0
   -3.7654    1.4388   -3.1644 H   0  0  0  0  0  0  0  0  0  0  0  0
   -2.1375   -1.0177   -3.4325 H   0  0  0  0  0  0  0  0  0  0  0  0
   -1.0466    1.8035   -3.9402 H   0  0  0  0  0  0  0  0  0  0  0  0
   -0.0897    0.3112   -3.8720 H   0  0  0  0  0  0  0  0  0  0  0  0
   -1.2619    0.5489   -5.1819 H   0  0  0  0  0  0  0  0  0  0  0  0
   -0.8191   -0.2702   -1.1495 N   0  0  0  0  0  0  0  0  0  0  0  0
   -0.0652    0.3720   -0.0587 C   0  0  2  0  0  0  0  0  0  0  0  0
   -0.8268    0.3422    1.2891 C   0  0  0  0  0  0  0  0  0  0  0  0
   -1.1936    1.3572    1.8739 O   0  0  0  0  0  0  0  0  0  0  0  0
    0.4029    1.7757   -0.5120 C   0  0  0  0  0  0  0  0  0  0  0  0
    1.4694    1.6841   -1.6016 C   0  0  0  0  0  0  0  0  0  0  0  0
    2.2203    0.6748   -1.6190 O   0  5  0  0  0  0  0  0  0  0  0  0
    1.4683    2.5790   -2.4792 O   0  0  0  0  0  0  0  0  0  0  0  0
   -0.2087   -0.7394   -1.8153 H   0  0  0  0  0  0  0  0  0  0  0  0
    0.8295   -0.2286    0.1345 H   0  0  0  0  0  0  0  0  0  0  0  0
    0.8512    2.2928    0.3400 H   0  0  0  0  0  0  0  0  0  0  0  0
   -0.4383    2.3829   -0.8565 H   0  0  0  0  0  0  0  0  0  0  0  0
   -0.8954   -0.8510    1.9873 N   0  0  0  0  0  0  0  0  0  0  0  0
   -1.5309   -1.0178    3.2993 C   0  0  2  0  0  0  0  0  0  0  0  0
   -1.0158   -2.2630    4.0502 C   0  0  0  0  0  0  0  0  0  0  0  0
   -0.4802   -3.1872    3.4469 O   0  0  0  0  0  0  0  0  0  0  0  0
   -3.0471   -1.1163    3.0965 C   0  0  0  0  0  0  0  0  0  0  0  0
   -0.5283   -1.6824    1.5294 H   0  0  0  0  0  0  0  0  0  0  0  0
   -1.3063   -0.1454    3.9215 H   0  0  0  0  0  0  0  0  0  0  0  0
   -3.2936   -1.9833    2.4753 H   0  0  0  0  0  0  0  0  0  0  0  0
   -3.5575   -1.2179    4.0586 H   0  0  0  0  0  0  0  0  0  0  0  0
   -3.4242   -0.2160    2.6005 H   0  0  0  0  0  0  0  0  0  0  0  0
   -1.1770   -2.3570    5.4212 N   0  0  0  0  0  0  0  0  0  0  0  0
   -0.7111   -3.4903    6.2093 C   0  0  0  0  0  0  0  0  0  0  0  0
   -1.5947   -1.5623    5.8961 H   0  0  0  0  0  0  0  0  0  0  0  0
   -1.1614   -4.4207    5.8475 H   0  0  0  0  0  0  0  0  0  0  0  0
    0.3785   -3.5772    6.1466 H   0  0  0  0  0  0  0  0  0  0  0  0
   -0.9893   -3.3587    7.2592 H   0  0  0  0  0  0  0  0  0  0  0  0
  1  2  2  0  0  0  0
  1  3  1  0  0  0  0
  1  7  1  0  0  0  0
  3  4  1  0  0  0  0
  3  5  1  0  0  0  0
  3  6  1  0  0  0  0
  7  8  1  0  0  0  0
  7 12  1  0  0  0  0
  8  9  1  0  0  0  0
  8 11  1  0  0  0  0
  8 13  1  0  0  0  0
  9 10  2  0  0  0  0
  9 17  1  0  0  0  0
 11 14  1  0  0  0  0
 11 15  1  0  0  0  0
 11 16  1  0  0  0  0
 17 18  1  0  0  0  0
 17 25  1  0  0  0  0
 18 19  1  0  0  0  0
 18 21  1  0  0  0  0
 18 26  1  0  0  0  0
 19 20  2  0  0  0  0
 19 29  1  0  0  0  0
 21 22  1  0  0  0  0
 21 27  1  0  0  0  0
 21 28  1  0  0  0  0
 22 23  1  0  0  0  0
 22 24  2  0  0  0  0
 29 30  1  0  0  0  0
 29 34  1  0  0  0  0
 30 31  1  0  0  0  0
 30 33  1  0  0  0  0
 30 35  1  0  0  0  0
 31 32  2  0  0  0  0
 31 39  1  0  0  0  0
 33 36  1  0  0  0  0
 33 37  1  0  0  0  0
 33 38  1  0  0  0  0
 39 40  1  0  0  0  0
 39 41  1  0  0  0  0
 40 42  1  0  0  0  0
 40 43  1  0  0  0  0
 40 44  1  0  0  0  0
M  CHG  1  23  -1
M  END
$$$$

  -OEChem-05262215553D

 44 43  0     1  0  0  0  0  0999 V2000
   -4.4503   -0.1466   -4.3105 C   0  0  0  0  0  0  0  0  0  0  0  0
   -4.2194   -1.2687   -4.7366 O   0  0  0  0  0  0  0  0  0  0  0  0
   -5.8466    0.4351   -4.4387 C   0  0  0  0  0  0  0  0  0  0  0  0
   -5.8183    1.3337   -5.0599 H   0  0  0  0  0  0  0  0  0  0  0  0
   -6.5198   -0.2934   -4.8990 H   0  0  0  0  0  0  0  0  0  0  0  0
   -6.2334    0.6967   -3.4505 H   0  0  0  0  0  0  0  0  0  0  0  0
   -3.4625    0.6044   -3.7119 N   0  0  0  0  0  0  0  0  0  0  0  0
   -2.1676    0.0667   -3.2726 C   0  0  2  0  0  0  0  0  0  0  0  0
   -1.9344    0.3286   -1.7683 C   0  0  0  0  0  0  0  0  0  0  0  0
   -2.7280    1.0245   -1.1447 O   0  0  0  0  0  0  0  0  0  0  0  0
   -1.0723    0.7339   -4.1097 C   0  0  0  0  0  0  0  0  0  0  0  0
   -3.7799    1.4285   -3.2028 H   0  0  0  0  0  0  0  0  0  0  0  0
   -2.1253   -1.0158   -3.4287 H   0  0  0  0  0  0  0  0  0  0  0  0
   -1.0609    1.8156   -3.9377 H   0  0  0  0  0  0  0  0  0  0  0  0
   -0.0869    0.3359   -3.8471 H   0  0  0  0  0  0  0  0  0  0  0  0
   -1.2448    0.5508   -5.1745 H   0  0  0  0  0  0  0  0  0  0  0  0
   -0.8652   -0.2722   -1.1296 N   0  0  0  0  0  0  0  0  0  0  0  0
   -0.1124    0.3391   -0.0204 C   0  0  2  0  0  0  0  0  0  0  0  0
   -0.8742    0.3232    1.3287 C   0  0  0  0  0  0  0  0  0  0  0  0
   -1.4301    1.3113    1.7977 O   0  0  0  0  0  0  0  0  0  0  0  0
    0.3922    1.7367   -0.4501 C   0  0  0  0  0  0  0  0  0  0  0  0
    1.4712    1.6347   -1.5265 C   0  0  0  0  0  0  0  0  0  0  0  0
    2.2002    0.6094   -1.5464 O   0  5  0  0  0  0  0  0  0  0  0  0
    1.5042    2.5411   -2.3911 O   0  0  0  0  0  0  0  0  0  0  0  0
   -0.2587   -0.7632   -1.7826 H   0  0  0  0  0  0  0  0  0  0  0  0
    0.7675   -0.2836    0.1681 H   0  0  0  0  0  0  0  0  0  0  0  0
    0.8384    2.2337    0.4148 H   0  0  0  0  0  0  0  0  0  0  0  0
   -0.4313    2.3655   -0.7983 H   0  0  0  0  0  0  0  0  0  0  0  0
   -0.7152   -0.7654    2.1697 N   0  0  0  0  0  0  0  0  0  0  0  0
   -1.2667   -0.8669    3.5260 C   0  0  2  0  0  0  0  0  0  0  0  0
   -0.4959   -1.8811    4.3961 C   0  0  0  0  0  0  0  0  0  0  0  0
    0.1623   -2.7789    3.8806 O   0  0  0  0  0  0  0  0  0  0  0  0
   -2.7407   -1.2734    3.4234 C   0  0  0  0  0  0  0  0  0  0  0  0
   -0.1645   -1.5491    1.8250 H   0  0  0  0  0  0  0  0  0  0  0  0
   -1.1952    0.1084    4.0187 H   0  0  0  0  0  0  0  0  0  0  0  0
   -2.8353   -2.2446    2.9276 H   0  0  0  0  0  0  0  0  0  0  0  0
   -3.1904   -1.3428    4.4180 H   0  0  0  0  0  0  0  0  0  0  0  0
   -3.2999   -0.5318    2.8439 H   0  0  0  0  0  0  0  0  0  0  0  0
   -0.5548   -1.7942    5.7758 N   0  0  0  0  0  0  0  0  0  0  0  0
    0.1739   -2.6865    6.6676 C   0  0  0  0  0  0  0  0  0  0  0  0
   -1.0623   -1.0078    6.1706 H   0  0  0  0  0  0  0  0  0  0  0  0
   -0.0845   -3.7304    6.4612 H   0  0  0  0  0  0  0  0  0  0  0  0
    1.2537   -2.5578    6.5395 H   0  0  0  0  0  0  0  0  0  0  0  0
   -0.0806   -2.4687    7.7091 H   0  0  0  0  0  0  0  0  0  0  0  0
  1  2  2  0  0  0  0
  1  3  1  0  0  0  0
  1  7  1  0  0  0  0
  3  4  1  0  0  0  0
  3  5  1  0  0  0  0
  3  6  1  0  0  0  0
  7  8  1  0  0  0  0
  7 12  1  0  0  0  0
  8  9  1  0  0  0  0
  8 11  1  0  0  0  0
  8 13  1  0  0  0  0
  9 10  2  0  0  0  0
  9 17  1  0  0  0  0
 11 14  1  0  0  0  0
 11 15  1  0  0  0  0
 11 16  1  0  0  0  0
 17 18  1  0  0  0  0
 17 25  1  0  0  0  0
 18 19  1  0  0  0  0
 18 21  1  0  0  0  0
 18 26  1  0  0  0  0
 19 20  2  0  0  0  0
 19 29  1  0  0  0  0
 21 22  1  0  0  0  0
 21 27  1  0  0  0  0
 21 28  1  0  0  0  0
 22 23  1  0  0  0  0
 22 24  2  0  0  0  0
 29 30  1  0  0  0  0
 29 34  1  0  0  0  0
 30 31  1  0  0  0  0
 30 33  1  0  0  0  0
 30 35  1  0  0  0  0
 31 32  2  0  0  0  0
 31 39  1  0  0  0  0
 33 36  1  0  0  0  0
 33 37  1  0  0  0  0
 33 38  1  0  0  0  0
 39 40  1  0  0  0  0
 39 41  1  0  0  0  0
 40 42  1  0  0  0  0
 40 43  1  0  0  0  0
 40 44  1  0  0  0  0
M  CHG  1  23  -1
M  END
$$$$

  -OEChem-05262215553D

 44 43  0     1  0  0  0  0  0999 V2000
   -4.4426   -0.1638   -4.3325 C   0  0  0  0  0  0  0  0  0  0  0  0
   -4.2068   -1.2884   -4.7492 O   0  0  0  0  0  0  0  0  0  0  0  0
   -5.8380    0.4155   -4.4747 C   0  0  0  0  0  0  0  0  0  0  0  0
   -5.8084    1.3029   -5.1115 H   0  0  0  0  0  0  0  0  0  0  0  0
   -6.5105   -0.3201   -4.9240 H   0  0  0  0  0  0  0  0  0  0  0  0
   -6.2263    0.6944   -3.4919 H   0  0  0  0  0  0  0  0  0  0  0  0
   -3.4615    0.5925   -3.7304 N   0  0  0  0  0  0  0  0  0  0  0  0
   -2.1723    0.0591   -3.2706 C   0  0  2  0  0  0  0  0  0  0  0  0
   -1.9523    0.3481   -1.7695 C   0  0  0  0  0  0  0  0  0  0  0  0
   -2.7379    1.0797   -1.1790 O   0  0  0  0  0  0  0  0  0  0  0  0
   -1.0661    0.7098   -4.1065 C   0  0  0  0  0  0  0  0  0  0  0  0
   -3.7858    1.4171   -3.2264 H   0  0  0  0  0  0  0  0  0  0  0  0
   -2.1311   -1.0262   -3.4065 H   0  0  0  0  0  0  0  0  0  0  0  0
   -1.0573    1.7943   -3.9540 H   0  0  0  0  0  0  0  0  0  0  0  0
   -0.0843    0.3168   -3.8234 H   0  0  0  0  0  0  0  0  0  0  0  0
   -1.2243    0.5072   -5.1699 H   0  0  0  0  0  0  0  0  0  0  0  0
   -0.8943   -0.2567   -1.1149 N   0  0  0  0  0  0  0  0  0  0  0  0
   -0.1528    0.3250    0.0182 C   0  0  2  0  0  0  0  0  0  0  0  0
   -0.9061    0.3000    1.3726 C   0  0  0  0  0  0  0  0  0  0  0  0
   -1.6777    1.1822    1.7325 O   0  0  0  0  0  0  0  0  0  0  0  0
    0.3684    1.7263   -0.3729 C   0  0  0  0  0  0  0  0  0  0  0  0
    1.4631    1.6397   -1.4352 C   0  0  0  0  0  0  0  0  0  0  0  0
    2.1846    0.6091   -1.4658 O   0  5  0  0  0  0  0  0  0  0  0  0
    1.5267    2.5714   -2.2707 O   0  0  0  0  0  0  0  0  0  0  0  0
   -0.2880   -0.7625   -1.7561 H   0  0  0  0  0  0  0  0  0  0  0  0
    0.7196   -0.3121    0.1920 H   0  0  0  0  0  0  0  0  0  0  0  0
    0.8030    2.2027    0.5094 H   0  0  0  0  0  0  0  0  0  0  0  0
   -0.4457    2.3672   -0.7219 H   0  0  0  0  0  0  0  0  0  0  0  0
   -0.5264   -0.6246    2.3320 N   0  0  0  0  0  0  0  0  0  0  0  0
   -1.0290   -0.6559    3.7110 C   0  0  2  0  0  0  0  0  0  0  0  0
   -0.0420   -1.3414    4.6785 C   0  0  0  0  0  0  0  0  0  0  0  0
    0.7984   -2.1327    4.2630 O   0  0  0  0  0  0  0  0  0  0  0  0
   -2.3755   -1.3876    3.7226 C   0  0  0  0  0  0  0  0  0  0  0  0
    0.2184   -1.2754    2.0896 H   0  0  0  0  0  0  0  0  0  0  0  0
   -1.1733    0.3698    4.0666 H   0  0  0  0  0  0  0  0  0  0  0  0
   -2.2560   -2.4134    3.3599 H   0  0  0  0  0  0  0  0  0  0  0  0
   -2.7856   -1.4198    4.7362 H   0  0  0  0  0  0  0  0  0  0  0  0
   -3.0936   -0.8720    3.0769 H   0  0  0  0  0  0  0  0  0  0  0  0
   -0.1057   -1.0737    6.0345 N   0  0  0  0  0  0  0  0  0  0  0  0
    0.8263   -1.6304    7.0063 C   0  0  0  0  0  0  0  0  0  0  0  0
   -0.7752   -0.3728    6.3384 H   0  0  0  0  0  0  0  0  0  0  0  0
    0.7982   -2.7248    6.9832 H   0  0  0  0  0  0  0  0  0  0  0  0
    1.8470   -1.2984    6.7900 H   0  0  0  0  0  0  0  0  0  0  0  0
    0.5604   -1.3005    8.0151 H   0  0  0  0  0  0  0  0  0  0  0  0
  1  2  2  0  0  0  0
  1  3  1  0  0  0  0
  1  7  1  0  0  0  0
  3  4  1  0  0  0  0
  3  5  1  0  0  0  0
  3  6  1  0  0  0  0
  7  8  1  0  0  0  0
  7 12  1  0  0  0  0
  8  9  1  0  0  0  0
  8 11  1  0  0  0  0
  8 13  1  0  0  0  0
  9 10  2  0  0  0  0
  9 17  1  0  0  0  0
 11 14  1  0  0  0  0
 11 15  1  0  0  0  0
 11 16  1  0  0  0  0
 17 18  1  0  0  0  0
 17 25  1  0  0  0  0
 18 19  1  0  0  0  0
 18 21  1  0  0  0  0
 18 26  1  0  0  0  0
 19 20  2  0  0  0  0
 19 29  1  0  0  0  0
 21 22  1  0  0  0  0
 21 27  1  0  0  0  0
 21 28  1  0  0  0  0
 22 23  1  0  0  0  0
 22 24  2  0  0  0  0
 29 30  1  0  0  0  0
 29 34  1  0  0  0  0
 30 31  1  0  0  0  0
 30 33  1  0  0  0  0
 30 35  1  0  0  0  0
 31 32  2  0  0  0  0
 31 39  1  0  0  0  0
 33 36  1  0  0  0  0
 33 37  1  0  0  0  0
 33 38  1  0  0  0  0
 39 40  1  0  0  0  0
 39 41  1  0  0  0  0
 40 42  1  0  0  0  0
 40 43  1  0  0  0  0
 40 44  1  0  0  0  0
M  CHG  1  23  -1
M  END
$$$$

  -OEChem-05262215553D

 44 43  0     1  0  0  0  0  0999 V2000
   -4.4623   -0.1476   -4.3464 C   0  0  0  0  0  0  0  0  0  0  0  0
   -4.2111   -1.2528   -4.8041 O   0  0  0  0  0  0  0  0  0  0  0  0
   -5.8574    0.4317   -4.4964 C   0  0  0  0  0  0  0  0  0  0  0  0
   -5.8191    1.3404   -5.1020 H   0  0  0  0  0  0  0  0  0  0  0  0
   -6.5174   -0.2908   -4.9845 H   0  0  0  0  0  0  0  0  0  0  0  0
   -6.2677    0.6757   -3.5130 H   0  0  0  0  0  0  0  0  0  0  0  0
   -3.4972    0.5815   -3.6878 N   0  0  0  0  0  0  0  0  0  0  0  0
   -2.2143    0.0349   -3.2264 C   0  0  2  0  0  0  0  0  0  0  0  0
   -1.9520    0.4085   -1.7510 C   0  0  0  0  0  0  0  0  0  0  0  0
   -2.6862    1.2278   -1.2117 O   0  0  0  0  0  0  0  0  0  0  0  0
   -1.1040    0.5946   -4.1213 C   0  0  0  0  0  0  0  0  0  0  0  0
   -3.8250    1.3960   -3.1684 H   0  0  0  0  0  0  0  0  0  0  0  0
   -2.2163   -1.0577   -3.2945 H   0  0  0  0  0  0  0  0  0  0  0  0
   -1.0580    1.6855   -4.0384 H   0  0  0  0  0  0  0  0  0  0  0  0
   -0.1296    0.1885   -3.8306 H   0  0  0  0  0  0  0  0  0  0  0  0
   -1.2908    0.3305   -5.1663 H   0  0  0  0  0  0  0  0  0  0  0  0
   -0.8957   -0.1943   -1.0894 N   0  0  0  0  0  0  0  0  0  0  0  0
   -0.1610    0.3588    0.0630 C   0  0  2  0  0  0  0  0  0  0  0  0
   -0.8927    0.3146    1.4296 C   0  0  0  0  0  0  0  0  0  0  0  0
   -1.9216    0.9299    1.6798 O   0  0  0  0  0  0  0  0  0  0  0  0
    0.3834    1.7616   -0.2848 C   0  0  0  0  0  0  0  0  0  0  0  0
    1.4936    1.6904   -1.3326 C   0  0  0  0  0  0  0  0  0  0  0  0
    2.2037    0.6524   -1.3794 O   0  5  0  0  0  0  0  0  0  0  0  0
    1.6027    2.6577   -2.1213 O   0  0  0  0  0  0  0  0  0  0  0  0
   -0.3055   -0.7372   -1.7142 H   0  0  0  0  0  0  0  0  0  0  0  0
    0.7010   -0.2967    0.2179 H   0  0  0  0  0  0  0  0  0  0  0  0
    0.8080    2.2130    0.6153 H   0  0  0  0  0  0  0  0  0  0  0  0
   -0.4178    2.4177   -0.6338 H   0  0  0  0  0  0  0  0  0  0  0  0
   -0.3155   -0.3896    2.4739 N   0  0  0  0  0  0  0  0  0  0  0  0
   -0.8351   -0.4227    3.8467 C   0  0  2  0  0  0  0  0  0  0  0  0
    0.2789   -0.6689    4.8841 C   0  0  0  0  0  0  0  0  0  0  0  0
    1.3034   -1.2671    4.5731 O   0  0  0  0  0  0  0  0  0  0  0  0
   -1.8989   -1.5213    3.9380 C   0  0  0  0  0  0  0  0  0  0  0  0
    0.6023   -0.8014    2.3110 H   0  0  0  0  0  0  0  0  0  0  0  0
   -1.2933    0.5427    4.0852 H   0  0  0  0  0  0  0  0  0  0  0  0
   -1.4639   -2.4958    3.6940 H   0  0  0  0  0  0  0  0  0  0  0  0
   -2.3175   -1.5675    4.9476 H   0  0  0  0  0  0  0  0  0  0  0  0
   -2.7140   -1.3185    3.2358 H   0  0  0  0  0  0  0  0  0  0  0  0
    0.1244   -0.2239    6.1850 N   0  0  0  0  0  0  0  0  0  0  0  0
    1.1595   -0.3546    7.2017 C   0  0  0  0  0  0  0  0  0  0  0  0
   -0.7037    0.3266    6.3923 H   0  0  0  0  0  0  0  0  0  0  0  0
    1.4228   -1.4073    7.3477 H   0  0  0  0  0  0  0  0  0  0  0  0
    2.0579    0.1968    6.9052 H   0  0  0  0  0  0  0  0  0  0  0  0
    0.8039    0.0473    8.1550 H   0  0  0  0  0  0  0  0  0  0  0  0
  1  2  2  0  0  0  0
  1  3  1  0  0  0  0
  1  7  1  0  0  0  0
  3  4  1  0  0  0  0
  3  5  1  0  0  0  0
  3  6  1  0  0  0  0
  7  8  1  0  0  0  0
  7 12  1  0  0  0  0
  8  9  1  0  0  0  0
  8 11  1  0  0  0  0
  8 13  1  0  0  0  0
  9 10  2  0  0  0  0
  9 17  1  0  0  0  0
 11 14  1  0  0  0  0
 11 15  1  0  0  0  0
 11 16  1  0  0  0  0
 17 18  1  0  0  0  0
 17 25  1  0  0  0  0
 18 19  1  0  0  0  0
 18 21  1  0  0  0  0
 18 26  1  0  0  0  0
 19 20  2  0  0  0  0
 19 29  1  0  0  0  0
 21 22  1  0  0  0  0
 21 27  1  0  0  0  0
 21 28  1  0  0  0  0
 22 23  1  0  0  0  0
 22 24  2  0  0  0  0
 29 30  1  0  0  0  0
 29 34  1  0  0  0  0
 30 31  1  0  0  0  0
 30 33  1  0  0  0  0
 30 35  1  0  0  0  0
 31 32  2  0  0  0  0
 31 39  1  0  0  0  0
 33 36  1  0  0  0  0
 33 37  1  0  0  0  0
 33 38  1  0  0  0  0
 39 40  1  0  0  0  0
 39 41  1  0  0  0  0
 40 42  1  0  0  0  0
 40 43  1  0  0  0  0
 40 44  1  0  0  0  0
M  CHG  1  23  -1
M  END
$$$$

  -OEChem-05262215553D

 44 43  0     1  0  0  0  0  0999 V2000
   -4.5851   -0.1205   -4.1667 C   0  0  0  0  0  0  0  0  0  0  0  0
   -4.4384   -1.2712   -4.5523 O   0  0  0  0  0  0  0  0  0  0  0  0
   -5.9313    0.5631   -4.3204 C   0  0  0  0  0  0  0  0  0  0  0  0
   -5.8308    1.4427   -4.9609 H   0  0  0  0  0  0  0  0  0  0  0  0
   -6.6547   -0.1220   -4.7705 H   0  0  0  0  0  0  0  0  0  0  0  0
   -6.3030    0.8760   -3.3415 H   0  0  0  0  0  0  0  0  0  0  0  0
   -3.5438    0.5692   -3.5871 N   0  0  0  0  0  0  0  0  0  0  0  0
   -2.2857   -0.0419   -3.1407 C   0  0  2  0  0  0  0  0  0  0  0  0
   -1.8699    0.5028   -1.7561 C   0  0  0  0  0  0  0  0  0  0  0  0
   -2.4863    1.4564   -1.2915 O   0  0  0  0  0  0  0  0  0  0  0  0
   -1.2089    0.2607   -4.1869 C   0  0  0  0  0  0  0  0  0  0  0  0
   -3.7816    1.4465   -3.1232 H   0  0  0  0  0  0  0  0  0  0  0  0
   -2.4028   -1.1260   -3.0443 H   0  0  0  0  0  0  0  0  0  0  0  0
   -1.0525    1.3412   -4.2731 H   0  0  0  0  0  0  0  0  0  0  0  0
   -0.2573   -0.2035   -3.9097 H   0  0  0  0  0  0  0  0  0  0  0  0
   -1.5117   -0.1291   -5.1635 H   0  0  0  0  0  0  0  0  0  0  0  0
   -0.8059   -0.0910   -1.0972 N   0  0  0  0  0  0  0  0  0  0  0  0
   -0.0583    0.4758    0.0395 C   0  0  2  0  0  0  0  0  0  0  0  0
   -0.7758    0.4471    1.4135 C   0  0  0  0  0  0  0  0  0  0  0  0
   -1.9881    0.5627    1.5521 O   0  0  0  0  0  0  0  0  0  0  0  0
    0.5194    1.8645   -0.3103 C   0  0  0  0  0  0  0  0  0  0  0  0
    1.6343    1.7683   -1.3517 C   0  0  0  0  0  0  0  0  0  0  0  0
    2.3233    0.7157   -1.3920 O   0  5  0  0  0  0  0  0  0  0  0  0
    1.7896    2.7456   -2.1205 O   0  0  0  0  0  0  0  0  0  0  0  0
   -0.2685   -0.7276   -1.6780 H   0  0  0  0  0  0  0  0  0  0  0  0
    0.7891   -0.1981    0.1965 H   0  0  0  0  0  0  0  0  0  0  0  0
    0.9493    2.3093    0.5905 H   0  0  0  0  0  0  0  0  0  0  0  0
   -0.2633    2.5381   -0.6664 H   0  0  0  0  0  0  0  0  0  0  0  0
   -0.0600    0.0420    2.5286 N   0  0  0  0  0  0  0  0  0  0  0  0
   -0.6296   -0.1062    3.8742 C   0  0  2  0  0  0  0  0  0  0  0  0
    0.3935    0.1906    4.9895 C   0  0  0  0  0  0  0  0  0  0  0  0
    1.5963    0.0662    4.7873 O   0  0  0  0  0  0  0  0  0  0  0  0
   -1.1635   -1.5348    4.0142 C   0  0  0  0  0  0  0  0  0  0  0  0
    0.9545   -0.0054    2.4393 H   0  0  0  0  0  0  0  0  0  0  0  0
   -1.4562    0.6008    3.9995 H   0  0  0  0  0  0  0  0  0  0  0  0
   -0.3513   -2.2592    3.8978 H   0  0  0  0  0  0  0  0  0  0  0  0
   -1.6221   -1.6776    4.9970 H   0  0  0  0  0  0  0  0  0  0  0  0
   -1.9197   -1.7336    3.2481 H   0  0  0  0  0  0  0  0  0  0  0  0
   -0.0444    0.5740    6.2450 N   0  0  0  0  0  0  0  0  0  0  0  0
    0.8570    0.8985    7.3420 C   0  0  0  0  0  0  0  0  0  0  0  0
   -1.0425    0.7174    6.3669 H   0  0  0  0  0  0  0  0  0  0  0  0
    1.5022    0.0445    7.5726 H   0  0  0  0  0  0  0  0  0  0  0  0
    1.4852    1.7558    7.0793 H   0  0  0  0  0  0  0  0  0  0  0  0
    0.2843    1.1499    8.2395 H   0  0  0  0  0  0  0  0  0  0  0  0
  1  2  2  0  0  0  0
  1  3  1  0  0  0  0
  1  7  1  0  0  0  0
  3  4  1  0  0  0  0
  3  5  1  0  0  0  0
  3  6  1  0  0  0  0
  7  8  1  0  0  0  0
  7 12  1  0  0  0  0
  8  9  1  0  0  0  0
  8 11  1  0  0  0  0
  8 13  1  0  0  0  0
  9 10  2  0  0  0  0
  9 17  1  0  0  0  0
 11 14  1  0  0  0  0
 11 15  1  0  0  0  0
 11 16  1  0  0  0  0
 17 18  1  0  0  0  0
 17 25  1  0  0  0  0
 18 19  1  0  0  0  0
 18 21  1  0  0  0  0
 18 26  1  0  0  0  0
 19 20  2  0  0  0  0
 19 29  1  0  0  0  0
 21 22  1  0  0  0  0
 21 27  1  0  0  0  0
 21 28  1  0  0  0  0
 22 23  1  0  0  0  0
 22 24  2  0  0  0  0
 29 30  1  0  0  0  0
 29 34  1  0  0  0  0
 30 31  1  0  0  0  0
 30 33  1  0  0  0  0
 30 35  1  0  0  0  0
 31 32  2  0  0  0  0
 31 39  1  0  0  0  0
 33 36  1  0  0  0  0
 33 37  1  0  0  0  0
 33 38  1  0  0  0  0
 39 40  1  0  0  0  0
 39 41  1  0  0  0  0
 40 42  1  0  0  0  0
 40 43  1  0  0  0  0
 40 44  1  0  0  0  0
M  CHG  1  23  -1
M  END
$$$$

  -OEChem-05262215553D

 44 43  0     1  0  0  0  0  0999 V2000
   -4.5887   -0.1074   -4.1494 C   0  0  0  0  0  0  0  0  0  0  0  0
   -4.4352   -1.2484   -4.5602 O   0  0  0  0  0  0  0  0  0  0  0  0
   -5.9337    0.5788   -4.3071 C   0  0  0  0  0  0  0  0  0  0  0  0
   -5.8272    1.4668   -4.9348 H   0  0  0  0  0  0  0  0  0  0  0  0
   -6.6526   -0.0998   -4.7740 H   0  0  0  0  0  0  0  0  0  0  0  0
   -6.3161    0.8786   -3.3281 H   0  0  0  0  0  0  0  0  0  0  0  0
   -3.5543    0.5681   -3.5415 N   0  0  0  0  0  0  0  0  0  0  0  0
   -2.2967   -0.0517   -3.1060 C   0  0  2  0  0  0  0  0  0  0  0  0
   -1.8650    0.4883   -1.7256 C   0  0  0  0  0  0  0  0  0  0  0  0
   -2.4705    1.4442   -1.2486 O   0  0  0  0  0  0  0  0  0  0  0  0
   -1.2229    0.2449   -4.1574 C   0  0  0  0  0  0  0  0  0  0  0  0
   -3.7932    1.4377   -3.0642 H   0  0  0  0  0  0  0  0  0  0  0  0
   -2.4218   -1.1350   -3.0085 H   0  0  0  0  0  0  0  0  0  0  0  0
   -1.0601    1.3245   -4.2438 H   0  0  0  0  0  0  0  0  0  0  0  0
   -0.2731   -0.2249   -3.8842 H   0  0  0  0  0  0  0  0  0  0  0  0
   -1.5308   -0.1422   -5.1333 H   0  0  0  0  0  0  0  0  0  0  0  0
   -0.7982   -0.1098   -1.0767 N   0  0  0  0  0  0  0  0  0  0  0  0
   -0.0405    0.4728    0.0434 C   0  0  2  0  0  0  0  0  0  0  0  0
   -0.7594    0.4604    1.4160 C   0  0  0  0  0  0  0  0  0  0  0  0
   -1.9610    0.2474    1.5439 O   0  0  0  0  0  0  0  0  0  0  0  0
    0.5410    1.8558   -0.3288 C   0  0  0  0  0  0  0  0  0  0  0  0
    1.6486    1.7420   -1.3758 C   0  0  0  0  0  0  0  0  0  0  0  0
    2.3336    0.6870   -1.4075 O   0  5  0  0  0  0  0  0  0  0  0  0
    1.8022    2.7095   -2.1571 O   0  0  0  0  0  0  0  0  0  0  0  0
   -0.2719   -0.7588   -1.6535 H   0  0  0  0  0  0  0  0  0  0  0  0
    0.8052   -0.2012    0.2103 H   0  0  0  0  0  0  0  0  0  0  0  0
    0.9799    2.3122    0.5615 H   0  0  0  0  0  0  0  0  0  0  0  0
   -0.2402    2.5289   -0.6887 H   0  0  0  0  0  0  0  0  0  0  0  0
    0.0085    0.3801    2.5660 N   0  0  0  0  0  0  0  0  0  0  0  0
   -0.5388    0.2702    3.9248 C   0  0  2  0  0  0  0  0  0  0  0  0
    0.3407    0.9749    4.9779 C   0  0  0  0  0  0  0  0  0  0  0  0
    1.5429    1.1282    4.7924 O   0  0  0  0  0  0  0  0  0  0  0  0
   -0.6867   -1.2157    4.2665 C   0  0  0  0  0  0  0  0  0  0  0  0
    1.0037    0.5825    2.4740 H   0  0  0  0  0  0  0  0  0  0  0  0
   -1.5243    0.7466    3.9587 H   0  0  0  0  0  0  0  0  0  0  0  0
    0.2886   -1.7121    4.2419 H   0  0  0  0  0  0  0  0  0  0  0  0
   -1.1171   -1.3396    5.2646 H   0  0  0  0  0  0  0  0  0  0  0  0
   -1.3457   -1.7057    3.5428 H   0  0  0  0  0  0  0  0  0  0  0  0
   -0.2222    1.4178    6.1619 N   0  0  0  0  0  0  0  0  0  0  0  0
    0.5345    2.1024    7.2020 C   0  0  0  0  0  0  0  0  0  0  0  0
   -1.2278    1.3184    6.2655 H   0  0  0  0  0  0  0  0  0  0  0  0
    1.3414    1.4614    7.5721 H   0  0  0  0  0  0  0  0  0  0  0  0
    0.9699    3.0291    6.8135 H   0  0  0  0  0  0  0  0  0  0  0  0
   -0.1205    2.3528    8.0420 H   0  0  0  0  0  0  0  0  0  0  0  0
  1  2  2  0  0  0  0
  1  3  1  0  0  0  0
  1  7  1  0  0  0  0
  3  4  1  0  0  0  0
  3  5  1  0  0  0  0
  3  6  1  0  0  0  0
  7  8  1  0  0  0  0
  7 12  1  0  0  0  0
  8  9  1  0  0  0  0
  8 11  1  0  0  0  0
  8 13  1  0  0  0  0
  9 10  2  0  0  0  0
  9 17  1  0  0  0  0
 11 14  1  0  0  0  0
 11 15  1  0  0  0  0
 11 16  1  0  0  0  0
 17 18  1  0  0  0  0
 17 25  1  0  0  0  0
 18 19  1  0  0  0  0
 18 21  1  0  0  0  0
 18 26  1  0  0  0  0
 19 20  2  0  0  0  0
 19 29  1  0  0  0  0
 21 22  1  0  0  0  0
 21 27  1  0  0  0  0
 21 28  1  0  0  0  0
 22 23  1  0  0  0  0
 22 24  2  0  0  0  0
 29 30  1  0  0  0  0
 29 34  1  0  0  0  0
 30 31  1  0  0  0  0
 30 33  1  0  0  0  0
 30 35  1  0  0  0  0
 31 32  2  0  0  0  0
 31 39  1  0  0  0  0
 33 36  1  0  0  0  0
 33 37  1  0  0  0  0
 33 38  1  0  0  0  0
 39 40  1  0  0  0  0
 39 41  1  0  0  0  0
 40 42  1  0  0  0  0
 40 43  1  0  0  0  0
 40 44  1  0  0  0  0
M  CHG  1  23  -1
M  END
$$$$

  -OEChem-05262215553D

 44 43  0     1  0  0  0  0  0999 V2000
   -4.5660   -0.0888   -4.1633 C   0  0  0  0  0  0  0  0  0  0  0  0
   -4.3955   -1.2111   -4.6163 O   0  0  0  0  0  0  0  0  0  0  0  0
   -5.9203    0.5831   -4.2994 C   0  0  0  0  0  0  0  0  0  0  0  0
   -5.8284    1.4844   -4.9102 H   0  0  0  0  0  0  0  0  0  0  0  0
   -6.6336   -0.0956   -4.7751 H   0  0  0  0  0  0  0  0  0  0  0  0
   -6.2999    0.8584   -3.3121 H   0  0  0  0  0  0  0  0  0  0  0  0
   -3.5456    0.5770   -3.5212 N   0  0  0  0  0  0  0  0  0  0  0  0
   -2.2862   -0.0440   -3.0926 C   0  0  2  0  0  0  0  0  0  0  0  0
   -1.8809    0.4429   -1.6843 C   0  0  0  0  0  0  0  0  0  0  0  0
   -2.5027    1.3705   -1.1719 O   0  0  0  0  0  0  0  0  0  0  0  0
   -1.2007    0.3113   -4.1141 C   0  0  0  0  0  0  0  0  0  0  0  0
   -3.8004    1.4265   -3.0172 H   0  0  0  0  0  0  0  0  0  0  0  0
   -2.3979   -1.1320   -3.0445 H   0  0  0  0  0  0  0  0  0  0  0  0
   -1.0471    1.3951   -4.1478 H   0  0  0  0  0  0  0  0  0  0  0  0
   -0.2499   -0.1619   -3.8491 H   0  0  0  0  0  0  0  0  0  0  0  0
   -1.4910   -0.0325   -5.1117 H   0  0  0  0  0  0  0  0  0  0  0  0
   -0.8149   -0.1636   -1.0431 N   0  0  0  0  0  0  0  0  0  0  0  0
   -0.0404    0.4373    0.0559 C   0  0  2  0  0  0  0  0  0  0  0  0
   -0.7527    0.4595    1.4314 C   0  0  0  0  0  0  0  0  0  0  0  0
   -1.8754   -0.0075    1.6036 O   0  0  0  0  0  0  0  0  0  0  0  0
    0.5363    1.8098   -0.3658 C   0  0  0  0  0  0  0  0  0  0  0  0
    1.6245    1.6610   -1.4282 C   0  0  0  0  0  0  0  0  0  0  0  0
    2.3066    0.6040   -1.4415 O   0  5  0  0  0  0  0  0  0  0  0  0
    1.7530    2.5977   -2.2503 O   0  0  0  0  0  0  0  0  0  0  0  0
   -0.2857   -0.7994   -1.6323 H   0  0  0  0  0  0  0  0  0  0  0  0
    0.8049   -0.2334    0.2373 H   0  0  0  0  0  0  0  0  0  0  0  0
    0.9951    2.2923    0.5003 H   0  0  0  0  0  0  0  0  0  0  0  0
   -0.2495    2.4751   -0.7299 H   0  0  0  0  0  0  0  0  0  0  0  0
   -0.0027    0.7122    2.5681 N   0  0  0  0  0  0  0  0  0  0  0  0
   -0.5308    0.6727    3.9382 C   0  0  2  0  0  0  0  0  0  0  0  0
    0.1302    1.7154    4.8626 C   0  0  0  0  0  0  0  0  0  0  0  0
    1.2619    2.1293    4.6370 O   0  0  0  0  0  0  0  0  0  0  0  0
   -0.3170   -0.7379    4.4938 C   0  0  0  0  0  0  0  0  0  0  0  0
    0.9220    1.1193    2.4303 H   0  0  0  0  0  0  0  0  0  0  0  0
   -1.6029    0.8935    3.9208 H   0  0  0  0  0  0  0  0  0  0  0  0
    0.7505   -0.9794    4.5205 H   0  0  0  0  0  0  0  0  0  0  0  0
   -0.7191   -0.8164    5.5081 H   0  0  0  0  0  0  0  0  0  0  0  0
   -0.8255   -1.4737    3.8627 H   0  0  0  0  0  0  0  0  0  0  0  0
   -0.5466    2.1740    5.9790 N   0  0  0  0  0  0  0  0  0  0  0  0
   -0.0114    3.1861    6.8798 C   0  0  0  0  0  0  0  0  0  0  0  0
   -1.5021    1.8544    6.1076 H   0  0  0  0  0  0  0  0  0  0  0  0
    0.9376    2.8511    7.3115 H   0  0  0  0  0  0  0  0  0  0  0  0
    0.1563    4.1257    6.3428 H   0  0  0  0  0  0  0  0  0  0  0  0
   -0.7147    3.3736    7.6967 H   0  0  0  0  0  0  0  0  0  0  0  0
  1  2  2  0  0  0  0
  1  3  1  0  0  0  0
  1  7  1  0  0  0  0
  3  4  1  0  0  0  0
  3  5  1  0  0  0  0
  3  6  1  0  0  0  0
  7  8  1  0  0  0  0
  7 12  1  0  0  0  0
  8  9  1  0  0  0  0
  8 11  1  0  0  0  0
  8 13  1  0  0  0  0
  9 10  2  0  0  0  0
  9 17  1  0  0  0  0
 11 14  1  0  0  0  0
 11 15  1  0  0  0  0
 11 16  1  0  0  0  0
 17 18  1  0  0  0  0
 17 25  1  0  0  0  0
 18 19  1  0  0  0  0
 18 21  1  0  0  0  0
 18 26  1  0  0  0  0
 19 20  2  0  0  0  0
 19 29  1  0  0  0  0
 21 22  1  0  0  0  0
 21 27  1  0  0  0  0
 21 28  1  0  0  0  0
 22 23  1  0  0  0  0
 22 24  2  0  0  0  0
 29 30  1  0  0  0  0
 29 34  1  0  0  0  0
 30 31  1  0  0  0  0
 30 33  1  0  0  0  0
 30 35  1  0  0  0  0
 31 32  2  0  0  0  0
 31 39  1  0  0  0  0
 33 36  1  0  0  0  0
 33 37  1  0  0  0  0
 33 38  1  0  0  0  0
 39 40  1  0  0  0  0
 39 41  1  0  0  0  0
 40 42  1  0  0  0  0
 40 43  1  0  0  0  0
 40 44  1  0  0  0  0
M  CHG  1  23  -1
M  END
$$$$

  -OEChem-05262215553D

 44 43  0     1  0  0  0  0  0999 V2000
   -4.5540   -0.0666   -4.1698 C   0  0  0  0  0  0  0  0  0  0  0  0
   -4.3543   -1.1628   -4.6724 O   0  0  0  0  0  0  0  0  0  0  0  0
   -5.9194    0.5840   -4.2969 C   0  0  0  0  0  0  0  0  0  0  0  0
   -5.8338    1.5219   -4.8512 H   0  0  0  0  0  0  0  0  0  0  0  0
   -6.6077   -0.0797   -4.8273 H   0  0  0  0  0  0  0  0  0  0  0  0
   -6.3255    0.7923   -3.3041 H   0  0  0  0  0  0  0  0  0  0  0  0
   -3.5574    0.5916   -3.4840 N   0  0  0  0  0  0  0  0  0  0  0  0
   -2.2861   -0.0174   -3.0719 C   0  0  2  0  0  0  0  0  0  0  0  0
   -1.9650    0.3082   -1.5968 C   0  0  0  0  0  0  0  0  0  0  0  0
   -2.6963    1.0723   -0.9708 O   0  0  0  0  0  0  0  0  0  0  0  0
   -1.1825    0.5201   -3.9889 C   0  0  0  0  0  0  0  0  0  0  0  0
   -3.8430    1.4047   -2.9392 H   0  0  0  0  0  0  0  0  0  0  0  0
   -2.3354   -1.1069   -3.1649 H   0  0  0  0  0  0  0  0  0  0  0  0
   -1.0877    1.6059   -3.8780 H   0  0  0  0  0  0  0  0  0  0  0  0
   -0.2169    0.0664   -3.7436 H   0  0  0  0  0  0  0  0  0  0  0  0
   -1.4142    0.2936   -5.0339 H   0  0  0  0  0  0  0  0  0  0  0  0
   -0.8741   -0.2856   -0.9894 N   0  0  0  0  0  0  0  0  0  0  0  0
   -0.0594    0.3586    0.0572 C   0  0  2  0  0  0  0  0  0  0  0  0
   -0.5685    0.0942    1.4957 C   0  0  0  0  0  0  0  0  0  0  0  0
   -1.4102   -0.7671    1.7384 O   0  0  0  0  0  0  0  0  0  0  0  0
    0.2457    1.8458   -0.2638 C   0  0  0  0  0  0  0  0  0  0  0  0
    1.1937    1.9814   -1.4553 C   0  0  0  0  0  0  0  0  0  0  0  0
    2.0183    1.0571   -1.6732 O   0  5  0  0  0  0  0  0  0  0  0  0
    1.0689    3.0022   -2.1708 O   0  0  0  0  0  0  0  0  0  0  0  0
   -0.3318   -0.8599   -1.6267 H   0  0  0  0  0  0  0  0  0  0  0  0
    0.9008   -0.1658    0.0596 H   0  0  0  0  0  0  0  0  0  0  0  0
    0.7473    2.3067    0.5896 H   0  0  0  0  0  0  0  0  0  0  0  0
   -0.6667    2.4174   -0.4448 H   0  0  0  0  0  0  0  0  0  0  0  0
    0.1029    0.6419    2.5759 N   0  0  0  0  0  0  0  0  0  0  0  0
   -0.2531    0.4121    3.9820 C   0  0  2  0  0  0  0  0  0  0  0  0
   -0.0040    1.6509    4.8663 C   0  0  0  0  0  0  0  0  0  0  0  0
    0.8602    2.4693    4.5726 O   0  0  0  0  0  0  0  0  0  0  0  0
    0.5635   -0.7776    4.4947 C   0  0  0  0  0  0  0  0  0  0  0  0
    0.7724    1.3839    2.3742 H   0  0  0  0  0  0  0  0  0  0  0  0
   -1.3193    0.1743    4.0550 H   0  0  0  0  0  0  0  0  0  0  0  0
    1.6346   -0.5594    4.4346 H   0  0  0  0  0  0  0  0  0  0  0  0
    0.3090   -0.9972    5.5357 H   0  0  0  0  0  0  0  0  0  0  0  0
    0.3551   -1.6678    3.8926 H   0  0  0  0  0  0  0  0  0  0  0  0
   -0.7384    1.8307    6.0251 N   0  0  0  0  0  0  0  0  0  0  0  0
   -0.5899    2.9897    6.8947 C   0  0  0  0  0  0  0  0  0  0  0  0
   -1.4824    1.1653    6.2124 H   0  0  0  0  0  0  0  0  0  0  0  0
    0.4295    3.0430    7.2907 H   0  0  0  0  0  0  0  0  0  0  0  0
   -0.8040    3.9115    6.3439 H   0  0  0  0  0  0  0  0  0  0  0  0
   -1.2844    2.9203    7.7371 H   0  0  0  0  0  0  0  0  0  0  0  0
  1  2  2  0  0  0  0
  1  3  1  0  0  0  0
  1  7  1  0  0  0  0
  3  4  1  0  0  0  0
  3  5  1  0  0  0  0
  3  6  1  0  0  0  0
  7  8  1  0  0  0  0
  7 12  1  0  0  0  0
  8  9  1  0  0  0  0
  8 11  1  0  0  0  0
  8 13  1  0  0  0  0
  9 10  2  0  0  0  0
  9 17  1  0  0  0  0
 11 14  1  0  0  0  0
 11 15  1  0  0  0  0
 11 16  1  0  0  0  0
 17 18  1  0  0  0  0
 17 25  1  0  0  0  0
 18 19  1  0  0  0  0
 18 21  1  0  0  0  0
 18 26  1  0  0  0  0
 19 20  2  0  0  0  0
 19 29  1  0  0  0  0
 21 22  1  0  0  0  0
 21 27  1  0  0  0  0
 21 28  1  0  0  0  0
 22 23  1  0  0  0  0
 22 24  2  0  0  0  0
 29 30  1  0  0  0  0
 29 34  1  0  0  0  0
 30 31  1  0  0  0  0
 30 33  1  0  0  0  0
 30 35  1  0  0  0  0
 31 32  2  0  0  0  0
 31 39  1  0  0  0  0
 33 36  1  0  0  0  0
 33 37  1  0  0  0  0
 33 38  1  0  0  0  0
 39 40  1  0  0  0  0
 39 41  1  0  0  0  0
 40 42  1  0  0  0  0
 40 43  1  0  0  0  0
 40 44  1  0  0  0  0
M  CHG  1  23  -1
M  END
$$$$

  -OEChem-05262215553D

 44 43  0     1  0  0  0  0  0999 V2000
   -4.5529   -0.0779   -4.1309 C   0  0  0  0  0  0  0  0  0  0  0  0
   -4.3498   -1.1691   -4.6425 O   0  0  0  0  0  0  0  0  0  0  0  0
   -5.9111    0.5837   -4.2783 C   0  0  0  0  0  0  0  0  0  0  0  0
   -5.8075    1.5269   -4.8203 H   0  0  0  0  0  0  0  0  0  0  0  0
   -6.5920   -0.0688   -4.8314 H   0  0  0  0  0  0  0  0  0  0  0  0
   -6.3373    0.7840   -3.2922 H   0  0  0  0  0  0  0  0  0  0  0  0
   -3.5633    0.5667   -3.4226 N   0  0  0  0  0  0  0  0  0  0  0  0
   -2.2856   -0.0402   -3.0287 C   0  0  2  0  0  0  0  0  0  0  0  0
   -1.9294    0.3070   -1.5672 C   0  0  0  0  0  0  0  0  0  0  0  0
   -2.6606    1.0570   -0.9239 O   0  0  0  0  0  0  0  0  0  0  0  0
   -1.2018    0.4772   -3.9799 C   0  0  0  0  0  0  0  0  0  0  0  0
   -3.8466    1.3785   -2.8749 H   0  0  0  0  0  0  0  0  0  0  0  0
   -2.3427   -1.1310   -3.1023 H   0  0  0  0  0  0  0  0  0  0  0  0
   -1.1059    1.5651   -3.8952 H   0  0  0  0  0  0  0  0  0  0  0  0
   -0.2313    0.0289   -3.7449 H   0  0  0  0  0  0  0  0  0  0  0  0
   -1.4554    0.2279   -5.0146 H   0  0  0  0  0  0  0  0  0  0  0  0
   -0.8206   -0.2688   -0.9762 N   0  0  0  0  0  0  0  0  0  0  0  0
    0.0042    0.3991    0.0472 C   0  0  2  0  0  0  0  0  0  0  0  0
   -0.4960    0.1305    1.4882 C   0  0  0  0  0  0  0  0  0  0  0  0
   -1.1449   -0.8767    1.7612 O   0  0  0  0  0  0  0  0  0  0  0  0
    0.2791    1.8878   -0.2972 C   0  0  0  0  0  0  0  0  0  0  0  0
    1.2004    2.0245   -1.5089 C   0  0  0  0  0  0  0  0  0  0  0  0
    2.0358    1.1119   -1.7344 O   0  5  0  0  0  0  0  0  0  0  0  0
    1.0377    3.0314   -2.2363 O   0  0  0  0  0  0  0  0  0  0  0  0
   -0.2809   -0.8393   -1.6199 H   0  0  0  0  0  0  0  0  0  0  0  0
    0.9739   -0.1076    0.0439 H   0  0  0  0  0  0  0  0  0  0  0  0
    0.7944    2.3667    0.5375 H   0  0  0  0  0  0  0  0  0  0  0  0
   -0.6448    2.4440   -0.4648 H   0  0  0  0  0  0  0  0  0  0  0  0
   -0.0534    0.9061    2.5461 N   0  0  0  0  0  0  0  0  0  0  0  0
   -0.4933    0.7391    3.9367 C   0  0  2  0  0  0  0  0  0  0  0  0
   -0.5915    2.0816    4.6901 C   0  0  0  0  0  0  0  0  0  0  0  0
    0.1174    3.0313    4.3765 O   0  0  0  0  0  0  0  0  0  0  0  0
    0.4922   -0.1956    4.6431 C   0  0  0  0  0  0  0  0  0  0  0  0
    0.4276    1.7726    2.3069 H   0  0  0  0  0  0  0  0  0  0  0  0
   -1.4908    0.2878    3.9523 H   0  0  0  0  0  0  0  0  0  0  0  0
    1.4968    0.2391    4.6438 H   0  0  0  0  0  0  0  0  0  0  0  0
    0.1830   -0.3653    5.6785 H   0  0  0  0  0  0  0  0  0  0  0  0
    0.5313   -1.1620    4.1307 H   0  0  0  0  0  0  0  0  0  0  0  0
   -1.4671    2.2154    5.7534 N   0  0  0  0  0  0  0  0  0  0  0  0
   -1.6488    3.4602    6.4881 C   0  0  0  0  0  0  0  0  0  0  0  0
   -2.0854    1.4335    5.9472 H   0  0  0  0  0  0  0  0  0  0  0  0
   -0.7132    3.7573    6.9730 H   0  0  0  0  0  0  0  0  0  0  0  0
   -1.9672    4.2617    5.8134 H   0  0  0  0  0  0  0  0  0  0  0  0
   -2.4139    3.3341    7.2597 H   0  0  0  0  0  0  0  0  0  0  0  0
  1  2  2  0  0  0  0
  1  3  1  0  0  0  0
  1  7  1  0  0  0  0
  3  4  1  0  0  0  0
  3  5  1  0  0  0  0
  3  6  1  0  0  0  0
  7  8  1  0  0  0  0
  7 12  1  0  0  0  0
  8  9  1  0  0  0  0
  8 11  1  0  0  0  0
  8 13  1  0  0  0  0
  9 10  2  0  0  0  0
  9 17  1  0  0  0  0
 11 14  1  0  0  0  0
 11 15  1  0  0  0  0
 11 16  1  0  0  0  0
 17 18  1  0  0  0  0
 17 25  1  0  0  0  0
 18 19  1  0  0  0  0
 18 21  1  0  0  0  0
 18 26  1  0  0  0  0
 19 20  2  0  0  0  0
 19 29  1  0  0  0  0
 21 22  1  0  0  0  0
 21 27  1  0  0  0  0
 21 28  1  0  0  0  0
 22 23  1  0  0  0  0
 22 24  2  0  0  0  0
 29 30  1  0  0  0  0
 29 34  1  0  0  0  0
 30 31  1  0  0  0  0
 30 33  1  0  0  0  0
 30 35  1  0  0  0  0
 31 32  2  0  0  0  0
 31 39  1  0  0  0  0
 33 36  1  0  0  0  0
 33 37  1  0  0  0  0
 33 38  1  0  0  0  0
 39 40  1  0  0  0  0
 39 41  1  0  0  0  0
 40 42  1  0  0  0  0
 40 43  1  0  0  0  0
 40 44  1  0  0  0  0
M  CHG  1  23  -1
M  END
$$$$

  -OEChem-05262215553D

 44 43  0     1  0  0  0  0  0999 V2000
   -4.5422   -0.0838   -4.1005 C   0  0  0  0  0  0  0  0  0  0  0  0
   -4.3608   -1.1915   -4.5840 O   0  0  0  0  0  0  0  0  0  0  0  0
   -5.8976    0.5853   -4.2354 C   0  0  0  0  0  0  0  0  0  0  0  0
   -5.7959    1.5202   -4.7918 H   0  0  0  0  0  0  0  0  0  0  0  0
   -6.5919   -0.0696   -4.7688 H   0  0  0  0  0  0  0  0  0  0  0  0
   -6.3061    0.8013   -3.2450 H   0  0  0  0  0  0  0  0  0  0  0  0
   -3.5343    0.5702   -3.4273 N   0  0  0  0  0  0  0  0  0  0  0  0
   -2.2656   -0.0474   -3.0200 C   0  0  2  0  0  0  0  0  0  0  0  0
   -1.9214    0.2960   -1.5540 C   0  0  0  0  0  0  0  0  0  0  0  0
   -2.6612    1.0354   -0.9081 O   0  0  0  0  0  0  0  0  0  0  0  0
   -1.1688    0.4609   -3.9615 C   0  0  0  0  0  0  0  0  0  0  0  0
   -3.8044    1.3982   -2.8977 H   0  0  0  0  0  0  0  0  0  0  0  0
   -2.3297   -1.1378   -3.0947 H   0  0  0  0  0  0  0  0  0  0  0  0
   -1.0594    1.5471   -3.8717 H   0  0  0  0  0  0  0  0  0  0  0  0
   -0.2061   -0.0015   -3.7217 H   0  0  0  0  0  0  0  0  0  0  0  0
   -1.4174    0.2200   -4.9993 H   0  0  0  0  0  0  0  0  0  0  0  0
   -0.8104   -0.2676   -0.9565 N   0  0  0  0  0  0  0  0  0  0  0  0
    0.0209    0.4277    0.0423 C   0  0  2  0  0  0  0  0  0  0  0  0
   -0.4832    0.1898    1.4862 C   0  0  0  0  0  0  0  0  0  0  0  0
   -0.9216   -0.9068    1.8257 O   0  0  0  0  0  0  0  0  0  0  0  0
    0.2879    1.9090   -0.3417 C   0  0  0  0  0  0  0  0  0  0  0  0
    1.1978    2.0180   -1.5645 C   0  0  0  0  0  0  0  0  0  0  0  0
    2.0341    1.1031   -1.7753 O   0  5  0  0  0  0  0  0  0  0  0  0
    1.0223    3.0045   -2.3164 O   0  0  0  0  0  0  0  0  0  0  0  0
   -0.2719   -0.8502   -1.5901 H   0  0  0  0  0  0  0  0  0  0  0  0
    0.9932   -0.0749    0.0500 H   0  0  0  0  0  0  0  0  0  0  0  0
    0.8136    2.4078    0.4751 H   0  0  0  0  0  0  0  0  0  0  0  0
   -0.6396    2.4592   -0.5131 H   0  0  0  0  0  0  0  0  0  0  0  0
   -0.3061    1.1431    2.4739 N   0  0  0  0  0  0  0  0  0  0  0  0
   -0.8010    1.0108    3.8492 C   0  0  2  0  0  0  0  0  0  0  0  0
   -1.2361    2.3621    4.4512 C   0  0  0  0  0  0  0  0  0  0  0  0
   -0.6913    3.4065    4.1116 O   0  0  0  0  0  0  0  0  0  0  0  0
    0.3033    0.3813    4.7023 C   0  0  0  0  0  0  0  0  0  0  0  0
   -0.0266    2.0728    2.1626 H   0  0  0  0  0  0  0  0  0  0  0  0
   -1.6790    0.3567    3.8583 H   0  0  0  0  0  0  0  0  0  0  0  0
    1.1913    1.0211    4.7086 H   0  0  0  0  0  0  0  0  0  0  0  0
   -0.0384    0.2463    5.7328 H   0  0  0  0  0  0  0  0  0  0  0  0
    0.5816   -0.5974    4.2989 H   0  0  0  0  0  0  0  0  0  0  0  0
   -2.2344    2.4007    5.4085 N   0  0  0  0  0  0  0  0  0  0  0  0
   -2.7471    3.6400    5.9769 C   0  0  0  0  0  0  0  0  0  0  0  0
   -2.7124    1.5288    5.6154 H   0  0  0  0  0  0  0  0  0  0  0  0
   -1.9498    4.1807    6.4974 H   0  0  0  0  0  0  0  0  0  0  0  0
   -3.1548    4.2829    5.1895 H   0  0  0  0  0  0  0  0  0  0  0  0
   -3.5440    3.4241    6.6948 H   0  0  0  0  0  0  0  0  0  0  0  0
  1  2  2  0  0  0  0
  1  3  1  0  0  0  0
  1  7  1  0  0  0  0
  3  4  1  0  0  0  0
  3  5  1  0  0  0  0
  3  6  1  0  0  0  0
  7  8  1  0  0  0  0
  7 12  1  0  0  0  0
  8  9  1  0  0  0  0
  8 11  1  0  0  0  0
  8 13  1  0  0  0  0
  9 10  2  0  0  0  0
  9 17  1  0  0  0  0
 11 14  1  0  0  0  0
 11 15  1  0  0  0  0
 11 16  1  0  0  0  0
 17 18  1  0  0  0  0
 17 25  1  0  0  0  0
 18 19  1  0  0  0  0
 18 21  1  0  0  0  0
 18 26  1  0  0  0  0
 19 20  2  0  0  0  0
 19 29  1  0  0  0  0
 21 22  1  0  0  0  0
 21 27  1  0  0  0  0
 21 28  1  0  0  0  0
 22 23  1  0  0  0  0
 22 24  2  0  0  0  0
 29 30  1  0  0  0  0
 29 34  1  0  0  0  0
 30 31  1  0  0  0  0
 30 33  1  0  0  0  0
 30 35  1  0  0  0  0
 31 32  2  0  0  0  0
 31 39  1  0  0  0  0
 33 36  1  0  0  0  0
 33 37  1  0  0  0  0
 33 38  1  0  0  0  0
 39 40  1  0  0  0  0
 39 41  1  0  0  0  0
 40 42  1  0  0  0  0
 40 43  1  0  0  0  0
 40 44  1  0  0  0  0
M  CHG  1  23  -1
M  END
$$$$

  -OEChem-05262215553D

 44 43  0     1  0  0  0  0  0999 V2000
   -4.5374   -0.0955   -4.0800 C   0  0  0  0  0  0  0  0  0  0  0  0
   -4.3493   -1.2035   -4.5601 O   0  0  0  0  0  0  0  0  0  0  0  0
   -5.8925    0.5712   -4.2316 C   0  0  0  0  0  0  0  0  0  0  0  0
   -5.7869    1.5027   -4.7933 H   0  0  0  0  0  0  0  0  0  0  0  0
   -6.5814   -0.0883   -4.7667 H   0  0  0  0  0  0  0  0  0  0  0  0
   -6.3105    0.7936   -3.2466 H   0  0  0  0  0  0  0  0  0  0  0  0
   -3.5362    0.5609   -3.3992 N   0  0  0  0  0  0  0  0  0  0  0  0
   -2.2620   -0.0483   -2.9955 C   0  0  2  0  0  0  0  0  0  0  0  0
   -1.9043    0.3124   -1.5375 C   0  0  0  0  0  0  0  0  0  0  0  0
   -2.6391    1.0550   -0.8896 O   0  0  0  0  0  0  0  0  0  0  0  0
   -1.1737    0.4493   -3.9520 C   0  0  0  0  0  0  0  0  0  0  0  0
   -3.8084    1.3931   -2.8773 H   0  0  0  0  0  0  0  0  0  0  0  0
   -2.3248   -1.1395   -3.0555 H   0  0  0  0  0  0  0  0  0  0  0  0
   -1.0706    1.5376   -3.8827 H   0  0  0  0  0  0  0  0  0  0  0  0
   -0.2067   -0.0019   -3.7086 H   0  0  0  0  0  0  0  0  0  0  0  0
   -1.4261    0.1877   -4.9839 H   0  0  0  0  0  0  0  0  0  0  0  0
   -0.7957   -0.2530   -0.9374 N   0  0  0  0  0  0  0  0  0  0  0  0
    0.0456    0.4561    0.0419 C   0  0  2  0  0  0  0  0  0  0  0  0
   -0.4672    0.2423    1.4846 C   0  0  0  0  0  0  0  0  0  0  0  0
   -0.7091   -0.8888    1.8995 O   0  0  0  0  0  0  0  0  0  0  0  0
    0.3161    1.9304   -0.3610 C   0  0  0  0  0  0  0  0  0  0  0  0
    1.2166    2.0218   -1.5920 C   0  0  0  0  0  0  0  0  0  0  0  0
    2.0475    1.1016   -1.8003 O   0  5  0  0  0  0  0  0  0  0  0  0
    1.0354    2.9988   -2.3550 O   0  0  0  0  0  0  0  0  0  0  0  0
   -0.2603   -0.8396   -1.5704 H   0  0  0  0  0  0  0  0  0  0  0  0
    1.0166   -0.0496    0.0560 H   0  0  0  0  0  0  0  0  0  0  0  0
    0.8511    2.4312    0.4486 H   0  0  0  0  0  0  0  0  0  0  0  0
   -0.6096    2.4843   -0.5301 H   0  0  0  0  0  0  0  0  0  0  0  0
   -0.5707    1.2983    2.3726 N   0  0  0  0  0  0  0  0  0  0  0  0
   -1.1487    1.1921    3.7168 C   0  0  2  0  0  0  0  0  0  0  0  0
   -1.9053    2.4696    4.1350 C   0  0  0  0  0  0  0  0  0  0  0  0
   -1.5281    3.5748    3.7621 O   0  0  0  0  0  0  0  0  0  0  0  0
   -0.0183    0.8971    4.7061 C   0  0  0  0  0  0  0  0  0  0  0  0
   -0.4798    2.2320    1.9722 H   0  0  0  0  0  0  0  0  0  0  0  0
   -1.8689    0.3677    3.7385 H   0  0  0  0  0  0  0  0  0  0  0  0
    0.7148    1.7102    4.7006 H   0  0  0  0  0  0  0  0  0  0  0  0
   -0.4154    0.7900    5.7198 H   0  0  0  0  0  0  0  0  0  0  0  0
    0.4902   -0.0330    4.4333 H   0  0  0  0  0  0  0  0  0  0  0  0
   -3.0020    2.3781    4.9740 N   0  0  0  0  0  0  0  0  0  0  0  0
   -3.8012    3.5290    5.3724 C   0  0  0  0  0  0  0  0  0  0  0  0
   -3.3375    1.4458    5.1960 H   0  0  0  0  0  0  0  0  0  0  0  0
   -3.1824    4.2590    5.9044 H   0  0  0  0  0  0  0  0  0  0  0  0
   -4.2421    4.0115    4.4937 H   0  0  0  0  0  0  0  0  0  0  0  0
   -4.6104    3.2132    6.0376 H   0  0  0  0  0  0  0  0  0  0  0  0
  1  2  2  0  0  0  0
  1  3  1  0  0  0  0
  1  7  1  0  0  0  0
  3  4  1  0  0  0  0
  3  5  1  0  0  0  0
  3  6  1  0  0  0  0
  7  8  1  0  0  0  0
  7 12  1  0  0  0  0
  8  9  1  0  0  0  0
  8 11  1  0  0  0  0
  8 13  1  0  0  0  0
  9 10  2  0  0  0  0
  9 17  1  0  0  0  0
 11 14  1  0  0  0  0
 11 15  1  0  0  0  0
 11 16  1  0  0  0  0
 17 18  1  0  0  0  0
 17 25  1  0  0  0  0
 18 19  1  0  0  0  0
 18 21  1  0  0  0  0
 18 26  1  0  0  0  0
 19 20  2  0  0  0  0
 19 29  1  0  0  0  0
 21 22  1  0  0  0  0
 21 27  1  0  0  0  0
 21 28  1  0  0  0  0
 22 23  1  0  0  0  0
 22 24  2  0  0  0  0
 29 30  1  0  0  0  0
 29 34  1  0  0  0  0
 30 31  1  0  0  0  0
 30 33  1  0  0  0  0
 30 35  1  0  0  0  0
 31 32  2  0  0  0  0
 31 39  1  0  0  0  0
 33 36  1  0  0  0  0
 33 37  1  0  0  0  0
 33 38  1  0  0  0  0
 39 40  1  0  0  0  0
 39 41  1  0  0  0  0
 40 42  1  0  0  0  0
 40 43  1  0  0  0  0
 40 44  1  0  0  0  0
M  CHG  1  23  -1
M  END
$$$$

  -OEChem-05262215553D

 44 43  0     1  0  0  0  0  0999 V2000
   -4.5313   -0.1084   -4.0669 C   0  0  0  0  0  0  0  0  0  0  0  0
   -4.3427   -1.2231   -4.5312 O   0  0  0  0  0  0  0  0  0  0  0  0
   -5.8876    0.5546   -4.2243 C   0  0  0  0  0  0  0  0  0  0  0  0
   -5.7869    1.4732   -4.8076 H   0  0  0  0  0  0  0  0  0  0  0  0
   -6.5800   -0.1170   -4.7392 H   0  0  0  0  0  0  0  0  0  0  0  0
   -6.2985    0.7992   -3.2417 H   0  0  0  0  0  0  0  0  0  0  0  0
   -3.5293    0.5581   -3.3971 N   0  0  0  0  0  0  0  0  0  0  0  0
   -2.2526   -0.0431   -2.9898 C   0  0  2  0  0  0  0  0  0  0  0  0
   -1.8971    0.3271   -1.5342 C   0  0  0  0  0  0  0  0  0  0  0  0
   -2.6314    1.0740   -0.8908 O   0  0  0  0  0  0  0  0  0  0  0  0
   -1.1669    0.4549   -3.9483 C   0  0  0  0  0  0  0  0  0  0  0  0
   -3.8009    1.3974   -2.8865 H   0  0  0  0  0  0  0  0  0  0  0  0
   -2.3098   -1.1347   -3.0448 H   0  0  0  0  0  0  0  0  0  0  0  0
   -1.0693    1.5441   -3.8840 H   0  0  0  0  0  0  0  0  0  0  0  0
   -0.1976    0.0090   -3.7037 H   0  0  0  0  0  0  0  0  0  0  0  0
   -1.4183    0.1864   -4.9786 H   0  0  0  0  0  0  0  0  0  0  0  0
   -0.7993   -0.2438   -0.9205 N   0  0  0  0  0  0  0  0  0  0  0  0
    0.0467    0.4762    0.0462 C   0  0  2  0  0  0  0  0  0  0  0  0
   -0.4809    0.2958    1.4862 C   0  0  0  0  0  0  0  0  0  0  0  0
   -0.5327   -0.8218    1.9938 O   0  0  0  0  0  0  0  0  0  0  0  0
    0.3303    1.9412   -0.3774 C   0  0  0  0  0  0  0  0  0  0  0  0
    1.2331    2.0071   -1.6083 C   0  0  0  0  0  0  0  0  0  0  0  0
    2.0562    1.0770   -1.8022 O   0  5  0  0  0  0  0  0  0  0  0  0
    1.0554    2.9704   -2.3896 O   0  0  0  0  0  0  0  0  0  0  0  0
   -0.2646   -0.8394   -1.5463 H   0  0  0  0  0  0  0  0  0  0  0  0
    1.0136   -0.0371    0.0743 H   0  0  0  0  0  0  0  0  0  0  0  0
    0.8642    2.4466    0.4308 H   0  0  0  0  0  0  0  0  0  0  0  0
   -0.5899    2.5003   -0.5582 H   0  0  0  0  0  0  0  0  0  0  0  0
   -0.8689    1.3847    2.2460 N   0  0  0  0  0  0  0  0  0  0  0  0
   -1.5130    1.2850    3.5602 C   0  0  2  0  0  0  0  0  0  0  0  0
   -2.5501    2.4023    3.7941 C   0  0  0  0  0  0  0  0  0  0  0  0
   -2.3449    3.5439    3.3977 O   0  0  0  0  0  0  0  0  0  0  0  0
   -0.4240    1.3369    4.6346 C   0  0  0  0  0  0  0  0  0  0  0  0
   -0.9476    2.2712    1.7473 H   0  0  0  0  0  0  0  0  0  0  0  0
   -2.0438    0.3305    3.6348 H   0  0  0  0  0  0  0  0  0  0  0  0
    0.1209    2.2849    4.5796 H   0  0  0  0  0  0  0  0  0  0  0  0
   -0.8651    1.2437    5.6314 H   0  0  0  0  0  0  0  0  0  0  0  0
    0.2870    0.5172    4.4915 H   0  0  0  0  0  0  0  0  0  0  0  0
   -3.7061    2.1332    4.5055 N   0  0  0  0  0  0  0  0  0  0  0  0
   -4.7569    3.1190    4.7203 C   0  0  0  0  0  0  0  0  0  0  0  0
   -3.8847    1.1630    4.7463 H   0  0  0  0  0  0  0  0  0  0  0  0
   -4.3628    3.9886    5.2565 H   0  0  0  0  0  0  0  0  0  0  0  0
   -5.1710    3.4519    3.7628 H   0  0  0  0  0  0  0  0  0  0  0  0
   -5.5650    2.6842    5.3156 H   0  0  0  0  0  0  0  0  0  0  0  0
  1  2  2  0  0  0  0
  1  3  1  0  0  0  0
  1  7  1  0  0  0  0
  3  4  1  0  0  0  0
  3  5  1  0  0  0  0
  3  6  1  0  0  0  0
  7  8  1  0  0  0  0
  7 12  1  0  0  0  0
  8  9  1  0  0  0  0
  8 11  1  0  0  0  0
  8 13  1  0  0  0  0
  9 10  2  0  0  0  0
  9 17  1  0  0  0  0
 11 14  1  0  0  0  0
 11 15  1  0  0  0  0
 11 16  1  0  0  0  0
 17 18  1  0  0  0  0
 17 25  1  0  0  0  0
 18 19  1  0  0  0  0
 18 21  1  0  0  0  0
 18 26  1  0  0  0  0
 19 20  2  0  0  0  0
 19 29  1  0  0  0  0
 21 22  1  0  0  0  0
 21 27  1  0  0  0  0
 21 28  1  0  0  0  0
 22 23  1  0  0  0  0
 22 24  2  0  0  0  0
 29 30  1  0  0  0  0
 29 34  1  0  0  0  0
 30 31  1  0  0  0  0
 30 33  1  0  0  0  0
 30 35  1  0  0  0  0
 31 32  2  0  0  0  0
 31 39  1  0  0  0  0
 33 36  1  0  0  0  0
 33 37  1  0  0  0  0
 33 38  1  0  0  0  0
 39 40  1  0  0  0  0
 39 41  1  0  0  0  0
 40 42  1  0  0  0  0
 40 43  1  0  0  0  0
 40 44  1  0  0  0  0
M  CHG  1  23  -1
M  END
$$$$

  -OEChem-05262215553D

 44 43  0     1  0  0  0  0  0999 V2000
   -4.9102    0.3446   -3.2959 C   0  0  0  0  0  0  0  0  0  0  0  0
   -5.0519   -0.8394   -3.5615 O   0  0  0  0  0  0  0  0  0  0  0  0
   -6.0949    1.2880   -3.3970 C   0  0  0  0  0  0  0  0  0  0  0  0
   -5.8860    2.0703   -4.1310 H   0  0  0  0  0  0  0  0  0  0  0  0
   -6.9892    0.7411   -3.7082 H   0  0  0  0  0  0  0  0  0  0  0  0
   -6.2855    1.7510   -2.4256 H   0  0  0  0  0  0  0  0  0  0  0  0
   -3.6881    0.8402   -2.8961 N   0  0  0  0  0  0  0  0  0  0  0  0
   -2.5365    0.0093   -2.5173 C   0  0  2  0  0  0  0  0  0  0  0  0
   -2.0008    0.3915   -1.1213 C   0  0  0  0  0  0  0  0  0  0  0  0
   -2.4997    1.3241   -0.4904 O   0  0  0  0  0  0  0  0  0  0  0  0
   -1.4477    0.2006   -3.5772 C   0  0  0  0  0  0  0  0  0  0  0  0
   -3.6880    1.7888   -2.5260 H   0  0  0  0  0  0  0  0  0  0  0  0
   -2.8183   -1.0483   -2.4820 H   0  0  0  0  0  0  0  0  0  0  0  0
   -1.1216    1.2457   -3.6089 H   0  0  0  0  0  0  0  0  0  0  0  0
   -0.5758   -0.4230   -3.3549 H   0  0  0  0  0  0  0  0  0  0  0  0
   -1.8272   -0.0772   -4.5653 H   0  0  0  0  0  0  0  0  0  0  0  0
   -1.0161   -0.3621   -0.5154 N   0  0  0  0  0  0  0  0  0  0  0  0
    0.0335    0.2355    0.3260 C   0  0  2  0  0  0  0  0  0  0  0  0
   -0.4436    0.2925    1.7899 C   0  0  0  0  0  0  0  0  0  0  0  0
   -0.5467   -0.7283    2.4597 O   0  0  0  0  0  0  0  0  0  0  0  0
    0.5785    1.5780   -0.2271 C   0  0  0  0  0  0  0  0  0  0  0  0
    1.3761    1.3777   -1.5124 C   0  0  0  0  0  0  0  0  0  0  0  0
    1.9738    0.2872   -1.6884 O   0  5  0  0  0  0  0  0  0  0  0  0
    1.3280    2.3065   -2.3516 O   0  0  0  0  0  0  0  0  0  0  0  0
   -0.6713   -1.1140   -1.1065 H   0  0  0  0  0  0  0  0  0  0  0  0
    0.8745   -0.4660    0.3523 H   0  0  0  0  0  0  0  0  0  0  0  0
    1.2636    2.0067    0.5088 H   0  0  0  0  0  0  0  0  0  0  0  0
   -0.2149    2.3085   -0.3955 H   0  0  0  0  0  0  0  0  0  0  0  0
   -0.8355    1.5039    2.3292 N   0  0  0  0  0  0  0  0  0  0  0  0
   -1.5624    1.6369    3.6008 C   0  0  2  0  0  0  0  0  0  0  0  0
   -3.1005    1.5604    3.4483 C   0  0  0  0  0  0  0  0  0  0  0  0
   -3.8173    1.6569    4.4396 O   0  0  0  0  0  0  0  0  0  0  0  0
   -1.1387    2.9710    4.2212 C   0  0  0  0  0  0  0  0  0  0  0  0
   -0.8966    2.2656    1.6566 H   0  0  0  0  0  0  0  0  0  0  0  0
   -1.2657    0.8330    4.2831 H   0  0  0  0  0  0  0  0  0  0  0  0
   -1.4474    3.8061    3.5846 H   0  0  0  0  0  0  0  0  0  0  0  0
   -1.5991    3.0955    5.2064 H   0  0  0  0  0  0  0  0  0  0  0  0
   -0.0517    3.0043    4.3422 H   0  0  0  0  0  0  0  0  0  0  0  0
   -3.6968    1.4709    2.2024 N   0  0  0  0  0  0  0  0  0  0  0  0
   -5.1331    1.3712    1.9960 C   0  0  0  0  0  0  0  0  0  0  0  0
   -3.0820    1.3704    1.3894 H   0  0  0  0  0  0  0  0  0  0  0  0
   -5.5167    0.4406    2.4259 H   0  0  0  0  0  0  0  0  0  0  0  0
   -5.6485    2.2172    2.4621 H   0  0  0  0  0  0  0  0  0  0  0  0
   -5.3569    1.3778    0.9249 H   0  0  0  0  0  0  0  0  0  0  0  0
  1  2  2  0  0  0  0
  1  3  1  0  0  0  0
  1  7  1  0  0  0  0
  3  4  1  0  0  0  0
  3  5  1  0  0  0  0
  3  6  1  0  0  0  0
  7  8  1  0  0  0  0
  7 12  1  0  0  0  0
  8  9  1  0  0  0  0
  8 11  1  0  0  0  0
  8 13  1  0  0  0  0
  9 10  2  0  0  0  0
  9 17  1  0  0  0  0
 11 14  1  0  0  0  0
 11 15  1  0  0  0  0
 11 16  1  0  0  0  0
 17 18  1  0  0  0  0
 17 25  1  0  0  0  0
 18 19  1  0  0  0  0
 18 21  1  0  0  0  0
 18 26  1  0  0  0  0
 19 20  2  0  0  0  0
 19 29  1  0  0  0  0
 21 22  1  0  0  0  0
 21 27  1  0  0  0  0
 21 28  1  0  0  0  0
 22 23  1  0  0  0  0
 22 24  2  0  0  0  0
 29 30  1  0  0  0  0
 29 34  1  0  0  0  0
 30 31  1  0  0  0  0
 30 33  1  0  0  0  0
 30 35  1  0  0  0  0
 31 32  2  0  0  0  0
 31 39  1  0  0  0  0
 33 36  1  0  0  0  0
 33 37  1  0  0  0  0
 33 38  1  0  0  0  0
 39 40  1  0  0  0  0
 39 41  1  0  0  0  0
 40 42  1  0  0  0  0
 40 43  1  0  0  0  0
 40 44  1  0  0  0  0
M  CHG  1  23  -1
M  END
$$$$

  -OEChem-05262215553D

 44 43  0     1  0  0  0  0  0999 V2000
   -4.8807    0.3960   -2.9050 C   0  0  0  0  0  0  0  0  0  0  0  0
   -5.1948   -0.7356   -2.5678 O   0  0  0  0  0  0  0  0  0  0  0  0
   -5.9516    1.4569   -3.0790 C   0  0  0  0  0  0  0  0  0  0  0  0
   -5.9411    1.8325   -4.1050 H   0  0  0  0  0  0  0  0  0  0  0  0
   -6.9388    1.0375   -2.8663 H   0  0  0  0  0  0  0  0  0  0  0  0
   -5.7664    2.2867   -2.3917 H   0  0  0  0  0  0  0  0  0  0  0  0
   -3.5597    0.7338   -3.1096 N   0  0  0  0  0  0  0  0  0  0  0  0
   -2.4464   -0.0847   -2.6078 C   0  0  2  0  0  0  0  0  0  0  0  0
   -1.9890    0.3618   -1.2022 C   0  0  0  0  0  0  0  0  0  0  0  0
   -2.4730    1.3596   -0.6667 O   0  0  0  0  0  0  0  0  0  0  0  0
   -1.2920    0.0404   -3.6060 C   0  0  0  0  0  0  0  0  0  0  0  0
   -3.3783    1.7317   -3.1779 H   0  0  0  0  0  0  0  0  0  0  0  0
   -2.7409   -1.1377   -2.5492 H   0  0  0  0  0  0  0  0  0  0  0  0
   -0.9493    1.0787   -3.6694 H   0  0  0  0  0  0  0  0  0  0  0  0
   -0.4447   -0.5806   -3.2978 H   0  0  0  0  0  0  0  0  0  0  0  0
   -1.6116   -0.2834   -4.6008 H   0  0  0  0  0  0  0  0  0  0  0  0
   -1.0858   -0.3935   -0.4806 N   0  0  0  0  0  0  0  0  0  0  0  0
   -0.0571    0.2151    0.3803 C   0  0  2  0  0  0  0  0  0  0  0  0
   -0.6283    0.4040    1.7978 C   0  0  0  0  0  0  0  0  0  0  0  0
   -0.5934   -0.5001    2.6239 O   0  0  0  0  0  0  0  0  0  0  0  0
    0.5802    1.4922   -0.2254 C   0  0  0  0  0  0  0  0  0  0  0  0
    1.4374    1.1695   -1.4463 C   0  0  0  0  0  0  0  0  0  0  0  0
    1.9913    0.0444   -1.5154 O   0  5  0  0  0  0  0  0  0  0  0  0
    1.4558    2.0275   -2.3595 O   0  0  0  0  0  0  0  0  0  0  0  0
   -0.7441   -1.2005   -0.9957 H   0  0  0  0  0  0  0  0  0  0  0  0
    0.7470   -0.5180    0.5086 H   0  0  0  0  0  0  0  0  0  0  0  0
    1.2409    1.9380    0.5225 H   0  0  0  0  0  0  0  0  0  0  0  0
   -0.1647    2.2460   -0.4856 H   0  0  0  0  0  0  0  0  0  0  0  0
   -1.2734    1.5887    2.1002 N   0  0  0  0  0  0  0  0  0  0  0  0
   -2.1477    1.7514    3.2717 C   0  0  2  0  0  0  0  0  0  0  0  0
   -3.5907    1.2414    3.0419 C   0  0  0  0  0  0  0  0  0  0  0  0
   -4.3808    1.1952    3.9794 O   0  0  0  0  0  0  0  0  0  0  0  0
   -2.1500    3.2396    3.6287 C   0  0  0  0  0  0  0  0  0  0  0  0
   -1.4618    2.1678    1.2813 H   0  0  0  0  0  0  0  0  0  0  0  0
   -1.7355    1.1938    4.1194 H   0  0  0  0  0  0  0  0  0  0  0  0
   -2.5697    3.8303    2.8083 H   0  0  0  0  0  0  0  0  0  0  0  0
   -2.7518    3.4131    4.5262 H   0  0  0  0  0  0  0  0  0  0  0  0
   -1.1298    3.5844    3.8239 H   0  0  0  0  0  0  0  0  0  0  0  0
   -4.0372    0.9159    1.7734 N   0  0  0  0  0  0  0  0  0  0  0  0
   -5.3610    0.3894    1.4805 C   0  0  0  0  0  0  0  0  0  0  0  0
   -3.3663    1.0027    1.0060 H   0  0  0  0  0  0  0  0  0  0  0  0
   -5.5288   -0.5457    2.0244 H   0  0  0  0  0  0  0  0  0  0  0  0
   -6.1332    1.1107    1.7656 H   0  0  0  0  0  0  0  0  0  0  0  0
   -5.4532    0.1875    0.4087 H   0  0  0  0  0  0  0  0  0  0  0  0
  1  2  2  0  0  0  0
  1  3  1  0  0  0  0
  1  7  1  0  0  0  0
  3  4  1  0  0  0  0
  3  5  1  0  0  0  0
  3  6  1  0  0  0  0
  7  8  1  0  0  0  0
  7 12  1  0  0  0  0
  8  9  1  0  0  0  0
  8 11  1  0  0  0  0
  8 13  1  0  0  0  0
  9 10  2  0  0  0  0
  9 17  1  0  0  0  0
 11 14  1  0  0  0  0
 11 15  1  0  0  0  0
 11 16  1  0  0  0  0
 17 18  1  0  0  0  0
 17 25  1  0  0  0  0
 18 19  1  0  0  0  0
 18 21  1  0  0  0  0
 18 26  1  0  0  0  0
 19 20  2  0  0  0  0
 19 29  1  0  0  0  0
 21 22  1  0  0  0  0
 21 27  1  0  0  0  0
 21 28  1  0  0  0  0
 22 23  1  0  0  0  0
 22 24  2  0  0  0  0
 29 30  1  0  0  0  0
 29 34  1  0  0  0  0
 30 31  1  0  0  0  0
 30 33  1  0  0  0  0
 30 35  1  0  0  0  0
 31 32  2  0  0  0  0
 31 39  1  0  0  0  0
 33 36  1  0  0  0  0
 33 37  1  0  0  0  0
 33 38  1  0  0  0  0
 39 40  1  0  0  0  0
 39 41  1  0  0  0  0
 40 42  1  0  0  0  0
 40 43  1  0  0  0  0
 40 44  1  0  0  0  0
M  CHG  1  23  -1
M  END
$$$$

  -OEChem-05262215553D

 44 43  0     1  0  0  0  0  0999 V2000
   -4.8621    0.1604   -3.0375 C   0  0  0  0  0  0  0  0  0  0  0  0
   -5.1198   -0.9815   -2.6877 O   0  0  0  0  0  0  0  0  0  0  0  0
   -5.9887    1.1473   -3.2813 C   0  0  0  0  0  0  0  0  0  0  0  0
   -5.9302    1.5368   -4.3004 H   0  0  0  0  0  0  0  0  0  0  0  0
   -6.9569    0.6575   -3.1462 H   0  0  0  0  0  0  0  0  0  0  0  0
   -5.9122    1.9785   -2.5755 H   0  0  0  0  0  0  0  0  0  0  0  0
   -3.5567    0.5746   -3.1961 N   0  0  0  0  0  0  0  0  0  0  0  0
   -2.4128   -0.1738   -2.6551 C   0  0  2  0  0  0  0  0  0  0  0  0
   -2.0000    0.3282   -1.2544 C   0  0  0  0  0  0  0  0  0  0  0  0
   -2.5601    1.2971   -0.7400 O   0  0  0  0  0  0  0  0  0  0  0  0
   -1.2510   -0.0196   -3.6403 C   0  0  0  0  0  0  0  0  0  0  0  0
   -3.4293    1.5797   -3.2820 H   0  0  0  0  0  0  0  0  0  0  0  0
   -2.6557   -1.2382   -2.5729 H   0  0  0  0  0  0  0  0  0  0  0  0
   -0.9590    1.0323   -3.7294 H   0  0  0  0  0  0  0  0  0  0  0  0
   -0.3788   -0.5885   -3.3024 H   0  0  0  0  0  0  0  0  0  0  0  0
   -1.5396   -0.3873   -4.6293 H   0  0  0  0  0  0  0  0  0  0  0  0
   -1.0734   -0.3682   -0.5031 N   0  0  0  0  0  0  0  0  0  0  0  0
   -0.0773    0.2888    0.3638 C   0  0  2  0  0  0  0  0  0  0  0  0
   -0.6592    0.4838    1.7768 C   0  0  0  0  0  0  0  0  0  0  0  0
   -0.3996   -0.2966    2.6849 O   0  0  0  0  0  0  0  0  0  0  0  0
    0.4961    1.5896   -0.2506 C   0  0  0  0  0  0  0  0  0  0  0  0
    1.3694    1.2989   -1.4681 C   0  0  0  0  0  0  0  0  0  0  0  0
    1.9776    0.2014   -1.5269 O   0  5  0  0  0  0  0  0  0  0  0  0
    1.3402    2.1444   -2.3926 O   0  0  0  0  0  0  0  0  0  0  0  0
   -0.6889   -1.1668   -1.0018 H   0  0  0  0  0  0  0  0  0  0  0  0
    0.7586   -0.4066    0.5018 H   0  0  0  0  0  0  0  0  0  0  0  0
    1.1318    2.0748    0.4944 H   0  0  0  0  0  0  0  0  0  0  0  0
   -0.2869    2.3022   -0.5159 H   0  0  0  0  0  0  0  0  0  0  0  0
   -1.5948    1.4830    1.9691 N   0  0  0  0  0  0  0  0  0  0  0  0
   -2.5204    1.5241    3.1113 C   0  0  2  0  0  0  0  0  0  0  0  0
   -3.8613    0.8045    2.8344 C   0  0  0  0  0  0  0  0  0  0  0  0
   -4.6595    0.6194    3.7472 O   0  0  0  0  0  0  0  0  0  0  0  0
   -2.7602    2.9974    3.4476 C   0  0  0  0  0  0  0  0  0  0  0  0
   -1.8968    1.9233    1.0962 H   0  0  0  0  0  0  0  0  0  0  0  0
   -2.0636    1.0417    3.9818 H   0  0  0  0  0  0  0  0  0  0  0  0
   -3.2389    3.5090    2.6069 H   0  0  0  0  0  0  0  0  0  0  0  0
   -3.4084    3.0853    4.3250 H   0  0  0  0  0  0  0  0  0  0  0  0
   -1.8111    3.4958    3.6674 H   0  0  0  0  0  0  0  0  0  0  0  0
   -4.2222    0.4492    1.5466 N   0  0  0  0  0  0  0  0  0  0  0  0
   -5.4757   -0.2013    1.1968 C   0  0  0  0  0  0  0  0  0  0  0  0
   -3.5625    0.6759    0.7992 H   0  0  0  0  0  0  0  0  0  0  0  0
   -5.5740   -1.1536    1.7278 H   0  0  0  0  0  0  0  0  0  0  0  0
   -6.3246    0.4396    1.4546 H   0  0  0  0  0  0  0  0  0  0  0  0
   -5.5065   -0.4012    0.1213 H   0  0  0  0  0  0  0  0  0  0  0  0
  1  2  2  0  0  0  0
  1  3  1  0  0  0  0
  1  7  1  0  0  0  0
  3  4  1  0  0  0  0
  3  5  1  0  0  0  0
  3  6  1  0  0  0  0
  7  8  1  0  0  0  0
  7 12  1  0  0  0  0
  8  9  1  0  0  0  0
  8 11  1  0  0  0  0
  8 13  1  0  0  0  0
  9 10  2  0  0  0  0
  9 17  1  0  0  0  0
 11 14  1  0  0  0  0
 11 15  1  0  0  0  0
 11 16  1  0  0  0  0
 17 18  1  0  0  0  0
 17 25  1  0  0  0  0
 18 19  1  0  0  0  0
 18 21  1  0  0  0  0
 18 26  1  0  0  0  0
 19 20  2  0  0  0  0
 19 29  1  0  0  0  0
 21 22  1  0  0  0  0
 21 27  1  0  0  0  0
 21 28  1  0  0  0  0
 22 23  1  0  0  0  0
 22 24  2  0  0  0  0
 29 30  1  0  0  0  0
 29 34  1  0  0  0  0
 30 31  1  0  0  0  0
 30 33  1  0  0  0  0
 30 35  1  0  0  0  0
 31 32  2  0  0  0  0
 31 39  1  0  0  0  0
 33 36  1  0  0  0  0
 33 37  1  0  0  0  0
 33 38  1  0  0  0  0
 39 40  1  0  0  0  0
 39 41  1  0  0  0  0
 40 42  1  0  0  0  0
 40 43  1  0  0  0  0
 40 44  1  0  0  0  0
M  CHG  1  23  -1
M  END
$$$$

  -OEChem-05262215553D

 44 43  0     1  0  0  0  0  0999 V2000
   -4.5234    0.4896   -4.2377 C   0  0  0  0  0  0  0  0  0  0  0  0
   -4.7386   -0.7050   -4.3790 O   0  0  0  0  0  0  0  0  0  0  0  0
   -5.6026    1.4964   -4.5916 C   0  0  0  0  0  0  0  0  0  0  0  0
   -5.2404    2.1720   -5.3703 H   0  0  0  0  0  0  0  0  0  0  0  0
   -6.4953    0.9817   -4.9571 H   0  0  0  0  0  0  0  0  0  0  0  0
   -5.8698    2.0808   -3.7075 H   0  0  0  0  0  0  0  0  0  0  0  0
   -3.3134    0.9409   -3.7555 N   0  0  0  0  0  0  0  0  0  0  0  0
   -2.3139    0.0798   -3.1071 C   0  0  2  0  0  0  0  0  0  0  0  0
   -2.0954    0.4786   -1.6325 C   0  0  0  0  0  0  0  0  0  0  0  0
   -2.5871    1.5157   -1.1886 O   0  0  0  0  0  0  0  0  0  0  0  0
   -1.0036    0.2042   -3.8891 C   0  0  0  0  0  0  0  0  0  0  0  0
   -3.2865    1.9215   -3.4827 H   0  0  0  0  0  0  0  0  0  0  0  0
   -2.6352   -0.9668   -3.1230 H   0  0  0  0  0  0  0  0  0  0  0  0
   -0.6298    1.2332   -3.8553 H   0  0  0  0  0  0  0  0  0  0  0  0
   -0.2367   -0.4518   -3.4644 H   0  0  0  0  0  0  0  0  0  0  0  0
   -1.1568   -0.0774   -4.9350 H   0  0  0  0  0  0  0  0  0  0  0  0
   -1.4344   -0.3759   -0.7698 N   0  0  0  0  0  0  0  0  0  0  0  0
   -0.5211    0.0831    0.2943 C   0  0  2  0  0  0  0  0  0  0  0  0
   -1.2814    0.3365    1.6105 C   0  0  0  0  0  0  0  0  0  0  0  0
   -1.0745   -0.3429    2.6117 O   0  0  0  0  0  0  0  0  0  0  0  0
    0.3531    1.2837   -0.1371 C   0  0  0  0  0  0  0  0  0  0  0  0
    1.3760    0.8812   -1.1965 C   0  0  0  0  0  0  0  0  0  0  0  0
    1.8007   -0.3017   -1.2059 O   0  5  0  0  0  0  0  0  0  0  0  0
    1.6682    1.7465   -2.0542 O   0  0  0  0  0  0  0  0  0  0  0  0
   -1.0820   -1.2012   -1.2490 H   0  0  0  0  0  0  0  0  0  0  0  0
    0.1554   -0.7468    0.5269 H   0  0  0  0  0  0  0  0  0  0  0  0
    0.9109    1.6391    0.7329 H   0  0  0  0  0  0  0  0  0  0  0  0
   -0.2487    2.1205   -0.4971 H   0  0  0  0  0  0  0  0  0  0  0  0
   -2.2954    1.2732    1.6411 N   0  0  0  0  0  0  0  0  0  0  0  0
   -3.1550    1.5608    2.7978 C   0  0  2  0  0  0  0  0  0  0  0  0
   -4.2637    0.4982    3.0073 C   0  0  0  0  0  0  0  0  0  0  0  0
   -5.4381    0.8082    3.1851 O   0  0  0  0  0  0  0  0  0  0  0  0
   -3.7132    2.9751    2.5974 C   0  0  0  0  0  0  0  0  0  0  0  0
   -2.5424    1.6680    0.7269 H   0  0  0  0  0  0  0  0  0  0  0  0
   -2.5421    1.5662    3.7048 H   0  0  0  0  0  0  0  0  0  0  0  0
   -4.3482    3.0136    1.7064 H   0  0  0  0  0  0  0  0  0  0  0  0
   -4.3103    3.2758    3.4637 H   0  0  0  0  0  0  0  0  0  0  0  0
   -2.8960    3.6928    2.4757 H   0  0  0  0  0  0  0  0  0  0  0  0
   -3.9158   -0.8380    3.0411 N   0  0  0  0  0  0  0  0  0  0  0  0
   -4.8591   -1.9310    3.2150 C   0  0  0  0  0  0  0  0  0  0  0  0
   -2.9192   -1.0421    2.9265 H   0  0  0  0  0  0  0  0  0  0  0  0
   -5.3643   -1.8487    4.1825 H   0  0  0  0  0  0  0  0  0  0  0  0
   -5.6108   -1.9172    2.4191 H   0  0  0  0  0  0  0  0  0  0  0  0
   -4.3331   -2.8897    3.1776 H   0  0  0  0  0  0  0  0  0  0  0  0
  1  2  2  0  0  0  0
  1  3  1  0  0  0  0
  1  7  1  0  0  0  0
  3  4  1  0  0  0  0
  3  5  1  0  0  0  0
  3  6  1  0  0  0  0
  7  8  1  0  0  0  0
  7 12  1  0  0  0  0
  8  9  1  0  0  0  0
  8 11  1  0  0  0  0
  8 13  1  0  0  0  0
  9 10  2  0  0  0  0
  9 17  1  0  0  0  0
 11 14  1  0  0  0  0
 11 15  1  0  0  0  0
 11 16  1  0  0  0  0
 17 18  1  0  0  0  0
 17 25  1  0  0  0  0
 18 19  1  0  0  0  0
 18 21  1  0  0  0  0
 18 26  1  0  0  0  0
 19 20  2  0  0  0  0
 19 29  1  0  0  0  0
 21 22  1  0  0  0  0
 21 27  1  0  0  0  0
 21 28  1  0  0  0  0
 22 23  1  0  0  0  0
 22 24  2  0  0  0  0
 29 30  1  0  0  0  0
 29 34  1  0  0  0  0
 30 31  1  0  0  0  0
 30 33  1  0  0  0  0
 30 35  1  0  0  0  0
 31 32  2  0  0  0  0
 31 39  1  0  0  0  0
 33 36  1  0  0  0  0
 33 37  1  0  0  0  0
 33 38  1  0  0  0  0
 39 40  1  0  0  0  0
 39 41  1  0  0  0  0
 40 42  1  0  0  0  0
 40 43  1  0  0  0  0
 40 44  1  0  0  0  0
M  CHG  1  23  -1
M  END
$$$$

  -OEChem-05262215553D

 44 43  0     1  0  0  0  0  0999 V2000
   -4.2925    0.5183   -4.5985 C   0  0  0  0  0  0  0  0  0  0  0  0
   -4.4232   -0.6736   -4.8332 O   0  0  0  0  0  0  0  0  0  0  0  0
   -5.4012    1.4857   -4.9715 C   0  0  0  0  0  0  0  0  0  0  0  0
   -5.0234    2.2305   -5.6763 H   0  0  0  0  0  0  0  0  0  0  0  0
   -6.2323    0.9482   -5.4365 H   0  0  0  0  0  0  0  0  0  0  0  0
   -5.7681    1.9944   -4.0764 H   0  0  0  0  0  0  0  0  0  0  0  0
   -3.1521    1.0015   -3.9933 N   0  0  0  0  0  0  0  0  0  0  0  0
   -2.1544    0.1549   -3.3228 C   0  0  2  0  0  0  0  0  0  0  0  0
   -2.0930    0.4422   -1.8069 C   0  0  0  0  0  0  0  0  0  0  0  0
   -2.7173    1.3869   -1.3257 O   0  0  0  0  0  0  0  0  0  0  0  0
   -0.7949    0.4278   -3.9719 C   0  0  0  0  0  0  0  0  0  0  0  0
   -3.2045    1.9618   -3.6593 H   0  0  0  0  0  0  0  0  0  0  0  0
   -2.3968   -0.9050   -3.4496 H   0  0  0  0  0  0  0  0  0  0  0  0
   -0.5018    1.4731   -3.8271 H   0  0  0  0  0  0  0  0  0  0  0  0
   -0.0212   -0.2086   -3.5305 H   0  0  0  0  0  0  0  0  0  0  0  0
   -0.8378    0.2225   -5.0455 H   0  0  0  0  0  0  0  0  0  0  0  0
   -1.4352   -0.4275   -0.9567 N   0  0  0  0  0  0  0  0  0  0  0  0
   -0.6384    0.0078    0.2087 C   0  0  2  0  0  0  0  0  0  0  0  0
   -1.4919    0.1122    1.4896 C   0  0  0  0  0  0  0  0  0  0  0  0
   -1.1203   -0.3838    2.5491 O   0  0  0  0  0  0  0  0  0  0  0  0
    0.1729    1.2940   -0.0719 C   0  0  0  0  0  0  0  0  0  0  0  0
    1.2957    1.0415   -1.0754 C   0  0  0  0  0  0  0  0  0  0  0  0
    1.8057   -0.1059   -1.1324 O   0  5  0  0  0  0  0  0  0  0  0  0
    1.5816    1.9836   -1.8506 O   0  0  0  0  0  0  0  0  0  0  0  0
   -0.9799   -1.1798   -1.4683 H   0  0  0  0  0  0  0  0  0  0  0  0
    0.0775   -0.7914    0.4303 H   0  0  0  0  0  0  0  0  0  0  0  0
    0.6401    1.6236    0.8598 H   0  0  0  0  0  0  0  0  0  0  0  0
   -0.4643    2.1100   -0.4193 H   0  0  0  0  0  0  0  0  0  0  0  0
   -2.7303    0.7207    1.4451 N   0  0  0  0  0  0  0  0  0  0  0  0
   -3.5916    0.9877    2.6048 C   0  0  2  0  0  0  0  0  0  0  0  0
   -4.3892   -0.2574    3.0697 C   0  0  0  0  0  0  0  0  0  0  0  0
   -5.6000   -0.2198    3.2697 O   0  0  0  0  0  0  0  0  0  0  0  0
   -4.4933    2.1674    2.2224 C   0  0  0  0  0  0  0  0  0  0  0  0
   -2.9831    1.1180    0.5341 H   0  0  0  0  0  0  0  0  0  0  0  0
   -2.9672    1.3006    3.4482 H   0  0  0  0  0  0  0  0  0  0  0  0
   -5.1441    1.8965    1.3849 H   0  0  0  0  0  0  0  0  0  0  0  0
   -5.1199    2.4592    3.0707 H   0  0  0  0  0  0  0  0  0  0  0  0
   -3.8862    3.0294    1.9288 H   0  0  0  0  0  0  0  0  0  0  0  0
   -3.7117   -1.4357    3.3139 N   0  0  0  0  0  0  0  0  0  0  0  0
   -4.3412   -2.6775    3.7346 C   0  0  0  0  0  0  0  0  0  0  0  0
   -2.7008   -1.4093    3.1514 H   0  0  0  0  0  0  0  0  0  0  0  0
   -4.8600   -2.5405    4.6889 H   0  0  0  0  0  0  0  0  0  0  0  0
   -5.0629   -3.0125    2.9826 H   0  0  0  0  0  0  0  0  0  0  0  0
   -3.5842   -3.4574    3.8607 H   0  0  0  0  0  0  0  0  0  0  0  0
  1  2  2  0  0  0  0
  1  3  1  0  0  0  0
  1  7  1  0  0  0  0
  3  4  1  0  0  0  0
  3  5  1  0  0  0  0
  3  6  1  0  0  0  0
  7  8  1  0  0  0  0
  7 12  1  0  0  0  0
  8  9  1  0  0  0  0
  8 11  1  0  0  0  0
  8 13  1  0  0  0  0
  9 10  2  0  0  0  0
  9 17  1  0  0  0  0
 11 14  1  0  0  0  0
 11 15  1  0  0  0  0
 11 16  1  0  0  0  0
 17 18  1  0  0  0  0
 17 25  1  0  0  0  0
 18 19  1  0  0  0  0
 18 21  1  0  0  0  0
 18 26  1  0  0  0  0
 19 20  2  0  0  0  0
 19 29  1  0  0  0  0
 21 22  1  0  0  0  0
 21 27  1  0  0  0  0
 21 28  1  0  0  0  0
 22 23  1  0  0  0  0
 22 24  2  0  0  0  0
 29 30  1  0  0  0  0
 29 34  1  0  0  0  0
 30 31  1  0  0  0  0
 30 33  1  0  0  0  0
 30 35  1  0  0  0  0
 31 32  2  0  0  0  0
 31 39  1  0  0  0  0
 33 36  1  0  0  0  0
 33 37  1  0  0  0  0
 33 38  1  0  0  0  0
 39 40  1  0  0  0  0
 39 41  1  0  0  0  0
 40 42  1  0  0  0  0
 40 43  1  0  0  0  0
 40 44  1  0  0  0  0
M  CHG  1  23  -1
M  END
$$$$

  -OEChem-05262215553D

 44 43  0     1  0  0  0  0  0999 V2000
   -4.2264    0.6504   -4.7357 C   0  0  0  0  0  0  0  0  0  0  0  0
   -4.2718   -0.5164   -5.0952 O   0  0  0  0  0  0  0  0  0  0  0  0
   -5.3839    1.5802   -5.0501 C   0  0  0  0  0  0  0  0  0  0  0  0
   -5.0429    2.3965   -5.6918 H   0  0  0  0  0  0  0  0  0  0  0  0
   -6.1786    1.0341   -5.5657 H   0  0  0  0  0  0  0  0  0  0  0  0
   -5.7882    1.9977   -4.1242 H   0  0  0  0  0  0  0  0  0  0  0  0
   -3.1410    1.1376   -4.0396 N   0  0  0  0  0  0  0  0  0  0  0  0
   -2.1033    0.2909   -3.4333 C   0  0  2  0  0  0  0  0  0  0  0  0
   -2.0865    0.4232   -1.8950 C   0  0  0  0  0  0  0  0  0  0  0  0
   -2.7812    1.2665   -1.3303 O   0  0  0  0  0  0  0  0  0  0  0  0
   -0.7528    0.7080   -4.0204 C   0  0  0  0  0  0  0  0  0  0  0  0
   -3.2648    2.0531   -3.6122 H   0  0  0  0  0  0  0  0  0  0  0  0
   -2.2770   -0.7633   -3.6713 H   0  0  0  0  0  0  0  0  0  0  0  0
   -0.5244    1.7474   -3.7615 H   0  0  0  0  0  0  0  0  0  0  0  0
    0.0497    0.0733   -3.6310 H   0  0  0  0  0  0  0  0  0  0  0  0
   -0.7663    0.6142   -5.1103 H   0  0  0  0  0  0  0  0  0  0  0  0
   -1.4270   -0.5096   -1.1175 N   0  0  0  0  0  0  0  0  0  0  0  0
   -0.6561   -0.1685    0.0972 C   0  0  2  0  0  0  0  0  0  0  0  0
   -1.5254   -0.1926    1.3725 C   0  0  0  0  0  0  0  0  0  0  0  0
   -1.0628   -0.5471    2.4526 O   0  0  0  0  0  0  0  0  0  0  0  0
    0.1244    1.1569   -0.0555 C   0  0  0  0  0  0  0  0  0  0  0  0
    1.2638    1.0251   -1.0628 C   0  0  0  0  0  0  0  0  0  0  0  0
    1.8041   -0.0993   -1.2171 O   0  5  0  0  0  0  0  0  0  0  0  0
    1.5282    2.0389   -1.7502 O   0  0  0  0  0  0  0  0  0  0  0  0
   -0.9372   -1.1909   -1.6928 H   0  0  0  0  0  0  0  0  0  0  0  0
    0.0745   -0.9690    0.2576 H   0  0  0  0  0  0  0  0  0  0  0  0
    0.5729    1.4123    0.9080 H   0  0  0  0  0  0  0  0  0  0  0  0
   -0.5320    1.9839   -0.3349 H   0  0  0  0  0  0  0  0  0  0  0  0
   -2.8707    0.1113    1.2996 N   0  0  0  0  0  0  0  0  0  0  0  0
   -3.7409    0.3269    2.4641 C   0  0  2  0  0  0  0  0  0  0  0  0
   -4.2776   -0.9897    3.0806 C   0  0  0  0  0  0  0  0  0  0  0  0
   -5.4606   -1.1352    3.3748 O   0  0  0  0  0  0  0  0  0  0  0  0
   -4.8594    1.2708    2.0072 C   0  0  0  0  0  0  0  0  0  0  0  0
   -3.1552    0.5140    0.4010 H   0  0  0  0  0  0  0  0  0  0  0  0
   -3.1697    0.8363    3.2470 H   0  0  0  0  0  0  0  0  0  0  0  0
   -5.4728    0.7930    1.2367 H   0  0  0  0  0  0  0  0  0  0  0  0
   -5.5034    1.5354    2.8515 H   0  0  0  0  0  0  0  0  0  0  0  0
   -4.4353    2.1918    1.5950 H   0  0  0  0  0  0  0  0  0  0  0  0
   -3.3939   -2.0150    3.3549 N   0  0  0  0  0  0  0  0  0  0  0  0
   -3.7640   -3.2833    3.9634 C   0  0  0  0  0  0  0  0  0  0  0  0
   -2.4105   -1.8214    3.1437 H   0  0  0  0  0  0  0  0  0  0  0  0
   -4.1811   -3.1211    4.9624 H   0  0  0  0  0  0  0  0  0  0  0  0
   -4.5076   -3.7999    3.3479 H   0  0  0  0  0  0  0  0  0  0  0  0
   -2.8834   -3.9260    4.0543 H   0  0  0  0  0  0  0  0  0  0  0  0
  1  2  2  0  0  0  0
  1  3  1  0  0  0  0
  1  7  1  0  0  0  0
  3  4  1  0  0  0  0
  3  5  1  0  0  0  0
  3  6  1  0  0  0  0
  7  8  1  0  0  0  0
  7 12  1  0  0  0  0
  8  9  1  0  0  0  0
  8 11  1  0  0  0  0
  8 13  1  0  0  0  0
  9 10  2  0  0  0  0
  9 17  1  0  0  0  0
 11 14  1  0  0  0  0
 11 15  1  0  0  0  0
 11 16  1  0  0  0  0
 17 18  1  0  0  0  0
 17 25  1  0  0  0  0
 18 19  1  0  0  0  0
 18 21  1  0  0  0  0
 18 26  1  0  0  0  0
 19 20  2  0  0  0  0
 19 29  1  0  0  0  0
 21 22  1  0  0  0  0
 21 27  1  0  0  0  0
 21 28  1  0  0  0  0
 22 23  1  0  0  0  0
 22 24  2  0  0  0  0
 29 30  1  0  0  0  0
 29 34  1  0  0  0  0
 30 31  1  0  0  0  0
 30 33  1  0  0  0  0
 30 35  1  0  0  0  0
 31 32  2  0  0  0  0
 31 39  1  0  0  0  0
 33 36  1  0  0  0  0
 33 37  1  0  0  0  0
 33 38  1  0  0  0  0
 39 40  1  0  0  0  0
 39 41  1  0  0  0  0
 40 42  1  0  0  0  0
 40 43  1  0  0  0  0
 40 44  1  0  0  0  0
M  CHG  1  23  -1
M  END
$$$$

  -OEChem-05262215553D

 44 43  0     1  0  0  0  0  0999 V2000
   -4.2787    0.0475   -4.6173 C   0  0  0  0  0  0  0  0  0  0  0  0
   -3.9035   -0.9356   -5.2387 O   0  0  0  0  0  0  0  0  0  0  0  0
   -5.7268    0.4922   -4.7136 C   0  0  0  0  0  0  0  0  0  0  0  0
   -5.7849    1.4689   -5.2000 H   0  0  0  0  0  0  0  0  0  0  0  0
   -6.3057   -0.2293   -5.2969 H   0  0  0  0  0  0  0  0  0  0  0  0
   -6.1615    0.5654   -3.7133 H   0  0  0  0  0  0  0  0  0  0  0  0
   -3.4064    0.7583   -3.8220 N   0  0  0  0  0  0  0  0  0  0  0  0
   -2.0775    0.2793   -3.4191 C   0  0  2  0  0  0  0  0  0  0  0  0
   -1.8879    0.3957   -1.8919 C   0  0  0  0  0  0  0  0  0  0  0  0
   -2.7357    0.9547   -1.1997 O   0  0  0  0  0  0  0  0  0  0  0  0
   -1.0236    1.1092   -4.1555 C   0  0  0  0  0  0  0  0  0  0  0  0
   -3.8263    1.4478   -3.2001 H   0  0  0  0  0  0  0  0  0  0  0  0
   -1.9531   -0.7749   -3.6874 H   0  0  0  0  0  0  0  0  0  0  0  0
   -1.0952    2.1636   -3.8688 H   0  0  0  0  0  0  0  0  0  0  0  0
   -0.0157    0.7561   -3.9144 H   0  0  0  0  0  0  0  0  0  0  0  0
   -1.1663    1.0306   -5.2374 H   0  0  0  0  0  0  0  0  0  0  0  0
   -0.8759   -0.2886   -1.2483 N   0  0  0  0  0  0  0  0  0  0  0  0
   -0.1144    0.2728   -0.1121 C   0  0  2  0  0  0  0  0  0  0  0  0
   -0.7703   -0.0469    1.2503 C   0  0  0  0  0  0  0  0  0  0  0  0
   -0.1271    0.0193    2.2932 O   0  0  0  0  0  0  0  0  0  0  0  0
    0.1956    1.7766   -0.3014 C   0  0  0  0  0  0  0  0  0  0  0  0
    1.1971    2.0045   -1.4314 C   0  0  0  0  0  0  0  0  0  0  0  0
    2.0371    1.1035   -1.6839 O   0  5  0  0  0  0  0  0  0  0  0  0
    1.0600    3.0527   -2.1046 O   0  0  0  0  0  0  0  0  0  0  0  0
   -0.2681   -0.7646   -1.9106 H   0  0  0  0  0  0  0  0  0  0  0  0
    0.8424   -0.2582   -0.0673 H   0  0  0  0  0  0  0  0  0  0  0  0
    0.6509    2.1597    0.6158 H   0  0  0  0  0  0  0  0  0  0  0  0
   -0.7119    2.3584   -0.4775 H   0  0  0  0  0  0  0  0  0  0  0  0
   -2.0755   -0.4990    1.3050 N   0  0  0  0  0  0  0  0  0  0  0  0
   -2.8229   -0.7542    2.5408 C   0  0  2  0  0  0  0  0  0  0  0  0
   -3.8675   -1.8810    2.3931 C   0  0  0  0  0  0  0  0  0  0  0  0
   -4.4744   -2.0592    1.3429 O   0  0  0  0  0  0  0  0  0  0  0  0
   -3.5028    0.5516    2.9602 C   0  0  0  0  0  0  0  0  0  0  0  0
   -2.6079   -0.3698    0.4401 H   0  0  0  0  0  0  0  0  0  0  0  0
   -2.1278   -1.0610    3.3284 H   0  0  0  0  0  0  0  0  0  0  0  0
   -4.1968    0.8875    2.1826 H   0  0  0  0  0  0  0  0  0  0  0  0
   -4.0603    0.4118    3.8909 H   0  0  0  0  0  0  0  0  0  0  0  0
   -2.7537    1.3338    3.1190 H   0  0  0  0  0  0  0  0  0  0  0  0
   -4.1617   -2.6890    3.4778 N   0  0  0  0  0  0  0  0  0  0  0  0
   -5.1126   -3.7912    3.4203 C   0  0  0  0  0  0  0  0  0  0  0  0
   -3.6088   -2.5568    4.3191 H   0  0  0  0  0  0  0  0  0  0  0  0
   -6.1092   -3.4232    3.1549 H   0  0  0  0  0  0  0  0  0  0  0  0
   -4.7983   -4.5293    2.6750 H   0  0  0  0  0  0  0  0  0  0  0  0
   -5.1754   -4.2866    4.3937 H   0  0  0  0  0  0  0  0  0  0  0  0
  1  2  2  0  0  0  0
  1  3  1  0  0  0  0
  1  7  1  0  0  0  0
  3  4  1  0  0  0  0
  3  5  1  0  0  0  0
  3  6  1  0  0  0  0
  7  8  1  0  0  0  0
  7 12  1  0  0  0  0
  8  9  1  0  0  0  0
  8 11  1  0  0  0  0
  8 13  1  0  0  0  0
  9 10  2  0  0  0  0
  9 17  1  0  0  0  0
 11 14  1  0  0  0  0
 11 15  1  0  0  0  0
 11 16  1  0  0  0  0
 17 18  1  0  0  0  0
 17 25  1  0  0  0  0
 18 19  1  0  0  0  0
 18 21  1  0  0  0  0
 18 26  1  0  0  0  0
 19 20  2  0  0  0  0
 19 29  1  0  0  0  0
 21 22  1  0  0  0  0
 21 27  1  0  0  0  0
 21 28  1  0  0  0  0
 22 23  1  0  0  0  0
 22 24  2  0  0  0  0
 29 30  1  0  0  0  0
 29 34  1  0  0  0  0
 30 31  1  0  0  0  0
 30 33  1  0  0  0  0
 30 35  1  0  0  0  0
 31 32  2  0  0  0  0
 31 39  1  0  0  0  0
 33 36  1  0  0  0  0
 33 37  1  0  0  0  0
 33 38  1  0  0  0  0
 39 40  1  0  0  0  0
 39 41  1  0  0  0  0
 40 42  1  0  0  0  0
 40 43  1  0  0  0  0
 40 44  1  0  0  0  0
M  CHG  1  23  -1
M  END
$$$$

  -OEChem-05262215553D

 44 43  0     1  0  0  0  0  0999 V2000
   -4.3305    0.0904   -4.5912 C   0  0  0  0  0  0  0  0  0  0  0  0
   -3.9718   -0.8822   -5.2383 O   0  0  0  0  0  0  0  0  0  0  0  0
   -5.7718    0.5600   -4.6727 C   0  0  0  0  0  0  0  0  0  0  0  0
   -5.8167    1.5433   -5.1471 H   0  0  0  0  0  0  0  0  0  0  0  0
   -6.3670   -0.1446   -5.2601 H   0  0  0  0  0  0  0  0  0  0  0  0
   -6.1980    0.6290   -3.6687 H   0  0  0  0  0  0  0  0  0  0  0  0
   -3.4470    0.7652   -3.7774 N   0  0  0  0  0  0  0  0  0  0  0  0
   -2.1190    0.2637   -3.3985 C   0  0  2  0  0  0  0  0  0  0  0  0
   -1.9031    0.3559   -1.8724 C   0  0  0  0  0  0  0  0  0  0  0  0
   -2.7657    0.8484   -1.1499 O   0  0  0  0  0  0  0  0  0  0  0  0
   -1.0644    1.0871   -4.1420 C   0  0  0  0  0  0  0  0  0  0  0  0
   -3.8547    1.4447   -3.1367 H   0  0  0  0  0  0  0  0  0  0  0  0
   -2.0134   -0.7886   -3.6809 H   0  0  0  0  0  0  0  0  0  0  0  0
   -1.1281    2.1422   -3.8553 H   0  0  0  0  0  0  0  0  0  0  0  0
   -0.0571    0.7282   -3.9071 H   0  0  0  0  0  0  0  0  0  0  0  0
   -1.2142    1.0091   -5.2230 H   0  0  0  0  0  0  0  0  0  0  0  0
   -0.8338   -0.2778   -1.2701 N   0  0  0  0  0  0  0  0  0  0  0  0
   -0.0831    0.3083   -0.1389 C   0  0  2  0  0  0  0  0  0  0  0  0
   -0.6833   -0.0823    1.2317 C   0  0  0  0  0  0  0  0  0  0  0  0
   -0.1371    0.2367    2.2834 O   0  0  0  0  0  0  0  0  0  0  0  0
    0.1387    1.8303   -0.3137 C   0  0  0  0  0  0  0  0  0  0  0  0
    1.1044    2.1271   -1.4591 C   0  0  0  0  0  0  0  0  0  0  0  0
    1.9882    1.2769   -1.7385 O   0  5  0  0  0  0  0  0  0  0  0  0
    0.8968    3.1736   -2.1172 O   0  0  0  0  0  0  0  0  0  0  0  0
   -0.2109   -0.6917   -1.9598 H   0  0  0  0  0  0  0  0  0  0  0  0
    0.9026   -0.1677   -0.1237 H   0  0  0  0  0  0  0  0  0  0  0  0
    0.5896    2.2289    0.5986 H   0  0  0  0  0  0  0  0  0  0  0  0
   -0.8034    2.3614   -0.4651 H   0  0  0  0  0  0  0  0  0  0  0  0
   -1.8016   -0.8922    1.2934 N   0  0  0  0  0  0  0  0  0  0  0  0
   -2.5227   -1.2239    2.5262 C   0  0  2  0  0  0  0  0  0  0  0  0
   -3.3053   -2.5507    2.4296 C   0  0  0  0  0  0  0  0  0  0  0  0
   -3.6985   -2.9851    1.3524 O   0  0  0  0  0  0  0  0  0  0  0  0
   -3.4772   -0.0679    2.8418 C   0  0  0  0  0  0  0  0  0  0  0  0
   -2.2990   -1.0035    0.4096 H   0  0  0  0  0  0  0  0  0  0  0  0
   -1.8054   -1.3305    3.3461 H   0  0  0  0  0  0  0  0  0  0  0  0
   -4.1930    0.0680    2.0247 H   0  0  0  0  0  0  0  0  0  0  0  0
   -4.0311   -0.2667    3.7638 H   0  0  0  0  0  0  0  0  0  0  0  0
   -2.9167    0.8637    2.9696 H   0  0  0  0  0  0  0  0  0  0  0  0
   -3.5967   -3.2591    3.5825 N   0  0  0  0  0  0  0  0  0  0  0  0
   -4.3162   -4.5259    3.5858 C   0  0  0  0  0  0  0  0  0  0  0  0
   -3.2314   -2.8955    4.4573 H   0  0  0  0  0  0  0  0  0  0  0  0
   -5.3020   -4.4073    3.1236 H   0  0  0  0  0  0  0  0  0  0  0  0
   -3.7549   -5.2861    3.0322 H   0  0  0  0  0  0  0  0  0  0  0  0
   -4.4567   -4.8773    4.6125 H   0  0  0  0  0  0  0  0  0  0  0  0
  1  2  2  0  0  0  0
  1  3  1  0  0  0  0
  1  7  1  0  0  0  0
  3  4  1  0  0  0  0
  3  5  1  0  0  0  0
  3  6  1  0  0  0  0
  7  8  1  0  0  0  0
  7 12  1  0  0  0  0
  8  9  1  0  0  0  0
  8 11  1  0  0  0  0
  8 13  1  0  0  0  0
  9 10  2  0  0  0  0
  9 17  1  0  0  0  0
 11 14  1  0  0  0  0
 11 15  1  0  0  0  0
 11 16  1  0  0  0  0
 17 18  1  0  0  0  0
 17 25  1  0  0  0  0
 18 19  1  0  0  0  0
 18 21  1  0  0  0  0
 18 26  1  0  0  0  0
 19 20  2  0  0  0  0
 19 29  1  0  0  0  0
 21 22  1  0  0  0  0
 21 27  1  0  0  0  0
 21 28  1  0  0  0  0
 22 23  1  0  0  0  0
 22 24  2  0  0  0  0
 29 30  1  0  0  0  0
 29 34  1  0  0  0  0
 30 31  1  0  0  0  0
 30 33  1  0  0  0  0
 30 35  1  0  0  0  0
 31 32  2  0  0  0  0
 31 39  1  0  0  0  0
 33 36  1  0  0  0  0
 33 37  1  0  0  0  0
 33 38  1  0  0  0  0
 39 40  1  0  0  0  0
 39 41  1  0  0  0  0
 40 42  1  0  0  0  0
 40 43  1  0  0  0  0
 40 44  1  0  0  0  0
M  CHG  1  23  -1
M  END
$$$$

  -OEChem-05262215553D

 44 43  0     1  0  0  0  0  0999 V2000
   -4.4005    0.0706   -4.4925 C   0  0  0  0  0  0  0  0  0  0  0  0
   -4.0666   -0.9188   -5.1271 O   0  0  0  0  0  0  0  0  0  0  0  0
   -5.8321    0.5686   -4.5713 C   0  0  0  0  0  0  0  0  0  0  0  0
   -5.8599    1.5394   -5.0726 H   0  0  0  0  0  0  0  0  0  0  0  0
   -6.4476   -0.1391   -5.1336 H   0  0  0  0  0  0  0  0  0  0  0  0
   -6.2471    0.6739   -3.5655 H   0  0  0  0  0  0  0  0  0  0  0  0
   -3.4952    0.7444   -3.7026 N   0  0  0  0  0  0  0  0  0  0  0  0
   -2.1615    0.2404   -3.3489 C   0  0  2  0  0  0  0  0  0  0  0  0
   -1.9115    0.3464   -1.8285 C   0  0  0  0  0  0  0  0  0  0  0  0
   -2.7617    0.8429   -1.0944 O   0  0  0  0  0  0  0  0  0  0  0  0
   -1.1251    1.0547   -4.1277 C   0  0  0  0  0  0  0  0  0  0  0  0
   -3.8807    1.4411   -3.0666 H   0  0  0  0  0  0  0  0  0  0  0  0
   -2.0653   -0.8151   -3.6231 H   0  0  0  0  0  0  0  0  0  0  0  0
   -1.1837    2.1135   -3.8540 H   0  0  0  0  0  0  0  0  0  0  0  0
   -0.1117    0.7008   -3.9128 H   0  0  0  0  0  0  0  0  0  0  0  0
   -1.3012    0.9622   -5.2036 H   0  0  0  0  0  0  0  0  0  0  0  0
   -0.8172   -0.2674   -1.2497 N   0  0  0  0  0  0  0  0  0  0  0  0
   -0.0564    0.3387   -0.1364 C   0  0  2  0  0  0  0  0  0  0  0  0
   -0.6282   -0.0652    1.2432 C   0  0  0  0  0  0  0  0  0  0  0  0
   -0.2445    0.4580    2.2851 O   0  0  0  0  0  0  0  0  0  0  0  0
    0.1473    1.8614   -0.3359 C   0  0  0  0  0  0  0  0  0  0  0  0
    1.0935    2.1493   -1.4998 C   0  0  0  0  0  0  0  0  0  0  0  0
    1.9808    1.3021   -1.7784 O   0  5  0  0  0  0  0  0  0  0  0  0
    0.8665    3.1821   -2.1728 O   0  0  0  0  0  0  0  0  0  0  0  0
   -0.1990   -0.6616   -1.9552 H   0  0  0  0  0  0  0  0  0  0  0  0
    0.9359   -0.1235   -0.1326 H   0  0  0  0  0  0  0  0  0  0  0  0
    0.6075    2.2794    0.5626 H   0  0  0  0  0  0  0  0  0  0  0  0
   -0.8016    2.3814   -0.4819 H   0  0  0  0  0  0  0  0  0  0  0  0
   -1.5115   -1.1250    1.3348 N   0  0  0  0  0  0  0  0  0  0  0  0
   -2.2012   -1.5350    2.5623 C   0  0  2  0  0  0  0  0  0  0  0  0
   -2.6494   -3.0115    2.5351 C   0  0  0  0  0  0  0  0  0  0  0  0
   -2.7963   -3.6155    1.4777 O   0  0  0  0  0  0  0  0  0  0  0  0
   -3.4137   -0.6182    2.7566 C   0  0  0  0  0  0  0  0  0  0  0  0
   -1.8752   -1.4698    0.4481 H   0  0  0  0  0  0  0  0  0  0  0  0
   -1.5216   -1.4187    3.4128 H   0  0  0  0  0  0  0  0  0  0  0  0
   -4.0986   -0.7066    1.9070 H   0  0  0  0  0  0  0  0  0  0  0  0
   -3.9537   -0.8817    3.6706 H   0  0  0  0  0  0  0  0  0  0  0  0
   -3.0924    0.4253    2.8347 H   0  0  0  0  0  0  0  0  0  0  0  0
   -2.9090   -3.6689    3.7249 N   0  0  0  0  0  0  0  0  0  0  0  0
   -3.3136   -5.0662    3.7993 C   0  0  0  0  0  0  0  0  0  0  0  0
   -2.7534   -3.1522    4.5852 H   0  0  0  0  0  0  0  0  0  0  0  0
   -4.2488   -5.2250    3.2519 H   0  0  0  0  0  0  0  0  0  0  0  0
   -2.5391   -5.7111    3.3711 H   0  0  0  0  0  0  0  0  0  0  0  0
   -3.4704   -5.3577    4.8422 H   0  0  0  0  0  0  0  0  0  0  0  0
  1  2  2  0  0  0  0
  1  3  1  0  0  0  0
  1  7  1  0  0  0  0
  3  4  1  0  0  0  0
  3  5  1  0  0  0  0
  3  6  1  0  0  0  0
  7  8  1  0  0  0  0
  7 12  1  0  0  0  0
  8  9  1  0  0  0  0
  8 11  1  0  0  0  0
  8 13  1  0  0  0  0
  9 10  2  0  0  0  0
  9 17  1  0  0  0  0
 11 14  1  0  0  0  0
 11 15  1  0  0  0  0
 11 16  1  0  0  0  0
 17 18  1  0  0  0  0
 17 25  1  0  0  0  0
 18 19  1  0  0  0  0
 18 21  1  0  0  0  0
 18 26  1  0  0  0  0
 19 20  2  0  0  0  0
 19 29  1  0  0  0  0
 21 22  1  0  0  0  0
 21 27  1  0  0  0  0
 21 28  1  0  0  0  0
 22 23  1  0  0  0  0
 22 24  2  0  0  0  0
 29 30  1  0  0  0  0
 29 34  1  0  0  0  0
 30 31  1  0  0  0  0
 30 33  1  0  0  0  0
 30 35  1  0  0  0  0
 31 32  2  0  0  0  0
 31 39  1  0  0  0  0
 33 36  1  0  0  0  0
 33 37  1  0  0  0  0
 33 38  1  0  0  0  0
 39 40  1  0  0  0  0
 39 41  1  0  0  0  0
 40 42  1  0  0  0  0
 40 43  1  0  0  0  0
 40 44  1  0  0  0  0
M  CHG  1  23  -1
M  END
$$$$

  -OEChem-05262215553D

 44 43  0     1  0  0  0  0  0999 V2000
   -4.4576    0.0118   -4.3774 C   0  0  0  0  0  0  0  0  0  0  0  0
   -4.1747   -1.0365   -4.9382 O   0  0  0  0  0  0  0  0  0  0  0  0
   -5.8780    0.5428   -4.4428 C   0  0  0  0  0  0  0  0  0  0  0  0
   -5.8956    1.4886   -4.9901 H   0  0  0  0  0  0  0  0  0  0  0  0
   -6.5270   -0.1743   -4.9529 H   0  0  0  0  0  0  0  0  0  0  0  0
   -6.2611    0.7082   -3.4325 H   0  0  0  0  0  0  0  0  0  0  0  0
   -3.5054    0.7257   -3.6835 N   0  0  0  0  0  0  0  0  0  0  0  0
   -2.1788    0.2080   -3.3221 C   0  0  2  0  0  0  0  0  0  0  0  0
   -1.9222    0.3374   -1.8045 C   0  0  0  0  0  0  0  0  0  0  0  0
   -2.7630    0.8605   -1.0788 O   0  0  0  0  0  0  0  0  0  0  0  0
   -1.1343    0.9960   -4.1165 C   0  0  0  0  0  0  0  0  0  0  0  0
   -3.8555    1.4738   -3.0871 H   0  0  0  0  0  0  0  0  0  0  0  0
   -2.0952   -0.8529   -3.5790 H   0  0  0  0  0  0  0  0  0  0  0  0
   -1.1766    2.0592   -3.8576 H   0  0  0  0  0  0  0  0  0  0  0  0
   -0.1256    0.6300   -3.9003 H   0  0  0  0  0  0  0  0  0  0  0  0
   -1.3152    0.8918   -5.1907 H   0  0  0  0  0  0  0  0  0  0  0  0
   -0.8197   -0.2628   -1.2259 N   0  0  0  0  0  0  0  0  0  0  0  0
   -0.0544    0.3631   -0.1276 C   0  0  2  0  0  0  0  0  0  0  0  0
   -0.6202   -0.0300    1.2575 C   0  0  0  0  0  0  0  0  0  0  0  0
   -0.4348    0.6496    2.2626 O   0  0  0  0  0  0  0  0  0  0  0  0
    0.1543    1.8818   -0.3556 C   0  0  0  0  0  0  0  0  0  0  0  0
    1.0987    2.1449   -1.5269 C   0  0  0  0  0  0  0  0  0  0  0  0
    1.9820    1.2887   -1.7909 O   0  5  0  0  0  0  0  0  0  0  0  0
    0.8772    3.1671   -2.2176 O   0  0  0  0  0  0  0  0  0  0  0  0
   -0.2068   -0.6668   -1.9305 H   0  0  0  0  0  0  0  0  0  0  0  0
    0.9378   -0.0992   -0.1212 H   0  0  0  0  0  0  0  0  0  0  0  0
    0.6202    2.3150    0.5328 H   0  0  0  0  0  0  0  0  0  0  0  0
   -0.7936    2.4023   -0.5078 H   0  0  0  0  0  0  0  0  0  0  0  0
   -1.2346   -1.2592    1.4141 N   0  0  0  0  0  0  0  0  0  0  0  0
   -1.8655   -1.7291    2.6520 C   0  0  2  0  0  0  0  0  0  0  0  0
   -1.9718   -3.2670    2.7200 C   0  0  0  0  0  0  0  0  0  0  0  0
   -1.9189   -3.9535    1.7047 O   0  0  0  0  0  0  0  0  0  0  0  0
   -3.2582   -1.0970    2.7518 C   0  0  0  0  0  0  0  0  0  0  0  0
   -1.4166   -1.7814    0.5596 H   0  0  0  0  0  0  0  0  0  0  0  0
   -1.2622   -1.4077    3.5073 H   0  0  0  0  0  0  0  0  0  0  0  0
   -3.8738   -1.3920    1.8958 H   0  0  0  0  0  0  0  0  0  0  0  0
   -3.7601   -1.4143    3.6705 H   0  0  0  0  0  0  0  0  0  0  0  0
   -3.1795   -0.0049    2.7617 H   0  0  0  0  0  0  0  0  0  0  0  0
   -2.1444   -3.8897    3.9437 N   0  0  0  0  0  0  0  0  0  0  0  0
   -2.2307   -5.3350    4.1040 C   0  0  0  0  0  0  0  0  0  0  0  0
   -2.1582   -3.2982    4.7692 H   0  0  0  0  0  0  0  0  0  0  0  0
   -3.0640   -5.7369    3.5185 H   0  0  0  0  0  0  0  0  0  0  0  0
   -1.3030   -5.8123    3.7719 H   0  0  0  0  0  0  0  0  0  0  0  0
   -2.3940   -5.5888    5.1555 H   0  0  0  0  0  0  0  0  0  0  0  0
  1  2  2  0  0  0  0
  1  3  1  0  0  0  0
  1  7  1  0  0  0  0
  3  4  1  0  0  0  0
  3  5  1  0  0  0  0
  3  6  1  0  0  0  0
  7  8  1  0  0  0  0
  7 12  1  0  0  0  0
  8  9  1  0  0  0  0
  8 11  1  0  0  0  0
  8 13  1  0  0  0  0
  9 10  2  0  0  0  0
  9 17  1  0  0  0  0
 11 14  1  0  0  0  0
 11 15  1  0  0  0  0
 11 16  1  0  0  0  0
 17 18  1  0  0  0  0
 17 25  1  0  0  0  0
 18 19  1  0  0  0  0
 18 21  1  0  0  0  0
 18 26  1  0  0  0  0
 19 20  2  0  0  0  0
 19 29  1  0  0  0  0
 21 22  1  0  0  0  0
 21 27  1  0  0  0  0
 21 28  1  0  0  0  0
 22 23  1  0  0  0  0
 22 24  2  0  0  0  0
 29 30  1  0  0  0  0
 29 34  1  0  0  0  0
 30 31  1  0  0  0  0
 30 33  1  0  0  0  0
 30 35  1  0  0  0  0
 31 32  2  0  0  0  0
 31 39  1  0  0  0  0
 33 36  1  0  0  0  0
 33 37  1  0  0  0  0
 33 38  1  0  0  0  0
 39 40  1  0  0  0  0
 39 41  1  0  0  0  0
 40 42  1  0  0  0  0
 40 43  1  0  0  0  0
 40 44  1  0  0  0  0
M  CHG  1  23  -1
M  END
$$$$

  -OEChem-05262215553D

 44 43  0     1  0  0  0  0  0999 V2000
   -4.4952   -0.0399   -4.2939 C   0  0  0  0  0  0  0  0  0  0  0  0
   -4.2569   -1.1340   -4.7840 O   0  0  0  0  0  0  0  0  0  0  0  0
   -5.9005    0.5291   -4.3653 C   0  0  0  0  0  0  0  0  0  0  0  0
   -5.8958    1.4568   -4.9425 H   0  0  0  0  0  0  0  0  0  0  0  0
   -6.5752   -0.1838   -4.8467 H   0  0  0  0  0  0  0  0  0  0  0  0
   -6.2677    0.7380   -3.3575 H   0  0  0  0  0  0  0  0  0  0  0  0
   -3.5069    0.6944   -3.6758 N   0  0  0  0  0  0  0  0  0  0  0  0
   -2.1907    0.1617   -3.2973 C   0  0  2  0  0  0  0  0  0  0  0  0
   -1.9330    0.3213   -1.7824 C   0  0  0  0  0  0  0  0  0  0  0  0
   -2.7699    0.8676   -1.0698 O   0  0  0  0  0  0  0  0  0  0  0  0
   -1.1321    0.9167   -4.1054 C   0  0  0  0  0  0  0  0  0  0  0  0
   -3.8263    1.4894   -3.1245 H   0  0  0  0  0  0  0  0  0  0  0  0
   -2.1231   -0.9054   -3.5316 H   0  0  0  0  0  0  0  0  0  0  0  0
   -1.1596    1.9859   -3.8686 H   0  0  0  0  0  0  0  0  0  0  0  0
   -0.1294    0.5411   -3.8783 H   0  0  0  0  0  0  0  0  0  0  0  0
   -1.3120    0.7923   -5.1775 H   0  0  0  0  0  0  0  0  0  0  0  0
   -0.8268   -0.2654   -1.1962 N   0  0  0  0  0  0  0  0  0  0  0  0
   -0.0610    0.3780   -0.1098 C   0  0  2  0  0  0  0  0  0  0  0  0
   -0.6265   -0.0004    1.2789 C   0  0  0  0  0  0  0  0  0  0  0  0
   -0.6648    0.7862    2.2202 O   0  0  0  0  0  0  0  0  0  0  0  0
    0.1511    1.8925   -0.3626 C   0  0  0  0  0  0  0  0  0  0  0  0
    1.0964    2.1347   -1.5376 C   0  0  0  0  0  0  0  0  0  0  0  0
    1.9776    1.2714   -1.7857 O   0  5  0  0  0  0  0  0  0  0  0  0
    0.8798    3.1459   -2.2458 O   0  0  0  0  0  0  0  0  0  0  0  0
   -0.2148   -0.6786   -1.8961 H   0  0  0  0  0  0  0  0  0  0  0  0
    0.9314   -0.0828   -0.0969 H   0  0  0  0  0  0  0  0  0  0  0  0
    0.6161    2.3386    0.5201 H   0  0  0  0  0  0  0  0  0  0  0  0
   -0.7957    2.4116   -0.5246 H   0  0  0  0  0  0  0  0  0  0  0  0
   -0.9477   -1.3218    1.5325 N   0  0  0  0  0  0  0  0  0  0  0  0
   -1.5083   -1.8216    2.7924 C   0  0  2  0  0  0  0  0  0  0  0  0
   -1.2767   -3.3351    2.9847 C   0  0  0  0  0  0  0  0  0  0  0  0
   -1.0304   -4.0648    2.0297 O   0  0  0  0  0  0  0  0  0  0  0  0
   -3.0092   -1.5114    2.8088 C   0  0  0  0  0  0  0  0  0  0  0  0
   -0.9225   -1.9581    0.7389 H   0  0  0  0  0  0  0  0  0  0  0  0
   -1.0243   -1.3082    3.6295 H   0  0  0  0  0  0  0  0  0  0  0  0
   -3.5108   -2.0105    1.9737 H   0  0  0  0  0  0  0  0  0  0  0  0
   -3.4627   -1.8522    3.7439 H   0  0  0  0  0  0  0  0  0  0  0  0
   -3.1764   -0.4332    2.7184 H   0  0  0  0  0  0  0  0  0  0  0  0
   -1.3641   -3.8892    4.2496 N   0  0  0  0  0  0  0  0  0  0  0  0
   -1.1448   -5.3028    4.5242 C   0  0  0  0  0  0  0  0  0  0  0  0
   -1.5427   -3.2564    5.0236 H   0  0  0  0  0  0  0  0  0  0  0  0
   -1.8416   -5.9179    3.9451 H   0  0  0  0  0  0  0  0  0  0  0  0
   -0.1204   -5.5885    4.2636 H   0  0  0  0  0  0  0  0  0  0  0  0
   -1.3029   -5.5092    5.5870 H   0  0  0  0  0  0  0  0  0  0  0  0
  1  2  2  0  0  0  0
  1  3  1  0  0  0  0
  1  7  1  0  0  0  0
  3  4  1  0  0  0  0
  3  5  1  0  0  0  0
  3  6  1  0  0  0  0
  7  8  1  0  0  0  0
  7 12  1  0  0  0  0
  8  9  1  0  0  0  0
  8 11  1  0  0  0  0
  8 13  1  0  0  0  0
  9 10  2  0  0  0  0
  9 17  1  0  0  0  0
 11 14  1  0  0  0  0
 11 15  1  0  0  0  0
 11 16  1  0  0  0  0
 17 18  1  0  0  0  0
 17 25  1  0  0  0  0
 18 19  1  0  0  0  0
 18 21  1  0  0  0  0
 18 26  1  0  0  0  0
 19 20  2  0  0  0  0
 19 29  1  0  0  0  0
 21 22  1  0  0  0  0
 21 27  1  0  0  0  0
 21 28  1  0  0  0  0
 22 23  1  0  0  0  0
 22 24  2  0  0  0  0
 29 30  1  0  0  0  0
 29 34  1  0  0  0  0
 30 31  1  0  0  0  0
 30 33  1  0  0  0  0
 30 35  1  0  0  0  0
 31 32  2  0  0  0  0
 31 39  1  0  0  0  0
 33 36  1  0  0  0  0
 33 37  1  0  0  0  0
 33 38  1  0  0  0  0
 39 40  1  0  0  0  0
 39 41  1  0  0  0  0
 40 42  1  0  0  0  0
 40 43  1  0  0  0  0
 40 44  1  0  0  0  0
M  CHG  1  23  -1
M  END
$$$$

  -OEChem-05262215553D

 44 43  0     1  0  0  0  0  0999 V2000
   -4.4997   -0.0566   -4.2910 C   0  0  0  0  0  0  0  0  0  0  0  0
   -4.2532   -1.1495   -4.7799 O   0  0  0  0  0  0  0  0  0  0  0  0
   -5.9105    0.4993   -4.3622 C   0  0  0  0  0  0  0  0  0  0  0  0
   -5.9142    1.4324   -4.9311 H   0  0  0  0  0  0  0  0  0  0  0  0
   -6.5760   -0.2169   -4.8520 H   0  0  0  0  0  0  0  0  0  0  0  0
   -6.2840    0.6948   -3.3537 H   0  0  0  0  0  0  0  0  0  0  0  0
   -3.5177    0.6821   -3.6680 N   0  0  0  0  0  0  0  0  0  0  0  0
   -2.2038    0.1511   -3.2797 C   0  0  2  0  0  0  0  0  0  0  0  0
   -1.9507    0.3271   -1.7663 C   0  0  0  0  0  0  0  0  0  0  0  0
   -2.7779    0.9058   -1.0687 O   0  0  0  0  0  0  0  0  0  0  0  0
   -1.1381    0.8910   -4.0926 C   0  0  0  0  0  0  0  0  0  0  0  0
   -3.8427    1.4745   -3.1159 H   0  0  0  0  0  0  0  0  0  0  0  0
   -2.1393   -0.9190   -3.5001 H   0  0  0  0  0  0  0  0  0  0  0  0
   -1.1607    1.9631   -3.8700 H   0  0  0  0  0  0  0  0  0  0  0  0
   -0.1382    0.5133   -3.8563 H   0  0  0  0  0  0  0  0  0  0  0  0
   -1.3135    0.7530   -5.1637 H   0  0  0  0  0  0  0  0  0  0  0  0
   -0.8577   -0.2752   -1.1720 N   0  0  0  0  0  0  0  0  0  0  0  0
   -0.0780    0.3566   -0.0905 C   0  0  2  0  0  0  0  0  0  0  0  0
   -0.6511   -0.0001    1.3007 C   0  0  0  0  0  0  0  0  0  0  0  0
   -0.9015    0.8417    2.1579 O   0  0  0  0  0  0  0  0  0  0  0  0
    0.1692    1.8634   -0.3542 C   0  0  0  0  0  0  0  0  0  0  0  0
    1.1205    2.0747   -1.5310 C   0  0  0  0  0  0  0  0  0  0  0  0
    1.9811    1.1884   -1.7714 O   0  5  0  0  0  0  0  0  0  0  0  0
    0.9310    3.0866   -2.2459 O   0  0  0  0  0  0  0  0  0  0  0  0
   -0.2570   -0.7128   -1.8662 H   0  0  0  0  0  0  0  0  0  0  0  0
    0.9048   -0.1244   -0.0763 H   0  0  0  0  0  0  0  0  0  0  0  0
    0.6440    2.3035    0.5261 H   0  0  0  0  0  0  0  0  0  0  0  0
   -0.7656    2.4033   -0.5203 H   0  0  0  0  0  0  0  0  0  0  0  0
   -0.7071   -1.3313    1.6750 N   0  0  0  0  0  0  0  0  0  0  0  0
   -1.1770   -1.8195    2.9761 C   0  0  2  0  0  0  0  0  0  0  0  0
   -0.6287   -3.2216    3.3128 C   0  0  0  0  0  0  0  0  0  0  0  0
   -0.2076   -3.9630    2.4308 O   0  0  0  0  0  0  0  0  0  0  0  0
   -2.7090   -1.8426    2.9599 C   0  0  0  0  0  0  0  0  0  0  0  0
   -0.4633   -2.0228    0.9693 H   0  0  0  0  0  0  0  0  0  0  0  0
   -0.8343   -1.1376    3.7612 H   0  0  0  0  0  0  0  0  0  0  0  0
   -3.0716   -2.5120    2.1734 H   0  0  0  0  0  0  0  0  0  0  0  0
   -3.0985   -2.1889    3.9216 H   0  0  0  0  0  0  0  0  0  0  0  0
   -3.1023   -0.8387    2.7699 H   0  0  0  0  0  0  0  0  0  0  0  0
   -0.6192   -3.6615    4.6246 N   0  0  0  0  0  0  0  0  0  0  0  0
   -0.0841   -4.9531    5.0344 C   0  0  0  0  0  0  0  0  0  0  0  0
   -0.9438   -3.0127    5.3355 H   0  0  0  0  0  0  0  0  0  0  0  0
   -0.6045   -5.7660    4.5174 H   0  0  0  0  0  0  0  0  0  0  0  0
    0.9845   -5.0147    4.8039 H   0  0  0  0  0  0  0  0  0  0  0  0
   -0.2150   -5.0905    6.1119 H   0  0  0  0  0  0  0  0  0  0  0  0
  1  2  2  0  0  0  0
  1  3  1  0  0  0  0
  1  7  1  0  0  0  0
  3  4  1  0  0  0  0
  3  5  1  0  0  0  0
  3  6  1  0  0  0  0
  7  8  1  0  0  0  0
  7 12  1  0  0  0  0
  8  9  1  0  0  0  0
  8 11  1  0  0  0  0
  8 13  1  0  0  0  0
  9 10  2  0  0  0  0
  9 17  1  0  0  0  0
 11 14  1  0  0  0  0
 11 15  1  0  0  0  0
 11 16  1  0  0  0  0
 17 18  1  0  0  0  0
 17 25  1  0  0  0  0
 18 19  1  0  0  0  0
 18 21  1  0  0  0  0
 18 26  1  0  0  0  0
 19 20  2  0  0  0  0
 19 29  1  0  0  0  0
 21 22  1  0  0  0  0
 21 27  1  0  0  0  0
 21 28  1  0  0  0  0
 22 23  1  0  0  0  0
 22 24  2  0  0  0  0
 29 30  1  0  0  0  0
 29 34  1  0  0  0  0
 30 31  1  0  0  0  0
 30 33  1  0  0  0  0
 30 35  1  0  0  0  0
 31 32  2  0  0  0  0
 31 39  1  0  0  0  0
 33 36  1  0  0  0  0
 33 37  1  0  0  0  0
 33 38  1  0  0  0  0
 39 40  1  0  0  0  0
 39 41  1  0  0  0  0
 40 42  1  0  0  0  0
 40 43  1  0  0  0  0
 40 44  1  0  0  0  0
M  CHG  1  23  -1
M  END
$$$$

  -OEChem-05262215553D

 44 43  0     1  0  0  0  0  0999 V2000
   -4.5060   -0.0754   -4.2716 C   0  0  0  0  0  0  0  0  0  0  0  0
   -4.2742   -1.1813   -4.7382 O   0  0  0  0  0  0  0  0  0  0  0  0
   -5.9091    0.4975   -4.3555 C   0  0  0  0  0  0  0  0  0  0  0  0
   -5.8974    1.4288   -4.9270 H   0  0  0  0  0  0  0  0  0  0  0  0
   -6.5783   -0.2116   -4.8502 H   0  0  0  0  0  0  0  0  0  0  0  0
   -6.2892    0.7002   -3.3510 H   0  0  0  0  0  0  0  0  0  0  0  0
   -3.5133    0.6649   -3.6681 N   0  0  0  0  0  0  0  0  0  0  0  0
   -2.2069    0.1246   -3.2670 C   0  0  2  0  0  0  0  0  0  0  0  0
   -1.9624    0.3125   -1.7531 C   0  0  0  0  0  0  0  0  0  0  0  0
   -2.7893    0.9075   -1.0698 O   0  0  0  0  0  0  0  0  0  0  0  0
   -1.1312    0.8493   -4.0804 C   0  0  0  0  0  0  0  0  0  0  0  0
   -3.8287    1.4696   -3.1282 H   0  0  0  0  0  0  0  0  0  0  0  0
   -2.1491   -0.9481   -3.4777 H   0  0  0  0  0  0  0  0  0  0  0  0
   -1.1500    1.9240   -3.8700 H   0  0  0  0  0  0  0  0  0  0  0  0
   -0.1350    0.4693   -3.8327 H   0  0  0  0  0  0  0  0  0  0  0  0
   -1.3002    0.6999   -5.1508 H   0  0  0  0  0  0  0  0  0  0  0  0
   -0.8733   -0.2902   -1.1514 N   0  0  0  0  0  0  0  0  0  0  0  0
   -0.0902    0.3355   -0.0693 C   0  0  2  0  0  0  0  0  0  0  0  0
   -0.6597   -0.0115    1.3263 C   0  0  0  0  0  0  0  0  0  0  0  0
   -1.1421    0.8269    2.0812 O   0  0  0  0  0  0  0  0  0  0  0  0
    0.1627    1.8409   -0.3323 C   0  0  0  0  0  0  0  0  0  0  0  0
    1.1142    2.0503   -1.5097 C   0  0  0  0  0  0  0  0  0  0  0  0
    1.9716    1.1610   -1.7512 O   0  5  0  0  0  0  0  0  0  0  0  0
    0.9301    3.0650   -2.2220 O   0  0  0  0  0  0  0  0  0  0  0  0
   -0.2763   -0.7393   -1.8407 H   0  0  0  0  0  0  0  0  0  0  0  0
    0.8920   -0.1473   -0.0595 H   0  0  0  0  0  0  0  0  0  0  0  0
    0.6373    2.2779    0.5497 H   0  0  0  0  0  0  0  0  0  0  0  0
   -0.7704    2.3837   -0.4981 H   0  0  0  0  0  0  0  0  0  0  0  0
   -0.4426   -1.2796    1.8378 N   0  0  0  0  0  0  0  0  0  0  0  0
   -0.8557   -1.7296    3.1719 C   0  0  2  0  0  0  0  0  0  0  0  0
   -0.0245   -2.9309    3.6675 C   0  0  0  0  0  0  0  0  0  0  0  0
    0.5862   -3.6437    2.8773 O   0  0  0  0  0  0  0  0  0  0  0  0
   -2.3419   -2.1011    3.1216 C   0  0  0  0  0  0  0  0  0  0  0  0
    0.0243   -1.9547    1.2357 H   0  0  0  0  0  0  0  0  0  0  0  0
   -0.7109   -0.9143    3.8885 H   0  0  0  0  0  0  0  0  0  0  0  0
   -2.5083   -2.9137    2.4074 H   0  0  0  0  0  0  0  0  0  0  0  0
   -2.6914   -2.4241    4.1064 H   0  0  0  0  0  0  0  0  0  0  0  0
   -2.9388   -1.2377    2.8108 H   0  0  0  0  0  0  0  0  0  0  0  0
    0.0257   -3.2233    5.0188 N   0  0  0  0  0  0  0  0  0  0  0  0
    0.8129   -4.3152    5.5758 C   0  0  0  0  0  0  0  0  0  0  0  0
   -0.4542   -2.5883    5.6497 H   0  0  0  0  0  0  0  0  0  0  0  0
    0.5145   -5.2699    5.1303 H   0  0  0  0  0  0  0  0  0  0  0  0
    1.8789   -4.1539    5.3853 H   0  0  0  0  0  0  0  0  0  0  0  0
    0.6589   -4.3766    6.6572 H   0  0  0  0  0  0  0  0  0  0  0  0
  1  2  2  0  0  0  0
  1  3  1  0  0  0  0
  1  7  1  0  0  0  0
  3  4  1  0  0  0  0
  3  5  1  0  0  0  0
  3  6  1  0  0  0  0
  7  8  1  0  0  0  0
  7 12  1  0  0  0  0
  8  9  1  0  0  0  0
  8 11  1  0  0  0  0
  8 13  1  0  0  0  0
  9 10  2  0  0  0  0
  9 17  1  0  0  0  0
 11 14  1  0  0  0  0
 11 15  1  0  0  0  0
 11 16  1  0  0  0  0
 17 18  1  0  0  0  0
 17 25  1  0  0  0  0
 18 19  1  0  0  0  0
 18 21  1  0  0  0  0
 18 26  1  0  0  0  0
 19 20  2  0  0  0  0
 19 29  1  0  0  0  0
 21 22  1  0  0  0  0
 21 27  1  0  0  0  0
 21 28  1  0  0  0  0
 22 23  1  0  0  0  0
 22 24  2  0  0  0  0
 29 30  1  0  0  0  0
 29 34  1  0  0  0  0
 30 31  1  0  0  0  0
 30 33  1  0  0  0  0
 30 35  1  0  0  0  0
 31 32  2  0  0  0  0
 31 39  1  0  0  0  0
 33 36  1  0  0  0  0
 33 37  1  0  0  0  0
 33 38  1  0  0  0  0
 39 40  1  0  0  0  0
 39 41  1  0  0  0  0
 40 42  1  0  0  0  0
 40 43  1  0  0  0  0
 40 44  1  0  0  0  0
M  CHG  1  23  -1
M  END
$$$$

  -OEChem-05262215553D

 44 43  0     1  0  0  0  0  0999 V2000
   -4.4893   -0.0837   -4.3074 C   0  0  0  0  0  0  0  0  0  0  0  0
   -4.2259   -1.1676   -4.8075 O   0  0  0  0  0  0  0  0  0  0  0  0
   -5.9027    0.4628   -4.3972 C   0  0  0  0  0  0  0  0  0  0  0  0
   -5.9002    1.4140   -4.9349 H   0  0  0  0  0  0  0  0  0  0  0  0
   -6.5489   -0.2414   -4.9288 H   0  0  0  0  0  0  0  0  0  0  0  0
   -6.3040    0.6221   -3.3931 H   0  0  0  0  0  0  0  0  0  0  0  0
   -3.5238    0.6533   -3.6575 N   0  0  0  0  0  0  0  0  0  0  0  0
   -2.2115    0.1280   -3.2570 C   0  0  2  0  0  0  0  0  0  0  0  0
   -1.9719    0.3178   -1.7430 C   0  0  0  0  0  0  0  0  0  0  0  0
   -2.7898    0.9399   -1.0739 O   0  0  0  0  0  0  0  0  0  0  0  0
   -1.1408    0.8650   -4.0656 C   0  0  0  0  0  0  0  0  0  0  0  0
   -3.8638    1.4317   -3.0938 H   0  0  0  0  0  0  0  0  0  0  0  0
   -2.1435   -0.9434   -3.4696 H   0  0  0  0  0  0  0  0  0  0  0  0
   -1.1532    1.9353   -3.8332 H   0  0  0  0  0  0  0  0  0  0  0  0
   -0.1443    0.4757   -3.8337 H   0  0  0  0  0  0  0  0  0  0  0  0
   -1.3199    0.7380   -5.1374 H   0  0  0  0  0  0  0  0  0  0  0  0
   -0.8967   -0.3047   -1.1355 N   0  0  0  0  0  0  0  0  0  0  0  0
   -0.1116    0.2932   -0.0394 C   0  0  2  0  0  0  0  0  0  0  0  0
   -0.6823   -0.0513    1.3562 C   0  0  0  0  0  0  0  0  0  0  0  0
   -1.3838    0.7207    2.0010 O   0  0  0  0  0  0  0  0  0  0  0  0
    0.1732    1.7964   -0.2755 C   0  0  0  0  0  0  0  0  0  0  0  0
    1.1403    2.0074   -1.4402 C   0  0  0  0  0  0  0  0  0  0  0  0
    1.9826    1.1055   -1.6875 O   0  5  0  0  0  0  0  0  0  0  0  0
    0.9930    3.0433   -2.1297 O   0  0  0  0  0  0  0  0  0  0  0  0
   -0.3058   -0.7705   -1.8188 H   0  0  0  0  0  0  0  0  0  0  0  0
    0.8610   -0.2071   -0.0383 H   0  0  0  0  0  0  0  0  0  0  0  0
    0.6445    2.2100    0.6194 H   0  0  0  0  0  0  0  0  0  0  0  0
   -0.7479    2.3590   -0.4432 H   0  0  0  0  0  0  0  0  0  0  0  0
   -0.2360   -1.1919    2.0026 N   0  0  0  0  0  0  0  0  0  0  0  0
   -0.5974   -1.5725    3.3731 C   0  0  2  0  0  0  0  0  0  0  0  0
    0.4507   -2.5025    4.0176 C   0  0  0  0  0  0  0  0  0  0  0  0
    1.1927   -3.1886    3.3223 O   0  0  0  0  0  0  0  0  0  0  0  0
   -1.9662   -2.2601    3.3448 C   0  0  0  0  0  0  0  0  0  0  0  0
    0.4277   -1.7849    1.5083 H   0  0  0  0  0  0  0  0  0  0  0  0
   -0.6601   -0.6719    3.9926 H   0  0  0  0  0  0  0  0  0  0  0  0
   -1.9287   -3.1612    2.7246 H   0  0  0  0  0  0  0  0  0  0  0  0
   -2.2738   -2.5434    4.3555 H   0  0  0  0  0  0  0  0  0  0  0  0
   -2.7224   -1.5850    2.9316 H   0  0  0  0  0  0  0  0  0  0  0  0
    0.5531   -2.5798    5.3953 N   0  0  0  0  0  0  0  0  0  0  0  0
    1.5519   -3.3903    6.0794 C   0  0  0  0  0  0  0  0  0  0  0  0
   -0.0353   -1.9569    5.9410 H   0  0  0  0  0  0  0  0  0  0  0  0
    1.4644   -4.4400    5.7794 H   0  0  0  0  0  0  0  0  0  0  0  0
    2.5605   -3.0369    5.8401 H   0  0  0  0  0  0  0  0  0  0  0  0
    1.4102   -3.3287    7.1626 H   0  0  0  0  0  0  0  0  0  0  0  0
  1  2  2  0  0  0  0
  1  3  1  0  0  0  0
  1  7  1  0  0  0  0
  3  4  1  0  0  0  0
  3  5  1  0  0  0  0
  3  6  1  0  0  0  0
  7  8  1  0  0  0  0
  7 12  1  0  0  0  0
  8  9  1  0  0  0  0
  8 11  1  0  0  0  0
  8 13  1  0  0  0  0
  9 10  2  0  0  0  0
  9 17  1  0  0  0  0
 11 14  1  0  0  0  0
 11 15  1  0  0  0  0
 11 16  1  0  0  0  0
 17 18  1  0  0  0  0
 17 25  1  0  0  0  0
 18 19  1  0  0  0  0
 18 21  1  0  0  0  0
 18 26  1  0  0  0  0
 19 20  2  0  0  0  0
 19 29  1  0  0  0  0
 21 22  1  0  0  0  0
 21 27  1  0  0  0  0
 21 28  1  0  0  0  0
 22 23  1  0  0  0  0
 22 24  2  0  0  0  0
 29 30  1  0  0  0  0
 29 34  1  0  0  0  0
 30 31  1  0  0  0  0
 30 33  1  0  0  0  0
 30 35  1  0  0  0  0
 31 32  2  0  0  0  0
 31 39  1  0  0  0  0
 33 36  1  0  0  0  0
 33 37  1  0  0  0  0
 33 38  1  0  0  0  0
 39 40  1  0  0  0  0
 39 41  1  0  0  0  0
 40 42  1  0  0  0  0
 40 43  1  0  0  0  0
 40 44  1  0  0  0  0
M  CHG  1  23  -1
M  END
$$$$

  -OEChem-05262215553D

 44 43  0     1  0  0  0  0  0999 V2000
   -4.4893   -0.0832   -4.3127 C   0  0  0  0  0  0  0  0  0  0  0  0
   -4.2292   -1.1676   -4.8137 O   0  0  0  0  0  0  0  0  0  0  0  0
   -5.8998    0.4700   -4.4033 C   0  0  0  0  0  0  0  0  0  0  0  0
   -5.8918    1.4218   -4.9399 H   0  0  0  0  0  0  0  0  0  0  0  0
   -6.5489   -0.2312   -4.9350 H   0  0  0  0  0  0  0  0  0  0  0  0
   -6.3008    0.6311   -3.3994 H   0  0  0  0  0  0  0  0  0  0  0  0
   -3.5228    0.6484   -3.6583 N   0  0  0  0  0  0  0  0  0  0  0  0
   -2.2199    0.1130   -3.2419 C   0  0  2  0  0  0  0  0  0  0  0  0
   -1.9902    0.3142   -1.7281 C   0  0  0  0  0  0  0  0  0  0  0  0
   -2.7944    0.9770   -1.0824 O   0  0  0  0  0  0  0  0  0  0  0  0
   -1.1346    0.8356   -4.0448 C   0  0  0  0  0  0  0  0  0  0  0  0
   -3.8617    1.4298   -3.0978 H   0  0  0  0  0  0  0  0  0  0  0  0
   -2.1614   -0.9609   -3.4449 H   0  0  0  0  0  0  0  0  0  0  0  0
   -1.1504    1.9097   -3.8306 H   0  0  0  0  0  0  0  0  0  0  0  0
   -0.1421    0.4510   -3.7894 H   0  0  0  0  0  0  0  0  0  0  0  0
   -1.2956    0.6900   -5.1170 H   0  0  0  0  0  0  0  0  0  0  0  0
   -0.9177   -0.3110   -1.1168 N   0  0  0  0  0  0  0  0  0  0  0  0
   -0.1312    0.2692   -0.0118 C   0  0  2  0  0  0  0  0  0  0  0  0
   -0.6828   -0.0736    1.3926 C   0  0  0  0  0  0  0  0  0  0  0  0
   -1.6118    0.5309    1.9154 O   0  0  0  0  0  0  0  0  0  0  0  0
    0.1646    1.7719   -0.2285 C   0  0  0  0  0  0  0  0  0  0  0  0
    1.1364    1.9917   -1.3877 C   0  0  0  0  0  0  0  0  0  0  0  0
    1.9735    1.0872   -1.6435 O   0  5  0  0  0  0  0  0  0  0  0  0
    1.0065    3.0428   -2.0572 O   0  0  0  0  0  0  0  0  0  0  0  0
   -0.3336   -0.7926   -1.7946 H   0  0  0  0  0  0  0  0  0  0  0  0
    0.8361   -0.2407   -0.0268 H   0  0  0  0  0  0  0  0  0  0  0  0
    0.6355    2.1714    0.6728 H   0  0  0  0  0  0  0  0  0  0  0  0
   -0.7529    2.3414   -0.3931 H   0  0  0  0  0  0  0  0  0  0  0  0
   -0.0265   -1.0176    2.1654 N   0  0  0  0  0  0  0  0  0  0  0  0
   -0.3693   -1.3437    3.5550 C   0  0  2  0  0  0  0  0  0  0  0  0
    0.8368   -1.8976    4.3405 C   0  0  0  0  0  0  0  0  0  0  0  0
    1.7835   -2.4131    3.7552 O   0  0  0  0  0  0  0  0  0  0  0  0
   -1.5097   -2.3664    3.5481 C   0  0  0  0  0  0  0  0  0  0  0  0
    0.8221   -1.4315    1.7828 H   0  0  0  0  0  0  0  0  0  0  0  0
   -0.7023   -0.4354    4.0682 H   0  0  0  0  0  0  0  0  0  0  0  0
   -1.1999   -3.2799    3.0310 H   0  0  0  0  0  0  0  0  0  0  0  0
   -1.8007   -2.6240    4.5705 H   0  0  0  0  0  0  0  0  0  0  0  0
   -2.3844   -1.9551    3.0345 H   0  0  0  0  0  0  0  0  0  0  0  0
    0.8535   -1.8262    5.7220 N   0  0  0  0  0  0  0  0  0  0  0  0
    1.9810   -2.2655    6.5330 C   0  0  0  0  0  0  0  0  0  0  0  0
    0.0817   -1.3427    6.1716 H   0  0  0  0  0  0  0  0  0  0  0  0
    2.2068   -3.3192    6.3386 H   0  0  0  0  0  0  0  0  0  0  0  0
    2.8695   -1.6664    6.3080 H   0  0  0  0  0  0  0  0  0  0  0  0
    1.7470   -2.1541    7.5960 H   0  0  0  0  0  0  0  0  0  0  0  0
  1  2  2  0  0  0  0
  1  3  1  0  0  0  0
  1  7  1  0  0  0  0
  3  4  1  0  0  0  0
  3  5  1  0  0  0  0
  3  6  1  0  0  0  0
  7  8  1  0  0  0  0
  7 12  1  0  0  0  0
  8  9  1  0  0  0  0
  8 11  1  0  0  0  0
  8 13  1  0  0  0  0
  9 10  2  0  0  0  0
  9 17  1  0  0  0  0
 11 14  1  0  0  0  0
 11 15  1  0  0  0  0
 11 16  1  0  0  0  0
 17 18  1  0  0  0  0
 17 25  1  0  0  0  0
 18 19  1  0  0  0  0
 18 21  1  0  0  0  0
 18 26  1  0  0  0  0
 19 20  2  0  0  0  0
 19 29  1  0  0  0  0
 21 22  1  0  0  0  0
 21 27  1  0  0  0  0
 21 28  1  0  0  0  0
 22 23  1  0  0  0  0
 22 24  2  0  0  0  0
 29 30  1  0  0  0  0
 29 34  1  0  0  0  0
 30 31  1  0  0  0  0
 30 33  1  0  0  0  0
 30 35  1  0  0  0  0
 31 32  2  0  0  0  0
 31 39  1  0  0  0  0
 33 36  1  0  0  0  0
 33 37  1  0  0  0  0
 33 38  1  0  0  0  0
 39 40  1  0  0  0  0
 39 41  1  0  0  0  0
 40 42  1  0  0  0  0
 40 43  1  0  0  0  0
 40 44  1  0  0  0  0
M  CHG  1  23  -1
M  END
$$$$

  -OEChem-05262215553D

 44 43  0     1  0  0  0  0  0999 V2000
   -4.5079   -0.0617   -4.3090 C   0  0  0  0  0  0  0  0  0  0  0  0
   -4.2387   -1.1248   -4.8489 O   0  0  0  0  0  0  0  0  0  0  0  0
   -5.9158    0.4968   -4.4029 C   0  0  0  0  0  0  0  0  0  0  0  0
   -5.8980    1.4663   -4.9069 H   0  0  0  0  0  0  0  0  0  0  0  0
   -6.5574   -0.1847   -4.9679 H   0  0  0  0  0  0  0  0  0  0  0  0
   -6.3332    0.6234   -3.4007 H   0  0  0  0  0  0  0  0  0  0  0  0
   -3.5528    0.6375   -3.6052 N   0  0  0  0  0  0  0  0  0  0  0  0
   -2.2534    0.0875   -3.1981 C   0  0  2  0  0  0  0  0  0  0  0  0
   -1.9899    0.3378   -1.6971 C   0  0  0  0  0  0  0  0  0  0  0  0
   -2.7577    1.0613   -1.0719 O   0  0  0  0  0  0  0  0  0  0  0  0
   -1.1668    0.7544   -4.0473 C   0  0  0  0  0  0  0  0  0  0  0  0
   -3.8931    1.4036   -3.0240 H   0  0  0  0  0  0  0  0  0  0  0  0
   -2.2264   -0.9945   -3.3613 H   0  0  0  0  0  0  0  0  0  0  0  0
   -1.1564    1.8361   -3.8752 H   0  0  0  0  0  0  0  0  0  0  0  0
   -0.1785    0.3592   -3.7925 H   0  0  0  0  0  0  0  0  0  0  0  0
   -1.3486    0.5705   -5.1105 H   0  0  0  0  0  0  0  0  0  0  0  0
   -0.9153   -0.2894   -1.0900 N   0  0  0  0  0  0  0  0  0  0  0  0
   -0.1233    0.2756    0.0187 C   0  0  2  0  0  0  0  0  0  0  0  0
   -0.6518   -0.0697    1.4329 C   0  0  0  0  0  0  0  0  0  0  0  0
   -1.7756    0.2223    1.8237 O   0  0  0  0  0  0  0  0  0  0  0  0
    0.1907    1.7772   -0.1794 C   0  0  0  0  0  0  0  0  0  0  0  0
    1.1665    2.0028   -1.3346 C   0  0  0  0  0  0  0  0  0  0  0  0
    1.9942    1.0931   -1.6021 O   0  5  0  0  0  0  0  0  0  0  0  0
    1.0611    3.0733   -1.9772 O   0  0  0  0  0  0  0  0  0  0  0  0
   -0.3453   -0.7949   -1.7615 H   0  0  0  0  0  0  0  0  0  0  0  0
    0.8363   -0.2481   -0.0138 H   0  0  0  0  0  0  0  0  0  0  0  0
    0.6659    2.1605    0.7265 H   0  0  0  0  0  0  0  0  0  0  0  0
   -0.7192    2.3596   -0.3384 H   0  0  0  0  0  0  0  0  0  0  0  0
    0.1636   -0.7634    2.3125 N   0  0  0  0  0  0  0  0  0  0  0  0
   -0.1929   -1.0825    3.7013 C   0  0  2  0  0  0  0  0  0  0  0  0
    1.0452   -1.1817    4.6158 C   0  0  0  0  0  0  0  0  0  0  0  0
    2.1517   -1.4293    4.1487 O   0  0  0  0  0  0  0  0  0  0  0  0
   -0.9673   -2.4041    3.7159 C   0  0  0  0  0  0  0  0  0  0  0  0
    1.1323   -0.9123    2.0327 H   0  0  0  0  0  0  0  0  0  0  0  0
   -0.8299   -0.2879    4.1039 H   0  0  0  0  0  0  0  0  0  0  0  0
   -0.3481   -3.2135    3.3162 H   0  0  0  0  0  0  0  0  0  0  0  0
   -1.2655   -2.6625    4.7364 H   0  0  0  0  0  0  0  0  0  0  0  0
   -1.8708   -2.3207    3.1033 H   0  0  0  0  0  0  0  0  0  0  0  0
    0.9127   -0.9993    5.9810 N   0  0  0  0  0  0  0  0  0  0  0  0
    2.0429   -0.9957    6.9003 C   0  0  0  0  0  0  0  0  0  0  0  0
   -0.0052   -0.7360    6.3273 H   0  0  0  0  0  0  0  0  0  0  0  0
    2.5860   -1.9449    6.8450 H   0  0  0  0  0  0  0  0  0  0  0  0
    2.7308   -0.1795    6.6562 H   0  0  0  0  0  0  0  0  0  0  0  0
    1.6926   -0.8587    7.9276 H   0  0  0  0  0  0  0  0  0  0  0  0
  1  2  2  0  0  0  0
  1  3  1  0  0  0  0
  1  7  1  0  0  0  0
  3  4  1  0  0  0  0
  3  5  1  0  0  0  0
  3  6  1  0  0  0  0
  7  8  1  0  0  0  0
  7 12  1  0  0  0  0
  8  9  1  0  0  0  0
  8 11  1  0  0  0  0
  8 13  1  0  0  0  0
  9 10  2  0  0  0  0
  9 17  1  0  0  0  0
 11 14  1  0  0  0  0
 11 15  1  0  0  0  0
 11 16  1  0  0  0  0
 17 18  1  0  0  0  0
 17 25  1  0  0  0  0
 18 19  1  0  0  0  0
 18 21  1  0  0  0  0
 18 26  1  0  0  0  0
 19 20  2  0  0  0  0
 19 29  1  0  0  0  0
 21 22  1  0  0  0  0
 21 27  1  0  0  0  0
 21 28  1  0  0  0  0
 22 23  1  0  0  0  0
 22 24  2  0  0  0  0
 29 30  1  0  0  0  0
 29 34  1  0  0  0  0
 30 31  1  0  0  0  0
 30 33  1  0  0  0  0
 30 35  1  0  0  0  0
 31 32  2  0  0  0  0
 31 39  1  0  0  0  0
 33 36  1  0  0  0  0
 33 37  1  0  0  0  0
 33 38  1  0  0  0  0
 39 40  1  0  0  0  0
 39 41  1  0  0  0  0
 40 42  1  0  0  0  0
 40 43  1  0  0  0  0
 40 44  1  0  0  0  0
M  CHG  1  23  -1
M  END
$$$$

  -OEChem-05262215553D

 44 43  0     1  0  0  0  0  0999 V2000
   -4.5601   -0.0561   -4.2456 C   0  0  0  0  0  0  0  0  0  0  0  0
   -4.3336   -1.1422   -4.7590 O   0  0  0  0  0  0  0  0  0  0  0  0
   -5.9448    0.5557   -4.3561 C   0  0  0  0  0  0  0  0  0  0  0  0
   -5.8907    1.5007   -4.9022 H   0  0  0  0  0  0  0  0  0  0  0  0
   -6.6171   -0.1229   -4.8881 H   0  0  0  0  0  0  0  0  0  0  0  0
   -6.3498    0.7426   -3.3582 H   0  0  0  0  0  0  0  0  0  0  0  0
   -3.5760    0.6224   -3.5616 N   0  0  0  0  0  0  0  0  0  0  0  0
   -2.2971    0.0323   -3.1458 C   0  0  2  0  0  0  0  0  0  0  0  0
   -1.9820    0.3687   -1.6718 C   0  0  0  0  0  0  0  0  0  0  0  0
   -2.7030    1.1631   -1.0757 O   0  0  0  0  0  0  0  0  0  0  0  0
   -1.1980    0.5766   -4.0641 C   0  0  0  0  0  0  0  0  0  0  0  0
   -3.8799    1.4222   -3.0061 H   0  0  0  0  0  0  0  0  0  0  0  0
   -2.3342   -1.0584   -3.2328 H   0  0  0  0  0  0  0  0  0  0  0  0
   -1.1193    1.6644   -3.9646 H   0  0  0  0  0  0  0  0  0  0  0  0
   -0.2275    0.1392   -3.8092 H   0  0  0  0  0  0  0  0  0  0  0  0
   -1.4222    0.3357   -5.1077 H   0  0  0  0  0  0  0  0  0  0  0  0
   -0.9050   -0.2501   -1.0603 N   0  0  0  0  0  0  0  0  0  0  0  0
   -0.1048    0.3315    0.0335 C   0  0  2  0  0  0  0  0  0  0  0  0
   -0.6162    0.0172    1.4603 C   0  0  0  0  0  0  0  0  0  0  0  0
   -1.8052   -0.0872    1.7404 O   0  0  0  0  0  0  0  0  0  0  0  0
    0.2337    1.8246   -0.1857 C   0  0  0  0  0  0  0  0  0  0  0  0
    1.2140    2.0180   -1.3426 C   0  0  0  0  0  0  0  0  0  0  0  0
    2.0277    1.0921   -1.5969 O   0  5  0  0  0  0  0  0  0  0  0  0
    1.1334    3.0868   -1.9913 O   0  0  0  0  0  0  0  0  0  0  0  0
   -0.3571   -0.8057   -1.7096 H   0  0  0  0  0  0  0  0  0  0  0  0
    0.8449   -0.2103    0.0040 H   0  0  0  0  0  0  0  0  0  0  0  0
    0.7163    2.2124    0.7145 H   0  0  0  0  0  0  0  0  0  0  0  0
   -0.6655    2.4211   -0.3523 H   0  0  0  0  0  0  0  0  0  0  0  0
    0.2953   -0.3661    2.4305 N   0  0  0  0  0  0  0  0  0  0  0  0
   -0.0613   -0.7241    3.8095 C   0  0  2  0  0  0  0  0  0  0  0  0
    1.0372   -0.3457    4.8248 C   0  0  0  0  0  0  0  0  0  0  0  0
    2.1969   -0.1795    4.4634 O   0  0  0  0  0  0  0  0  0  0  0  0
   -0.3297   -2.2312    3.8584 C   0  0  0  0  0  0  0  0  0  0  0  0
    1.2823   -0.2107    2.2272 H   0  0  0  0  0  0  0  0  0  0  0  0
   -0.9691   -0.1859    4.1024 H   0  0  0  0  0  0  0  0  0  0  0  0
    0.5690   -2.7874    3.5734 H   0  0  0  0  0  0  0  0  0  0  0  0
   -0.6257   -2.5360    4.8664 H   0  0  0  0  0  0  0  0  0  0  0  0
   -1.1366   -2.4952    3.1673 H   0  0  0  0  0  0  0  0  0  0  0  0
    0.7218   -0.2119    6.1656 N   0  0  0  0  0  0  0  0  0  0  0  0
    1.6884    0.1776    7.1836 C   0  0  0  0  0  0  0  0  0  0  0  0
   -0.2549   -0.3108    6.4256 H   0  0  0  0  0  0  0  0  0  0  0  0
    2.5240   -0.5296    7.2096 H   0  0  0  0  0  0  0  0  0  0  0  0
    2.0790    1.1796    6.9778 H   0  0  0  0  0  0  0  0  0  0  0  0
    1.2133    0.1869    8.1691 H   0  0  0  0  0  0  0  0  0  0  0  0
  1  2  2  0  0  0  0
  1  3  1  0  0  0  0
  1  7  1  0  0  0  0
  3  4  1  0  0  0  0
  3  5  1  0  0  0  0
  3  6  1  0  0  0  0
  7  8  1  0  0  0  0
  7 12  1  0  0  0  0
  8  9  1  0  0  0  0
  8 11  1  0  0  0  0
  8 13  1  0  0  0  0
  9 10  2  0  0  0  0
  9 17  1  0  0  0  0
 11 14  1  0  0  0  0
 11 15  1  0  0  0  0
 11 16  1  0  0  0  0
 17 18  1  0  0  0  0
 17 25  1  0  0  0  0
 18 19  1  0  0  0  0
 18 21  1  0  0  0  0
 18 26  1  0  0  0  0
 19 20  2  0  0  0  0
 19 29  1  0  0  0  0
 21 22  1  0  0  0  0
 21 27  1  0  0  0  0
 21 28  1  0  0  0  0
 22 23  1  0  0  0  0
 22 24  2  0  0  0  0
 29 30  1  0  0  0  0
 29 34  1  0  0  0  0
 30 31  1  0  0  0  0
 30 33  1  0  0  0  0
 30 35  1  0  0  0  0
 31 32  2  0  0  0  0
 31 39  1  0  0  0  0
 33 36  1  0  0  0  0
 33 37  1  0  0  0  0
 33 38  1  0  0  0  0
 39 40  1  0  0  0  0
 39 41  1  0  0  0  0
 40 42  1  0  0  0  0
 40 43  1  0  0  0  0
 40 44  1  0  0  0  0
M  CHG  1  23  -1
M  END
$$$$

  -OEChem-05262215553D

 44 43  0     1  0  0  0  0  0999 V2000
   -4.5601   -0.0543   -4.2313 C   0  0  0  0  0  0  0  0  0  0  0  0
   -4.3342   -1.1345   -4.7571 O   0  0  0  0  0  0  0  0  0  0  0  0
   -5.9364    0.5734   -4.3541 C   0  0  0  0  0  0  0  0  0  0  0  0
   -5.8643    1.5244   -4.8876 H   0  0  0  0  0  0  0  0  0  0  0  0
   -6.6086   -0.0913   -4.9035 H   0  0  0  0  0  0  0  0  0  0  0  0
   -6.3527    0.7531   -3.3597 H   0  0  0  0  0  0  0  0  0  0  0  0
   -3.5828    0.6063   -3.5215 N   0  0  0  0  0  0  0  0  0  0  0  0
   -2.3039    0.0127   -3.1136 C   0  0  2  0  0  0  0  0  0  0  0  0
   -1.9789    0.3532   -1.6432 C   0  0  0  0  0  0  0  0  0  0  0  0
   -2.6957    1.1480   -1.0409 O   0  0  0  0  0  0  0  0  0  0  0  0
   -1.2106    0.5527   -4.0416 C   0  0  0  0  0  0  0  0  0  0  0  0
   -3.8872    1.4008   -2.9588 H   0  0  0  0  0  0  0  0  0  0  0  0
   -2.3456   -1.0781   -3.1966 H   0  0  0  0  0  0  0  0  0  0  0  0
   -1.1364    1.6422   -3.9542 H   0  0  0  0  0  0  0  0  0  0  0  0
   -0.2371    0.1226   -3.7860 H   0  0  0  0  0  0  0  0  0  0  0  0
   -1.4379    0.2997   -5.0817 H   0  0  0  0  0  0  0  0  0  0  0  0
   -0.9005   -0.2631   -1.0335 N   0  0  0  0  0  0  0  0  0  0  0  0
   -0.0998    0.3317    0.0518 C   0  0  2  0  0  0  0  0  0  0  0  0
   -0.6099    0.0298    1.4810 C   0  0  0  0  0  0  0  0  0  0  0  0
   -1.7419   -0.3838    1.7122 O   0  0  0  0  0  0  0  0  0  0  0  0
    0.2379    1.8233   -0.1859 C   0  0  0  0  0  0  0  0  0  0  0  0
    1.2169    2.0043   -1.3458 C   0  0  0  0  0  0  0  0  0  0  0  0
    2.0314    1.0770   -1.5906 O   0  5  0  0  0  0  0  0  0  0  0  0
    1.1354    3.0669   -2.0044 O   0  0  0  0  0  0  0  0  0  0  0  0
   -0.3570   -0.8291   -1.6771 H   0  0  0  0  0  0  0  0  0  0  0  0
    0.8502   -0.2107    0.0324 H   0  0  0  0  0  0  0  0  0  0  0  0
    0.7205    2.2253    0.7081 H   0  0  0  0  0  0  0  0  0  0  0  0
   -0.6606    2.4182   -0.3603 H   0  0  0  0  0  0  0  0  0  0  0  0
    0.3069   -0.0316    2.5171 N   0  0  0  0  0  0  0  0  0  0  0  0
   -0.0335   -0.3572    3.9083 C   0  0  2  0  0  0  0  0  0  0  0  0
    0.8440    0.3987    4.9273 C   0  0  0  0  0  0  0  0  0  0  0  0
    1.9475    0.8276    4.6095 O   0  0  0  0  0  0  0  0  0  0  0  0
    0.1166   -1.8694    4.0973 C   0  0  0  0  0  0  0  0  0  0  0  0
    1.2303    0.3637    2.3396 H   0  0  0  0  0  0  0  0  0  0  0  0
   -1.0722   -0.0721    4.1054 H   0  0  0  0  0  0  0  0  0  0  0  0
    1.1504   -2.1762    3.9090 H   0  0  0  0  0  0  0  0  0  0  0  0
   -0.1540   -2.1573    5.1174 H   0  0  0  0  0  0  0  0  0  0  0  0
   -0.5385   -2.4044    3.4023 H   0  0  0  0  0  0  0  0  0  0  0  0
    0.3962    0.5822    6.2239 N   0  0  0  0  0  0  0  0  0  0  0  0
    1.1467    1.3155    7.2347 C   0  0  0  0  0  0  0  0  0  0  0  0
   -0.5415    0.2595    6.4428 H   0  0  0  0  0  0  0  0  0  0  0  0
    2.1265    0.8529    7.3936 H   0  0  0  0  0  0  0  0  0  0  0  0
    1.2924    2.3557    6.9246 H   0  0  0  0  0  0  0  0  0  0  0  0
    0.6042    1.3102    8.1850 H   0  0  0  0  0  0  0  0  0  0  0  0
  1  2  2  0  0  0  0
  1  3  1  0  0  0  0
  1  7  1  0  0  0  0
  3  4  1  0  0  0  0
  3  5  1  0  0  0  0
  3  6  1  0  0  0  0
  7  8  1  0  0  0  0
  7 12  1  0  0  0  0
  8  9  1  0  0  0  0
  8 11  1  0  0  0  0
  8 13  1  0  0  0  0
  9 10  2  0  0  0  0
  9 17  1  0  0  0  0
 11 14  1  0  0  0  0
 11 15  1  0  0  0  0
 11 16  1  0  0  0  0
 17 18  1  0  0  0  0
 17 25  1  0  0  0  0
 18 19  1  0  0  0  0
 18 21  1  0  0  0  0
 18 26  1  0  0  0  0
 19 20  2  0  0  0  0
 19 29  1  0  0  0  0
 21 22  1  0  0  0  0
 21 27  1  0  0  0  0
 21 28  1  0  0  0  0
 22 23  1  0  0  0  0
 22 24  2  0  0  0  0
 29 30  1  0  0  0  0
 29 34  1  0  0  0  0
 30 31  1  0  0  0  0
 30 33  1  0  0  0  0
 30 35  1  0  0  0  0
 31 32  2  0  0  0  0
 31 39  1  0  0  0  0
 33 36  1  0  0  0  0
 33 37  1  0  0  0  0
 33 38  1  0  0  0  0
 39 40  1  0  0  0  0
 39 41  1  0  0  0  0
 40 42  1  0  0  0  0
 40 43  1  0  0  0  0
 40 44  1  0  0  0  0
M  CHG  1  23  -1
M  END
$$$$

  -OEChem-05262215553D

 44 43  0     1  0  0  0  0  0999 V2000
   -4.5639   -0.0617   -4.1952 C   0  0  0  0  0  0  0  0  0  0  0  0
   -4.3535   -1.1508   -4.7087 O   0  0  0  0  0  0  0  0  0  0  0  0
   -5.9321    0.5830   -4.3259 C   0  0  0  0  0  0  0  0  0  0  0  0
   -5.8509    1.5124   -4.8947 H   0  0  0  0  0  0  0  0  0  0  0  0
   -6.6205   -0.0898   -4.8447 H   0  0  0  0  0  0  0  0  0  0  0  0
   -6.3358    0.8053   -3.3348 H   0  0  0  0  0  0  0  0  0  0  0  0
   -3.5740    0.5944   -3.4979 N   0  0  0  0  0  0  0  0  0  0  0  0
   -2.3010   -0.0123   -3.0880 C   0  0  2  0  0  0  0  0  0  0  0  0
   -1.9683    0.3336   -1.6203 C   0  0  0  0  0  0  0  0  0  0  0  0
   -2.6909    1.1161   -1.0077 O   0  0  0  0  0  0  0  0  0  0  0  0
   -1.2012    0.5060   -4.0210 C   0  0  0  0  0  0  0  0  0  0  0  0
   -3.8654    1.3997   -2.9441 H   0  0  0  0  0  0  0  0  0  0  0  0
   -2.3564   -1.1033   -3.1630 H   0  0  0  0  0  0  0  0  0  0  0  0
   -1.1013    1.5931   -3.9300 H   0  0  0  0  0  0  0  0  0  0  0  0
   -0.2366    0.0524   -3.7725 H   0  0  0  0  0  0  0  0  0  0  0  0
   -1.4395    0.2623   -5.0608 H   0  0  0  0  0  0  0  0  0  0  0  0
   -0.8836   -0.2699   -1.0102 N   0  0  0  0  0  0  0  0  0  0  0  0
   -0.0771    0.3540    0.0546 C   0  0  2  0  0  0  0  0  0  0  0  0
   -0.5883    0.0745    1.4885 C   0  0  0  0  0  0  0  0  0  0  0  0
   -1.5981   -0.5879    1.7108 O   0  0  0  0  0  0  0  0  0  0  0  0
    0.2443    1.8438   -0.2255 C   0  0  0  0  0  0  0  0  0  0  0  0
    1.2092    2.0028   -1.4005 C   0  0  0  0  0  0  0  0  0  0  0  0
    2.0296    1.0771   -1.6300 O   0  5  0  0  0  0  0  0  0  0  0  0
    1.1043    3.0431   -2.0907 O   0  0  0  0  0  0  0  0  0  0  0  0
   -0.3416   -0.8448   -1.6472 H   0  0  0  0  0  0  0  0  0  0  0  0
    0.8786   -0.1791    0.0489 H   0  0  0  0  0  0  0  0  0  0  0  0
    0.7342    2.2765    0.6495 H   0  0  0  0  0  0  0  0  0  0  0  0
   -0.6612    2.4260   -0.4055 H   0  0  0  0  0  0  0  0  0  0  0  0
    0.2419    0.3369    2.5654 N   0  0  0  0  0  0  0  0  0  0  0  0
   -0.0966    0.0472    3.9650 C   0  0  2  0  0  0  0  0  0  0  0  0
    0.4838    1.0849    4.9477 C   0  0  0  0  0  0  0  0  0  0  0  0
    1.4860    1.7306    4.6623 O   0  0  0  0  0  0  0  0  0  0  0  0
    0.4260   -1.3525    4.3010 C   0  0  0  0  0  0  0  0  0  0  0  0
    1.0578    0.9220    2.3876 H   0  0  0  0  0  0  0  0  0  0  0  0
   -1.1847    0.0633    4.0870 H   0  0  0  0  0  0  0  0  0  0  0  0
    1.5146   -1.3896    4.1913 H   0  0  0  0  0  0  0  0  0  0  0  0
    0.1683   -1.6224    5.3294 H   0  0  0  0  0  0  0  0  0  0  0  0
   -0.0179   -2.0930    3.6279 H   0  0  0  0  0  0  0  0  0  0  0  0
   -0.1116    1.2720    6.1828 N   0  0  0  0  0  0  0  0  0  0  0  0
    0.3602    2.2410    7.1631 C   0  0  0  0  0  0  0  0  0  0  0  0
   -0.9684    0.7593    6.3685 H   0  0  0  0  0  0  0  0  0  0  0  0
    1.3860    2.0087    7.4677 H   0  0  0  0  0  0  0  0  0  0  0  0
    0.3361    3.2530    6.7454 H   0  0  0  0  0  0  0  0  0  0  0  0
   -0.2775    2.2188    8.0519 H   0  0  0  0  0  0  0  0  0  0  0  0
  1  2  2  0  0  0  0
  1  3  1  0  0  0  0
  1  7  1  0  0  0  0
  3  4  1  0  0  0  0
  3  5  1  0  0  0  0
  3  6  1  0  0  0  0
  7  8  1  0  0  0  0
  7 12  1  0  0  0  0
  8  9  1  0  0  0  0
  8 11  1  0  0  0  0
  8 13  1  0  0  0  0
  9 10  2  0  0  0  0
  9 17  1  0  0  0  0
 11 14  1  0  0  0  0
 11 15  1  0  0  0  0
 11 16  1  0  0  0  0
 17 18  1  0  0  0  0
 17 25  1  0  0  0  0
 18 19  1  0  0  0  0
 18 21  1  0  0  0  0
 18 26  1  0  0  0  0
 19 20  2  0  0  0  0
 19 29  1  0  0  0  0
 21 22  1  0  0  0  0
 21 27  1  0  0  0  0
 21 28  1  0  0  0  0
 22 23  1  0  0  0  0
 22 24  2  0  0  0  0
 29 30  1  0  0  0  0
 29 34  1  0  0  0  0
 30 31  1  0  0  0  0
 30 33  1  0  0  0  0
 30 35  1  0  0  0  0
 31 32  2  0  0  0  0
 31 39  1  0  0  0  0
 33 36  1  0  0  0  0
 33 37  1  0  0  0  0
 33 38  1  0  0  0  0
 39 40  1  0  0  0  0
 39 41  1  0  0  0  0
 40 42  1  0  0  0  0
 40 43  1  0  0  0  0
 40 44  1  0  0  0  0
M  CHG  1  23  -1
M  END
$$$$

  -OEChem-05262215553D

 44 43  0     1  0  0  0  0  0999 V2000
   -4.5631   -0.0377   -4.2078 C   0  0  0  0  0  0  0  0  0  0  0  0
   -4.3125   -1.0872   -4.7823 O   0  0  0  0  0  0  0  0  0  0  0  0
   -5.9449    0.5785   -4.3309 C   0  0  0  0  0  0  0  0  0  0  0  0
   -5.8759    1.5502   -4.8263 H   0  0  0  0  0  0  0  0  0  0  0  0
   -6.5992   -0.0727   -4.9168 H   0  0  0  0  0  0  0  0  0  0  0  0
   -6.3815    0.7147   -3.3385 H   0  0  0  0  0  0  0  0  0  0  0  0
   -3.6094    0.5960   -3.4427 N   0  0  0  0  0  0  0  0  0  0  0  0
   -2.3239    0.0051   -3.0499 C   0  0  2  0  0  0  0  0  0  0  0  0
   -2.0233    0.2602   -1.5563 C   0  0  0  0  0  0  0  0  0  0  0  0
   -2.8105    0.9217   -0.8843 O   0  0  0  0  0  0  0  0  0  0  0  0
   -1.2318    0.6229   -3.9286 C   0  0  0  0  0  0  0  0  0  0  0  0
   -3.9316    1.3639   -2.8544 H   0  0  0  0  0  0  0  0  0  0  0  0
   -2.3409   -1.0791   -3.2005 H   0  0  0  0  0  0  0  0  0  0  0  0
   -1.1822    1.7060   -3.7732 H   0  0  0  0  0  0  0  0  0  0  0  0
   -0.2524    0.1982   -3.6875 H   0  0  0  0  0  0  0  0  0  0  0  0
   -1.4410    0.4310   -4.9851 H   0  0  0  0  0  0  0  0  0  0  0  0
   -0.9238   -0.3356   -0.9663 N   0  0  0  0  0  0  0  0  0  0  0  0
   -0.0688    0.3011    0.0572 C   0  0  2  0  0  0  0  0  0  0  0  0
   -0.3214   -0.2424    1.4845 C   0  0  0  0  0  0  0  0  0  0  0  0
   -1.0035   -1.2442    1.6846 O   0  0  0  0  0  0  0  0  0  0  0  0
    0.0053    1.8493   -0.0443 C   0  0  0  0  0  0  0  0  0  0  0  0
    0.7603    2.2997   -1.2955 C   0  0  0  0  0  0  0  0  0  0  0  0
    1.6565    1.5468   -1.7569 O   0  5  0  0  0  0  0  0  0  0  0  0
    0.4270    3.3959   -1.8022 O   0  0  0  0  0  0  0  0  0  0  0  0
   -0.4007   -0.9094   -1.6184 H   0  0  0  0  0  0  0  0  0  0  0  0
    0.9443   -0.0619   -0.1400 H   0  0  0  0  0  0  0  0  0  0  0  0
    0.5617    2.2426    0.8089 H   0  0  0  0  0  0  0  0  0  0  0  0
   -0.9841    2.3081   -0.0129 H   0  0  0  0  0  0  0  0  0  0  0  0
    0.4011    0.2559    2.5549 N   0  0  0  0  0  0  0  0  0  0  0  0
    0.2417   -0.1897    3.9447 C   0  0  2  0  0  0  0  0  0  0  0  0
    0.3839    0.9677    4.9537 C   0  0  0  0  0  0  0  0  0  0  0  0
    1.0589    1.9550    4.6853 O   0  0  0  0  0  0  0  0  0  0  0  0
    1.2900   -1.2693    4.2260 C   0  0  0  0  0  0  0  0  0  0  0  0
    0.9130    1.1235    2.3965 H   0  0  0  0  0  0  0  0  0  0  0  0
   -0.7575   -0.6155    4.0824 H   0  0  0  0  0  0  0  0  0  0  0  0
    2.2990   -0.8646    4.0979 H   0  0  0  0  0  0  0  0  0  0  0  0
    1.1907   -1.6429    5.2494 H   0  0  0  0  0  0  0  0  0  0  0  0
    1.1614   -2.1098    3.5369 H   0  0  0  0  0  0  0  0  0  0  0  0
   -0.2294    0.8845    6.1912 N   0  0  0  0  0  0  0  0  0  0  0  0
   -0.1798    1.9531    7.1801 C   0  0  0  0  0  0  0  0  0  0  0  0
   -0.8342    0.0858    6.3576 H   0  0  0  0  0  0  0  0  0  0  0  0
    0.8565    2.1646    7.4634 H   0  0  0  0  0  0  0  0  0  0  0  0
   -0.6298    2.8669    6.7786 H   0  0  0  0  0  0  0  0  0  0  0  0
   -0.7310    1.6612    8.0787 H   0  0  0  0  0  0  0  0  0  0  0  0
  1  2  2  0  0  0  0
  1  3  1  0  0  0  0
  1  7  1  0  0  0  0
  3  4  1  0  0  0  0
  3  5  1  0  0  0  0
  3  6  1  0  0  0  0
  7  8  1  0  0  0  0
  7 12  1  0  0  0  0
  8  9  1  0  0  0  0
  8 11  1  0  0  0  0
  8 13  1  0  0  0  0
  9 10  2  0  0  0  0
  9 17  1  0  0  0  0
 11 14  1  0  0  0  0
 11 15  1  0  0  0  0
 11 16  1  0  0  0  0
 17 18  1  0  0  0  0
 17 25  1  0  0  0  0
 18 19  1  0  0  0  0
 18 21  1  0  0  0  0
 18 26  1  0  0  0  0
 19 20  2  0  0  0  0
 19 29  1  0  0  0  0
 21 22  1  0  0  0  0
 21 27  1  0  0  0  0
 21 28  1  0  0  0  0
 22 23  1  0  0  0  0
 22 24  2  0  0  0  0
 29 30  1  0  0  0  0
 29 34  1  0  0  0  0
 30 31  1  0  0  0  0
 30 33  1  0  0  0  0
 30 35  1  0  0  0  0
 31 32  2  0  0  0  0
 31 39  1  0  0  0  0
 33 36  1  0  0  0  0
 33 37  1  0  0  0  0
 33 38  1  0  0  0  0
 39 40  1  0  0  0  0
 39 41  1  0  0  0  0
 40 42  1  0  0  0  0
 40 43  1  0  0  0  0
 40 44  1  0  0  0  0
M  CHG  1  23  -1
M  END
$$$$

  -OEChem-05262215553D

 44 43  0     1  0  0  0  0  0999 V2000
   -4.5644   -0.0676   -4.1662 C   0  0  0  0  0  0  0  0  0  0  0  0
   -4.3594   -1.1579   -4.6798 O   0  0  0  0  0  0  0  0  0  0  0  0
   -5.9300    0.5822   -4.2946 C   0  0  0  0  0  0  0  0  0  0  0  0
   -5.8455    1.5168   -4.8546 H   0  0  0  0  0  0  0  0  0  0  0  0
   -6.6193   -0.0847   -4.8200 H   0  0  0  0  0  0  0  0  0  0  0  0
   -6.3339    0.7966   -3.3019 H   0  0  0  0  0  0  0  0  0  0  0  0
   -3.5746    0.5839   -3.4648 N   0  0  0  0  0  0  0  0  0  0  0  0
   -2.3091   -0.0313   -3.0447 C   0  0  2  0  0  0  0  0  0  0  0  0
   -2.0071    0.2690   -1.5599 C   0  0  0  0  0  0  0  0  0  0  0  0
   -2.8026    0.9319   -0.8991 O   0  0  0  0  0  0  0  0  0  0  0  0
   -1.1967    0.5175   -3.9440 C   0  0  0  0  0  0  0  0  0  0  0  0
   -3.8657    1.3927   -2.9163 H   0  0  0  0  0  0  0  0  0  0  0  0
   -2.3574   -1.1191   -3.1539 H   0  0  0  0  0  0  0  0  0  0  0  0
   -1.1098    1.6033   -3.8273 H   0  0  0  0  0  0  0  0  0  0  0  0
   -0.2317    0.0684   -3.6888 H   0  0  0  0  0  0  0  0  0  0  0  0
   -1.4139    0.2948   -4.9929 H   0  0  0  0  0  0  0  0  0  0  0  0
   -0.9012   -0.2981   -0.9555 N   0  0  0  0  0  0  0  0  0  0  0  0
   -0.0531    0.3729    0.0510 C   0  0  2  0  0  0  0  0  0  0  0  0
   -0.3165   -0.1540    1.4831 C   0  0  0  0  0  0  0  0  0  0  0  0
   -0.7726   -1.2796    1.6709 O   0  0  0  0  0  0  0  0  0  0  0  0
   -0.0026    1.9199   -0.0889 C   0  0  0  0  0  0  0  0  0  0  0  0
    0.7419    2.3499   -1.3533 C   0  0  0  0  0  0  0  0  0  0  0  0
    1.6479    1.6004   -1.8001 O   0  5  0  0  0  0  0  0  0  0  0  0
    0.3902    3.4290   -1.8839 O   0  0  0  0  0  0  0  0  0  0  0  0
   -0.3709   -0.8833   -1.5918 H   0  0  0  0  0  0  0  0  0  0  0  0
    0.9666    0.0211   -0.1314 H   0  0  0  0  0  0  0  0  0  0  0  0
    0.5561    2.3425    0.7484 H   0  0  0  0  0  0  0  0  0  0  0  0
   -0.9982    2.3660   -0.0633 H   0  0  0  0  0  0  0  0  0  0  0  0
    0.1353    0.5407    2.5921 N   0  0  0  0  0  0  0  0  0  0  0  0
   -0.0566    0.1073    3.9820 C   0  0  2  0  0  0  0  0  0  0  0  0
   -0.2804    1.2914    4.9443 C   0  0  0  0  0  0  0  0  0  0  0  0
    0.2455    2.3787    4.7345 O   0  0  0  0  0  0  0  0  0  0  0  0
    1.1750   -0.6971    4.4070 C   0  0  0  0  0  0  0  0  0  0  0  0
    0.4571    1.4953    2.4355 H   0  0  0  0  0  0  0  0  0  0  0  0
   -0.9428   -0.5322    4.0473 H   0  0  0  0  0  0  0  0  0  0  0  0
    2.0756   -0.0770    4.3475 H   0  0  0  0  0  0  0  0  0  0  0  0
    1.0634   -1.0542    5.4351 H   0  0  0  0  0  0  0  0  0  0  0  0
    1.3044   -1.5640    3.7511 H   0  0  0  0  0  0  0  0  0  0  0  0
   -1.0558    1.1241    6.0782 N   0  0  0  0  0  0  0  0  0  0  0  0
   -1.3505    2.2045    7.0099 C   0  0  0  0  0  0  0  0  0  0  0  0
   -1.5266    0.2315    6.1930 H   0  0  0  0  0  0  0  0  0  0  0  0
   -0.4296    2.5649    7.4798 H   0  0  0  0  0  0  0  0  0  0  0  0
   -1.8321    3.0390    6.4897 H   0  0  0  0  0  0  0  0  0  0  0  0
   -2.0251    1.8519    7.7956 H   0  0  0  0  0  0  0  0  0  0  0  0
  1  2  2  0  0  0  0
  1  3  1  0  0  0  0
  1  7  1  0  0  0  0
  3  4  1  0  0  0  0
  3  5  1  0  0  0  0
  3  6  1  0  0  0  0
  7  8  1  0  0  0  0
  7 12  1  0  0  0  0
  8  9  1  0  0  0  0
  8 11  1  0  0  0  0
  8 13  1  0  0  0  0
  9 10  2  0  0  0  0
  9 17  1  0  0  0  0
 11 14  1  0  0  0  0
 11 15  1  0  0  0  0
 11 16  1  0  0  0  0
 17 18  1  0  0  0  0
 17 25  1  0  0  0  0
 18 19  1  0  0  0  0
 18 21  1  0  0  0  0
 18 26  1  0  0  0  0
 19 20  2  0  0  0  0
 19 29  1  0  0  0  0
 21 22  1  0  0  0  0
 21 27  1  0  0  0  0
 21 28  1  0  0  0  0
 22 23  1  0  0  0  0
 22 24  2  0  0  0  0
 29 30  1  0  0  0  0
 29 34  1  0  0  0  0
 30 31  1  0  0  0  0
 30 33  1  0  0  0  0
 30 35  1  0  0  0  0
 31 32  2  0  0  0  0
 31 39  1  0  0  0  0
 33 36  1  0  0  0  0
 33 37  1  0  0  0  0
 33 38  1  0  0  0  0
 39 40  1  0  0  0  0
 39 41  1  0  0  0  0
 40 42  1  0  0  0  0
 40 43  1  0  0  0  0
 40 44  1  0  0  0  0
M  CHG  1  23  -1
M  END
$$$$

  -OEChem-05262215553D

 44 43  0     1  0  0  0  0  0999 V2000
   -4.5601   -0.0885   -4.1389 C   0  0  0  0  0  0  0  0  0  0  0  0
   -4.3581   -1.1859   -4.6381 O   0  0  0  0  0  0  0  0  0  0  0  0
   -5.9218    0.5670   -4.2797 C   0  0  0  0  0  0  0  0  0  0  0  0
   -5.8264    1.5044   -4.8332 H   0  0  0  0  0  0  0  0  0  0  0  0
   -6.6067   -0.0939   -4.8179 H   0  0  0  0  0  0  0  0  0  0  0  0
   -6.3375    0.7780   -3.2911 H   0  0  0  0  0  0  0  0  0  0  0  0
   -3.5685    0.5697   -3.4466 N   0  0  0  0  0  0  0  0  0  0  0  0
   -2.2962   -0.0348   -3.0316 C   0  0  2  0  0  0  0  0  0  0  0  0
   -1.9912    0.2668   -1.5480 C   0  0  0  0  0  0  0  0  0  0  0  0
   -2.7881    0.9218   -0.8807 O   0  0  0  0  0  0  0  0  0  0  0  0
   -1.1936    0.5291   -3.9330 C   0  0  0  0  0  0  0  0  0  0  0  0
   -3.8566    1.3872   -2.9102 H   0  0  0  0  0  0  0  0  0  0  0  0
   -2.3335   -1.1232   -3.1432 H   0  0  0  0  0  0  0  0  0  0  0  0
   -1.1186    1.6152   -3.8118 H   0  0  0  0  0  0  0  0  0  0  0  0
   -0.2230    0.0897   -3.6828 H   0  0  0  0  0  0  0  0  0  0  0  0
   -1.4119    0.3085   -4.9821 H   0  0  0  0  0  0  0  0  0  0  0  0
   -0.8827   -0.2937   -0.9429 N   0  0  0  0  0  0  0  0  0  0  0  0
   -0.0298    0.3985    0.0440 C   0  0  2  0  0  0  0  0  0  0  0  0
   -0.2967   -0.1092    1.4811 C   0  0  0  0  0  0  0  0  0  0  0  0
   -0.5331   -1.2968    1.6907 O   0  0  0  0  0  0  0  0  0  0  0  0
    0.0218    1.9423   -0.1254 C   0  0  0  0  0  0  0  0  0  0  0  0
    0.7599    2.3489   -1.4010 C   0  0  0  0  0  0  0  0  0  0  0  0
    1.6632    1.5915   -1.8391 O   0  5  0  0  0  0  0  0  0  0  0  0
    0.3994    3.4136   -1.9541 O   0  0  0  0  0  0  0  0  0  0  0  0
   -0.3514   -0.8800   -1.5779 H   0  0  0  0  0  0  0  0  0  0  0  0
    0.9900    0.0435   -0.1342 H   0  0  0  0  0  0  0  0  0  0  0  0
    0.5878    2.3776    0.7007 H   0  0  0  0  0  0  0  0  0  0  0  0
   -0.9729    2.3906   -0.1036 H   0  0  0  0  0  0  0  0  0  0  0  0
   -0.1336    0.7158    2.5804 N   0  0  0  0  0  0  0  0  0  0  0  0
   -0.4125    0.3164    3.9651 C   0  0  2  0  0  0  0  0  0  0  0  0
   -0.9969    1.4712    4.8032 C   0  0  0  0  0  0  0  0  0  0  0  0
   -0.6587    2.6308    4.5948 O   0  0  0  0  0  0  0  0  0  0  0  0
    0.8898   -0.1884    4.5917 C   0  0  0  0  0  0  0  0  0  0  0  0
   -0.0284    1.7122    2.3901 H   0  0  0  0  0  0  0  0  0  0  0  0
   -1.1501   -0.4927    3.9709 H   0  0  0  0  0  0  0  0  0  0  0  0
    1.6436    0.6054    4.5971 H   0  0  0  0  0  0  0  0  0  0  0  0
    0.7173   -0.5141    5.6217 H   0  0  0  0  0  0  0  0  0  0  0  0
    1.2806   -1.0365    4.0206 H   0  0  0  0  0  0  0  0  0  0  0  0
   -1.8864    1.2004    5.8278 N   0  0  0  0  0  0  0  0  0  0  0  0
   -2.5170    2.2387    6.6316 C   0  0  0  0  0  0  0  0  0  0  0  0
   -2.2041    0.2408    5.9253 H   0  0  0  0  0  0  0  0  0  0  0  0
   -1.7588    2.8286    7.1571 H   0  0  0  0  0  0  0  0  0  0  0  0
   -3.1090    2.9075    5.9980 H   0  0  0  0  0  0  0  0  0  0  0  0
   -3.1808    1.7883    7.3757 H   0  0  0  0  0  0  0  0  0  0  0  0
  1  2  2  0  0  0  0
  1  3  1  0  0  0  0
  1  7  1  0  0  0  0
  3  4  1  0  0  0  0
  3  5  1  0  0  0  0
  3  6  1  0  0  0  0
  7  8  1  0  0  0  0
  7 12  1  0  0  0  0
  8  9  1  0  0  0  0
  8 11  1  0  0  0  0
  8 13  1  0  0  0  0
  9 10  2  0  0  0  0
  9 17  1  0  0  0  0
 11 14  1  0  0  0  0
 11 15  1  0  0  0  0
 11 16  1  0  0  0  0
 17 18  1  0  0  0  0
 17 25  1  0  0  0  0
 18 19  1  0  0  0  0
 18 21  1  0  0  0  0
 18 26  1  0  0  0  0
 19 20  2  0  0  0  0
 19 29  1  0  0  0  0
 21 22  1  0  0  0  0
 21 27  1  0  0  0  0
 21 28  1  0  0  0  0
 22 23  1  0  0  0  0
 22 24  2  0  0  0  0
 29 30  1  0  0  0  0
 29 34  1  0  0  0  0
 30 31  1  0  0  0  0
 30 33  1  0  0  0  0
 30 35  1  0  0  0  0
 31 32  2  0  0  0  0
 31 39  1  0  0  0  0
 33 36  1  0  0  0  0
 33 37  1  0  0  0  0
 33 38  1  0  0  0  0
 39 40  1  0  0  0  0
 39 41  1  0  0  0  0
 40 42  1  0  0  0  0
 40 43  1  0  0  0  0
 40 44  1  0  0  0  0
M  CHG  1  23  -1
M  END
$$$$

  -OEChem-05262215553D

 44 43  0     1  0  0  0  0  0999 V2000
   -4.5498   -0.1060   -4.1254 C   0  0  0  0  0  0  0  0  0  0  0  0
   -4.3573   -1.2178   -4.5958 O   0  0  0  0  0  0  0  0  0  0  0  0
   -5.9042    0.5589   -4.2925 C   0  0  0  0  0  0  0  0  0  0  0  0
   -5.7933    1.4907   -4.8527 H   0  0  0  0  0  0  0  0  0  0  0  0
   -6.5857   -0.1009   -4.8363 H   0  0  0  0  0  0  0  0  0  0  0  0
   -6.3344    0.7803   -3.3125 H   0  0  0  0  0  0  0  0  0  0  0  0
   -3.5524    0.5597   -3.4476 N   0  0  0  0  0  0  0  0  0  0  0  0
   -2.2842   -0.0466   -3.0211 C   0  0  2  0  0  0  0  0  0  0  0  0
   -1.9837    0.2586   -1.5369 C   0  0  0  0  0  0  0  0  0  0  0  0
   -2.7912    0.8937   -0.8636 O   0  0  0  0  0  0  0  0  0  0  0  0
   -1.1744    0.5042   -3.9226 C   0  0  0  0  0  0  0  0  0  0  0  0
   -3.8335    1.3924   -2.9313 H   0  0  0  0  0  0  0  0  0  0  0  0
   -2.3257   -1.1353   -3.1262 H   0  0  0  0  0  0  0  0  0  0  0  0
   -1.0999    1.5922   -3.8190 H   0  0  0  0  0  0  0  0  0  0  0  0
   -0.2059    0.0679   -3.6588 H   0  0  0  0  0  0  0  0  0  0  0  0
   -1.3852    0.2678   -4.9697 H   0  0  0  0  0  0  0  0  0  0  0  0
   -0.8697   -0.2872   -0.9290 N   0  0  0  0  0  0  0  0  0  0  0  0
   -0.0217    0.4300    0.0425 C   0  0  2  0  0  0  0  0  0  0  0  0
   -0.2896   -0.0628    1.4819 C   0  0  0  0  0  0  0  0  0  0  0  0
   -0.3060   -1.2650    1.7353 O   0  0  0  0  0  0  0  0  0  0  0  0
    0.0064    1.9727   -0.1405 C   0  0  0  0  0  0  0  0  0  0  0  0
    0.7288    2.3798   -1.4240 C   0  0  0  0  0  0  0  0  0  0  0  0
    1.6397    1.6322   -1.8626 O   0  5  0  0  0  0  0  0  0  0  0  0
    0.3473    3.4340   -1.9831 O   0  0  0  0  0  0  0  0  0  0  0  0
   -0.3298   -0.8658   -1.5640 H   0  0  0  0  0  0  0  0  0  0  0  0
    1.0035    0.0880   -0.1311 H   0  0  0  0  0  0  0  0  0  0  0  0
    0.5718    2.4198    0.6805 H   0  0  0  0  0  0  0  0  0  0  0  0
   -0.9951    2.4063   -0.1160 H   0  0  0  0  0  0  0  0  0  0  0  0
   -0.4385    0.8269    2.5306 N   0  0  0  0  0  0  0  0  0  0  0  0
   -0.7971    0.4412    3.8998 C   0  0  2  0  0  0  0  0  0  0  0  0
   -1.6938    1.4903    4.5875 C   0  0  0  0  0  0  0  0  0  0  0  0
   -1.5302    2.6875    4.3817 O   0  0  0  0  0  0  0  0  0  0  0  0
    0.4937    0.2385    4.6975 C   0  0  0  0  0  0  0  0  0  0  0  0
   -0.5209    1.8120    2.2793 H   0  0  0  0  0  0  0  0  0  0  0  0
   -1.3567   -0.4996    3.8793 H   0  0  0  0  0  0  0  0  0  0  0  0
    1.0712    1.1680    4.7315 H   0  0  0  0  0  0  0  0  0  0  0  0
    0.2649   -0.0696    5.7220 H   0  0  0  0  0  0  0  0  0  0  0  0
    1.1086   -0.5376    4.2310 H   0  0  0  0  0  0  0  0  0  0  0  0
   -2.6707    1.0848    5.4792 N   0  0  0  0  0  0  0  0  0  0  0  0
   -3.5890    2.0096    6.1293 C   0  0  0  0  0  0  0  0  0  0  0  0
   -2.8360    0.0864    5.5622 H   0  0  0  0  0  0  0  0  0  0  0  0
   -3.0357    2.7325    6.7377 H   0  0  0  0  0  0  0  0  0  0  0  0
   -4.1780    2.5529    5.3829 H   0  0  0  0  0  0  0  0  0  0  0  0
   -4.2758    1.4626    6.7818 H   0  0  0  0  0  0  0  0  0  0  0  0
  1  2  2  0  0  0  0
  1  3  1  0  0  0  0
  1  7  1  0  0  0  0
  3  4  1  0  0  0  0
  3  5  1  0  0  0  0
  3  6  1  0  0  0  0
  7  8  1  0  0  0  0
  7 12  1  0  0  0  0
  8  9  1  0  0  0  0
  8 11  1  0  0  0  0
  8 13  1  0  0  0  0
  9 10  2  0  0  0  0
  9 17  1  0  0  0  0
 11 14  1  0  0  0  0
 11 15  1  0  0  0  0
 11 16  1  0  0  0  0
 17 18  1  0  0  0  0
 17 25  1  0  0  0  0
 18 19  1  0  0  0  0
 18 21  1  0  0  0  0
 18 26  1  0  0  0  0
 19 20  2  0  0  0  0
 19 29  1  0  0  0  0
 21 22  1  0  0  0  0
 21 27  1  0  0  0  0
 21 28  1  0  0  0  0
 22 23  1  0  0  0  0
 22 24  2  0  0  0  0
 29 30  1  0  0  0  0
 29 34  1  0  0  0  0
 30 31  1  0  0  0  0
 30 33  1  0  0  0  0
 30 35  1  0  0  0  0
 31 32  2  0  0  0  0
 31 39  1  0  0  0  0
 33 36  1  0  0  0  0
 33 37  1  0  0  0  0
 33 38  1  0  0  0  0
 39 40  1  0  0  0  0
 39 41  1  0  0  0  0
 40 42  1  0  0  0  0
 40 43  1  0  0  0  0
 40 44  1  0  0  0  0
M  CHG  1  23  -1
M  END
$$$$

  -OEChem-05262215553D

 44 43  0     1  0  0  0  0  0999 V2000
   -4.5374   -0.1195   -4.1155 C   0  0  0  0  0  0  0  0  0  0  0  0
   -4.3507   -1.2418   -4.5628 O   0  0  0  0  0  0  0  0  0  0  0  0
   -5.8976    0.5361   -4.2678 C   0  0  0  0  0  0  0  0  0  0  0  0
   -5.8050    1.4484   -4.8621 H   0  0  0  0  0  0  0  0  0  0  0  0
   -6.5921   -0.1437   -4.7690 H   0  0  0  0  0  0  0  0  0  0  0  0
   -6.3002    0.7901   -3.2839 H   0  0  0  0  0  0  0  0  0  0  0  0
   -3.5316    0.5626   -3.4676 N   0  0  0  0  0  0  0  0  0  0  0  0
   -2.2655   -0.0397   -3.0304 C   0  0  2  0  0  0  0  0  0  0  0  0
   -1.9752    0.2752   -1.5464 C   0  0  0  0  0  0  0  0  0  0  0  0
   -2.7830    0.9205   -0.8830 O   0  0  0  0  0  0  0  0  0  0  0  0
   -1.1502    0.5084   -3.9252 C   0  0  0  0  0  0  0  0  0  0  0  0
   -3.8092    1.4050   -2.9653 H   0  0  0  0  0  0  0  0  0  0  0  0
   -2.3036   -1.1288   -3.1313 H   0  0  0  0  0  0  0  0  0  0  0  0
   -1.0696    1.5954   -3.8148 H   0  0  0  0  0  0  0  0  0  0  0  0
   -0.1857    0.0647   -3.6591 H   0  0  0  0  0  0  0  0  0  0  0  0
   -1.3577    0.2786   -4.9745 H   0  0  0  0  0  0  0  0  0  0  0  0
   -0.8748   -0.2776   -0.9208 N   0  0  0  0  0  0  0  0  0  0  0  0
   -0.0240    0.4495    0.0398 C   0  0  2  0  0  0  0  0  0  0  0  0
   -0.3178   -0.0133    1.4816 C   0  0  0  0  0  0  0  0  0  0  0  0
   -0.1405   -1.1857    1.8031 O   0  0  0  0  0  0  0  0  0  0  0  0
    0.0214    1.9879   -0.1614 C   0  0  0  0  0  0  0  0  0  0  0  0
    0.7519    2.3710   -1.4480 C   0  0  0  0  0  0  0  0  0  0  0  0
    1.6558    1.6086   -1.8757 O   0  5  0  0  0  0  0  0  0  0  0  0
    0.3781    3.4188   -2.0242 O   0  0  0  0  0  0  0  0  0  0  0  0
   -0.3346   -0.8668   -1.5463 H   0  0  0  0  0  0  0  0  0  0  0  0
    0.9990    0.0942   -0.1207 H   0  0  0  0  0  0  0  0  0  0  0  0
    0.5855    2.4344    0.6609 H   0  0  0  0  0  0  0  0  0  0  0  0
   -0.9753    2.4330   -0.1471 H   0  0  0  0  0  0  0  0  0  0  0  0
   -0.7666    0.8751    2.4425 N   0  0  0  0  0  0  0  0  0  0  0  0
   -1.1969    0.4843    3.7896 C   0  0  2  0  0  0  0  0  0  0  0  0
   -2.3612    1.3497    4.3122 C   0  0  0  0  0  0  0  0  0  0  0  0
   -2.3843    2.5589    4.1139 O   0  0  0  0  0  0  0  0  0  0  0  0
    0.0080    0.5846    4.7281 C   0  0  0  0  0  0  0  0  0  0  0  0
   -1.0222    1.8059    2.1117 H   0  0  0  0  0  0  0  0  0  0  0  0
   -1.5487   -0.5520    3.7725 H   0  0  0  0  0  0  0  0  0  0  0  0
    0.3800    1.6136    4.7632 H   0  0  0  0  0  0  0  0  0  0  0  0
   -0.2695    0.2778    5.7409 H   0  0  0  0  0  0  0  0  0  0  0  0
    0.8150   -0.0662    4.3769 H   0  0  0  0  0  0  0  0  0  0  0  0
   -3.3728    0.7679    5.0556 N   0  0  0  0  0  0  0  0  0  0  0  0
   -4.5369    1.5037    5.5304 C   0  0  0  0  0  0  0  0  0  0  0  0
   -3.3684   -0.2450    5.1280 H   0  0  0  0  0  0  0  0  0  0  0  0
   -4.2310    2.3099    6.2052 H   0  0  0  0  0  0  0  0  0  0  0  0
   -5.0856    1.9371    4.6875 H   0  0  0  0  0  0  0  0  0  0  0  0
   -5.2096    0.8345    6.0749 H   0  0  0  0  0  0  0  0  0  0  0  0
  1  2  2  0  0  0  0
  1  3  1  0  0  0  0
  1  7  1  0  0  0  0
  3  4  1  0  0  0  0
  3  5  1  0  0  0  0
  3  6  1  0  0  0  0
  7  8  1  0  0  0  0
  7 12  1  0  0  0  0
  8  9  1  0  0  0  0
  8 11  1  0  0  0  0
  8 13  1  0  0  0  0
  9 10  2  0  0  0  0
  9 17  1  0  0  0  0
 11 14  1  0  0  0  0
 11 15  1  0  0  0  0
 11 16  1  0  0  0  0
 17 18  1  0  0  0  0
 17 25  1  0  0  0  0
 18 19  1  0  0  0  0
 18 21  1  0  0  0  0
 18 26  1  0  0  0  0
 19 20  2  0  0  0  0
 19 29  1  0  0  0  0
 21 22  1  0  0  0  0
 21 27  1  0  0  0  0
 21 28  1  0  0  0  0
 22 23  1  0  0  0  0
 22 24  2  0  0  0  0
 29 30  1  0  0  0  0
 29 34  1  0  0  0  0
 30 31  1  0  0  0  0
 30 33  1  0  0  0  0
 30 35  1  0  0  0  0
 31 32  2  0  0  0  0
 31 39  1  0  0  0  0
 33 36  1  0  0  0  0
 33 37  1  0  0  0  0
 33 38  1  0  0  0  0
 39 40  1  0  0  0  0
 39 41  1  0  0  0  0
 40 42  1  0  0  0  0
 40 43  1  0  0  0  0
 40 44  1  0  0  0  0
M  CHG  1  23  -1
M  END
$$$$

  -OEChem-05262215553D

 44 43  0     1  0  0  0  0  0999 V2000
   -4.9435    0.1217   -3.1688 C   0  0  0  0  0  0  0  0  0  0  0  0
   -5.0259   -1.0600   -3.4691 O   0  0  0  0  0  0  0  0  0  0  0  0
   -6.1781    1.0025   -3.2254 C   0  0  0  0  0  0  0  0  0  0  0  0
   -5.9691    1.9006   -3.8121 H   0  0  0  0  0  0  0  0  0  0  0  0
   -7.0070    0.4626   -3.6912 H   0  0  0  0  0  0  0  0  0  0  0  0
   -6.4702    1.2966   -2.2142 H   0  0  0  0  0  0  0  0  0  0  0  0
   -3.7446    0.6696   -2.7684 N   0  0  0  0  0  0  0  0  0  0  0  0
   -2.5431   -0.1078   -2.4351 C   0  0  2  0  0  0  0  0  0  0  0  0
   -2.0069    0.2522   -1.0332 C   0  0  0  0  0  0  0  0  0  0  0  0
   -2.5826    1.0836   -0.3320 O   0  0  0  0  0  0  0  0  0  0  0  0
   -1.4884    0.1822   -3.5061 C   0  0  0  0  0  0  0  0  0  0  0  0
   -3.7879    1.6075   -2.3736 H   0  0  0  0  0  0  0  0  0  0  0  0
   -2.7651   -1.1798   -2.4341 H   0  0  0  0  0  0  0  0  0  0  0  0
   -1.2340    1.2476   -3.5162 H   0  0  0  0  0  0  0  0  0  0  0  0
   -0.5733   -0.3867   -3.3142 H   0  0  0  0  0  0  0  0  0  0  0  0
   -1.8661   -0.0952   -4.4948 H   0  0  0  0  0  0  0  0  0  0  0  0
   -0.9866   -0.4723   -0.4526 N   0  0  0  0  0  0  0  0  0  0  0  0
    0.1037    0.1605    0.3119 C   0  0  2  0  0  0  0  0  0  0  0  0
   -0.1451   -0.0776    1.8108 C   0  0  0  0  0  0  0  0  0  0  0  0
   -0.0654   -1.2001    2.2961 O   0  0  0  0  0  0  0  0  0  0  0  0
    0.4178    1.6338   -0.0605 C   0  0  0  0  0  0  0  0  0  0  0  0
    1.0330    1.7512   -1.4521 C   0  0  0  0  0  0  0  0  0  0  0  0
    1.7097    0.7892   -1.8935 O   0  5  0  0  0  0  0  0  0  0  0  0
    0.7756    2.7946   -2.0955 O   0  0  0  0  0  0  0  0  0  0  0  0
   -0.6555   -1.2214   -1.0538 H   0  0  0  0  0  0  0  0  0  0  0  0
    1.0149   -0.4114    0.1055 H   0  0  0  0  0  0  0  0  0  0  0  0
    1.1585    2.0195    0.6444 H   0  0  0  0  0  0  0  0  0  0  0  0
   -0.4613    2.2760    0.0133 H   0  0  0  0  0  0  0  0  0  0  0  0
   -0.6091    0.9727    2.5809 N   0  0  0  0  0  0  0  0  0  0  0  0
   -1.2928    0.7848    3.8681 C   0  0  2  0  0  0  0  0  0  0  0  0
   -2.8087    0.5017    3.7236 C   0  0  0  0  0  0  0  0  0  0  0  0
   -3.4940    0.3314    4.7270 O   0  0  0  0  0  0  0  0  0  0  0  0
   -1.0445    2.0485    4.6970 C   0  0  0  0  0  0  0  0  0  0  0  0
   -0.8101    1.8211    2.0554 H   0  0  0  0  0  0  0  0  0  0  0  0
   -0.8532   -0.0657    4.4000 H   0  0  0  0  0  0  0  0  0  0  0  0
   -1.4922    2.9211    4.2113 H   0  0  0  0  0  0  0  0  0  0  0  0
   -1.4833    1.9421    5.6940 H   0  0  0  0  0  0  0  0  0  0  0  0
    0.0300    2.2222    4.8104 H   0  0  0  0  0  0  0  0  0  0  0  0
   -3.4319    0.5143    2.4866 N   0  0  0  0  0  0  0  0  0  0  0  0
   -4.8482    0.2487    2.2879 C   0  0  0  0  0  0  0  0  0  0  0  0
   -2.8496    0.6627    1.6583 H   0  0  0  0  0  0  0  0  0  0  0  0
   -5.1026   -0.7555    2.6417 H   0  0  0  0  0  0  0  0  0  0  0  0
   -5.4560    0.9814    2.8279 H   0  0  0  0  0  0  0  0  0  0  0  0
   -5.0925    0.3135    1.2232 H   0  0  0  0  0  0  0  0  0  0  0  0
  1  2  2  0  0  0  0
  1  3  1  0  0  0  0
  1  7  1  0  0  0  0
  3  4  1  0  0  0  0
  3  5  1  0  0  0  0
  3  6  1  0  0  0  0
  7  8  1  0  0  0  0
  7 12  1  0  0  0  0
  8  9  1  0  0  0  0
  8 11  1  0  0  0  0
  8 13  1  0  0  0  0
  9 10  2  0  0  0  0
  9 17  1  0  0  0  0
 11 14  1  0  0  0  0
 11 15  1  0  0  0  0
 11 16  1  0  0  0  0
 17 18  1  0  0  0  0
 17 25  1  0  0  0  0
 18 19  1  0  0  0  0
 18 21  1  0  0  0  0
 18 26  1  0  0  0  0
 19 20  2  0  0  0  0
 19 29  1  0  0  0  0
 21 22  1  0  0  0  0
 21 27  1  0  0  0  0
 21 28  1  0  0  0  0
 22 23  1  0  0  0  0
 22 24  2  0  0  0  0
 29 30  1  0  0  0  0
 29 34  1  0  0  0  0
 30 31  1  0  0  0  0
 30 33  1  0  0  0  0
 30 35  1  0  0  0  0
 31 32  2  0  0  0  0
 31 39  1  0  0  0  0
 33 36  1  0  0  0  0
 33 37  1  0  0  0  0
 33 38  1  0  0  0  0
 39 40  1  0  0  0  0
 39 41  1  0  0  0  0
 40 42  1  0  0  0  0
 40 43  1  0  0  0  0
 40 44  1  0  0  0  0
M  CHG  1  23  -1
M  END
$$$$

  -OEChem-05262215553D

 44 43  0     1  0  0  0  0  0999 V2000
   -4.8981    0.1091   -2.8958 C   0  0  0  0  0  0  0  0  0  0  0  0
   -5.1905   -1.0523   -2.6515 O   0  0  0  0  0  0  0  0  0  0  0  0
   -5.9961    1.1373   -3.0967 C   0  0  0  0  0  0  0  0  0  0  0  0
   -5.9200    1.5747   -4.0951 H   0  0  0  0  0  0  0  0  0  0  0  0
   -6.9782    0.6684   -2.9900 H   0  0  0  0  0  0  0  0  0  0  0  0
   -5.9012    1.9308   -2.3512 H   0  0  0  0  0  0  0  0  0  0  0  0
   -3.5812    0.5054   -2.9901 N   0  0  0  0  0  0  0  0  0  0  0  0
   -2.4614   -0.3019   -2.4862 C   0  0  2  0  0  0  0  0  0  0  0  0
   -1.9985    0.1629   -1.0882 C   0  0  0  0  0  0  0  0  0  0  0  0
   -2.6059    1.0381   -0.4722 O   0  0  0  0  0  0  0  0  0  0  0  0
   -1.3217   -0.1869   -3.5019 C   0  0  0  0  0  0  0  0  0  0  0  0
   -3.4313    1.5117   -2.9980 H   0  0  0  0  0  0  0  0  0  0  0  0
   -2.7488   -1.3553   -2.4071 H   0  0  0  0  0  0  0  0  0  0  0  0
   -0.9951    0.8541   -3.5980 H   0  0  0  0  0  0  0  0  0  0  0  0
   -0.4616   -0.7884   -3.1910 H   0  0  0  0  0  0  0  0  0  0  0  0
   -1.6514   -0.5400   -4.4836 H   0  0  0  0  0  0  0  0  0  0  0  0
   -1.0093   -0.5104   -0.4023 N   0  0  0  0  0  0  0  0  0  0  0  0
    0.0446    0.1905    0.3544 C   0  0  2  0  0  0  0  0  0  0  0  0
   -0.2926    0.0702    1.8483 C   0  0  0  0  0  0  0  0  0  0  0  0
   -0.0117   -0.9369    2.4871 O   0  0  0  0  0  0  0  0  0  0  0  0
    0.3623    1.6361   -0.1105 C   0  0  0  0  0  0  0  0  0  0  0  0
    1.0313    1.6553   -1.4825 C   0  0  0  0  0  0  0  0  0  0  0  0
    1.7309    0.6696   -1.8248 O   0  5  0  0  0  0  0  0  0  0  0  0
    0.7724    2.6335   -2.2216 O   0  0  0  0  0  0  0  0  0  0  0  0
   -0.6475   -1.3013   -0.9276 H   0  0  0  0  0  0  0  0  0  0  0  0
    0.9692   -0.3858    0.2381 H   0  0  0  0  0  0  0  0  0  0  0  0
    1.0694    2.0776    0.5963 H   0  0  0  0  0  0  0  0  0  0  0  0
   -0.5213    2.2763   -0.1185 H   0  0  0  0  0  0  0  0  0  0  0  0
   -1.0815    1.0553    2.4127 N   0  0  0  0  0  0  0  0  0  0  0  0
   -1.8729    0.8409    3.6329 C   0  0  2  0  0  0  0  0  0  0  0  0
   -3.2425    0.1716    3.3648 C   0  0  0  0  0  0  0  0  0  0  0  0
   -3.9507   -0.1670    4.3076 O   0  0  0  0  0  0  0  0  0  0  0  0
   -2.0595    2.2061    4.2986 C   0  0  0  0  0  0  0  0  0  0  0  0
   -1.4281    1.7371    1.7384 H   0  0  0  0  0  0  0  0  0  0  0  0
   -1.3219    0.1931    4.3227 H   0  0  0  0  0  0  0  0  0  0  0  0
   -2.6307    2.8756    3.6478 H   0  0  0  0  0  0  0  0  0  0  0  0
   -2.5989    2.0960    5.2444 H   0  0  0  0  0  0  0  0  0  0  0  0
   -1.0873    2.6631    4.5061 H   0  0  0  0  0  0  0  0  0  0  0  0
   -3.7290    0.0283    2.0764 N   0  0  0  0  0  0  0  0  0  0  0  0
   -5.0102   -0.5782    1.7489 C   0  0  0  0  0  0  0  0  0  0  0  0
   -3.1423    0.3632    1.3079 H   0  0  0  0  0  0  0  0  0  0  0  0
   -5.0543   -1.6055    2.1246 H   0  0  0  0  0  0  0  0  0  0  0  0
   -5.8308   -0.0025    2.1887 H   0  0  0  0  0  0  0  0  0  0  0  0
   -5.1451   -0.6010    0.6628 H   0  0  0  0  0  0  0  0  0  0  0  0
  1  2  2  0  0  0  0
  1  3  1  0  0  0  0
  1  7  1  0  0  0  0
  3  4  1  0  0  0  0
  3  5  1  0  0  0  0
  3  6  1  0  0  0  0
  7  8  1  0  0  0  0
  7 12  1  0  0  0  0
  8  9  1  0  0  0  0
  8 11  1  0  0  0  0
  8 13  1  0  0  0  0
  9 10  2  0  0  0  0
  9 17  1  0  0  0  0
 11 14  1  0  0  0  0
 11 15  1  0  0  0  0
 11 16  1  0  0  0  0
 17 18  1  0  0  0  0
 17 25  1  0  0  0  0
 18 19  1  0  0  0  0
 18 21  1  0  0  0  0
 18 26  1  0  0  0  0
 19 20  2  0  0  0  0
 19 29  1  0  0  0  0
 21 22  1  0  0  0  0
 21 27  1  0  0  0  0
 21 28  1  0  0  0  0
 22 23  1  0  0  0  0
 22 24  2  0  0  0  0
 29 30  1  0  0  0  0
 29 34  1  0  0  0  0
 30 31  1  0  0  0  0
 30 33  1  0  0  0  0
 30 35  1  0  0  0  0
 31 32  2  0  0  0  0
 31 39  1  0  0  0  0
 33 36  1  0  0  0  0
 33 37  1  0  0  0  0
 33 38  1  0  0  0  0
 39 40  1  0  0  0  0
 39 41  1  0  0  0  0
 40 42  1  0  0  0  0
 40 43  1  0  0  0  0
 40 44  1  0  0  0  0
M  CHG  1  23  -1
M  END
$$$$

  -OEChem-05262215553D

 44 43  0     1  0  0  0  0  0999 V2000
   -4.8121   -0.0632   -2.9472 C   0  0  0  0  0  0  0  0  0  0  0  0
   -5.0744   -1.2097   -2.6141 O   0  0  0  0  0  0  0  0  0  0  0  0
   -5.9347    0.9312   -3.1792 C   0  0  0  0  0  0  0  0  0  0  0  0
   -5.8943    1.3069   -4.2044 H   0  0  0  0  0  0  0  0  0  0  0  0
   -6.9045    0.4532   -3.0156 H   0  0  0  0  0  0  0  0  0  0  0  0
   -5.8343    1.7708   -2.4863 H   0  0  0  0  0  0  0  0  0  0  0  0
   -3.5056    0.3480   -3.1055 N   0  0  0  0  0  0  0  0  0  0  0  0
   -2.3665   -0.3974   -2.5521 C   0  0  2  0  0  0  0  0  0  0  0  0
   -1.9733    0.1103   -1.1471 C   0  0  0  0  0  0  0  0  0  0  0  0
   -2.6462    0.9572   -0.5584 O   0  0  0  0  0  0  0  0  0  0  0  0
   -1.1994   -0.2476   -3.5312 C   0  0  0  0  0  0  0  0  0  0  0  0
   -3.3769    1.3532   -3.1926 H   0  0  0  0  0  0  0  0  0  0  0  0
   -2.6087   -1.4616   -2.4666 H   0  0  0  0  0  0  0  0  0  0  0  0
   -0.9184    0.8057   -3.6373 H   0  0  0  0  0  0  0  0  0  0  0  0
   -0.3235   -0.8018   -3.1789 H   0  0  0  0  0  0  0  0  0  0  0  0
   -1.4777   -0.6341   -4.5162 H   0  0  0  0  0  0  0  0  0  0  0  0
   -1.0050   -0.5238   -0.3978 N   0  0  0  0  0  0  0  0  0  0  0  0
    0.0061    0.2226    0.3755 C   0  0  2  0  0  0  0  0  0  0  0  0
   -0.3982    0.1479    1.8548 C   0  0  0  0  0  0  0  0  0  0  0  0
    0.0620   -0.7005    2.6092 O   0  0  0  0  0  0  0  0  0  0  0  0
    0.2995    1.6637   -0.1142 C   0  0  0  0  0  0  0  0  0  0  0  0
    1.0110    1.6680   -1.4645 C   0  0  0  0  0  0  0  0  0  0  0  0
    1.7466    0.6931   -1.7592 O   0  5  0  0  0  0  0  0  0  0  0  0
    0.7403    2.6134   -2.2413 O   0  0  0  0  0  0  0  0  0  0  0  0
   -0.6005   -1.3145   -0.8914 H   0  0  0  0  0  0  0  0  0  0  0  0
    0.9488   -0.3323    0.3136 H   0  0  0  0  0  0  0  0  0  0  0  0
    0.9706    2.1418    0.6040 H   0  0  0  0  0  0  0  0  0  0  0  0
   -0.6016    2.2776   -0.1642 H   0  0  0  0  0  0  0  0  0  0  0  0
   -1.4598    0.9406    2.2483 N   0  0  0  0  0  0  0  0  0  0  0  0
   -2.3028    0.6446    3.4151 C   0  0  2  0  0  0  0  0  0  0  0  0
   -3.5252   -0.2383    3.0695 C   0  0  0  0  0  0  0  0  0  0  0  0
   -4.2196   -0.7016    3.9681 O   0  0  0  0  0  0  0  0  0  0  0  0
   -2.7541    1.9852    3.9987 C   0  0  0  0  0  0  0  0  0  0  0  0
   -1.8900    1.4474    1.4715 H   0  0  0  0  0  0  0  0  0  0  0  0
   -1.7198    0.1148    4.1759 H   0  0  0  0  0  0  0  0  0  0  0  0
   -3.3610    2.5351    3.2726 H   0  0  0  0  0  0  0  0  0  0  0  0
   -3.3518    1.8243    4.9014 H   0  0  0  0  0  0  0  0  0  0  0  0
   -1.8848    2.5953    4.2625 H   0  0  0  0  0  0  0  0  0  0  0  0
   -3.9085   -0.4402    1.7544 N   0  0  0  0  0  0  0  0  0  0  0  0
   -5.0687   -1.2207    1.3511 C   0  0  0  0  0  0  0  0  0  0  0  0
   -3.3520    0.0152    1.0276 H   0  0  0  0  0  0  0  0  0  0  0  0
   -4.9778   -2.2525    1.7051 H   0  0  0  0  0  0  0  0  0  0  0  0
   -5.9854   -0.7840    1.7596 H   0  0  0  0  0  0  0  0  0  0  0  0
   -5.1484   -1.2358    0.2597 H   0  0  0  0  0  0  0  0  0  0  0  0
  1  2  2  0  0  0  0
  1  3  1  0  0  0  0
  1  7  1  0  0  0  0
  3  4  1  0  0  0  0
  3  5  1  0  0  0  0
  3  6  1  0  0  0  0
  7  8  1  0  0  0  0
  7 12  1  0  0  0  0
  8  9  1  0  0  0  0
  8 11  1  0  0  0  0
  8 13  1  0  0  0  0
  9 10  2  0  0  0  0
  9 17  1  0  0  0  0
 11 14  1  0  0  0  0
 11 15  1  0  0  0  0
 11 16  1  0  0  0  0
 17 18  1  0  0  0  0
 17 25  1  0  0  0  0
 18 19  1  0  0  0  0
 18 21  1  0  0  0  0
 18 26  1  0  0  0  0
 19 20  2  0  0  0  0
 19 29  1  0  0  0  0
 21 22  1  0  0  0  0
 21 27  1  0  0  0  0
 21 28  1  0  0  0  0
 22 23  1  0  0  0  0
 22 24  2  0  0  0  0
 29 30  1  0  0  0  0
 29 34  1  0  0  0  0
 30 31  1  0  0  0  0
 30 33  1  0  0  0  0
 30 35  1  0  0  0  0
 31 32  2  0  0  0  0
 31 39  1  0  0  0  0
 33 36  1  0  0  0  0
 33 37  1  0  0  0  0
 33 38  1  0  0  0  0
 39 40  1  0  0  0  0
 39 41  1  0  0  0  0
 40 42  1  0  0  0  0
 40 43  1  0  0  0  0
 40 44  1  0  0  0  0
M  CHG  1  23  -1
M  END
$$$$

  -OEChem-05262215553D

 44 43  0     1  0  0  0  0  0999 V2000
   -4.5773    0.4523   -4.0623 C   0  0  0  0  0  0  0  0  0  0  0  0
   -4.7673   -0.7395   -4.2551 O   0  0  0  0  0  0  0  0  0  0  0  0
   -5.6993    1.4439   -4.3089 C   0  0  0  0  0  0  0  0  0  0  0  0
   -5.4085    2.1469   -5.0932 H   0  0  0  0  0  0  0  0  0  0  0  0
   -6.6065    0.9197   -4.6222 H   0  0  0  0  0  0  0  0  0  0  0  0
   -5.9125    1.9994   -3.3920 H   0  0  0  0  0  0  0  0  0  0  0  0
   -3.3565    0.9156   -3.6218 N   0  0  0  0  0  0  0  0  0  0  0  0
   -2.3125    0.0539   -3.0499 C   0  0  2  0  0  0  0  0  0  0  0  0
   -2.0833    0.3637   -1.5543 C   0  0  0  0  0  0  0  0  0  0  0  0
   -2.6731    1.2933   -1.0043 O   0  0  0  0  0  0  0  0  0  0  0  0
   -1.0278    0.2799   -3.8501 C   0  0  0  0  0  0  0  0  0  0  0  0
   -3.3441    1.8827   -3.3037 H   0  0  0  0  0  0  0  0  0  0  0  0
   -2.5925   -1.0009   -3.1307 H   0  0  0  0  0  0  0  0  0  0  0  0
   -0.6960    1.3197   -3.7595 H   0  0  0  0  0  0  0  0  0  0  0  0
   -0.2263   -0.3694   -3.4840 H   0  0  0  0  0  0  0  0  0  0  0  0
   -1.1944    0.0581   -4.9083 H   0  0  0  0  0  0  0  0  0  0  0  0
   -1.3965   -0.5130   -0.7387 N   0  0  0  0  0  0  0  0  0  0  0  0
   -0.4083   -0.0583    0.2600 C   0  0  2  0  0  0  0  0  0  0  0  0
   -1.0405   -0.1518    1.6573 C   0  0  0  0  0  0  0  0  0  0  0  0
   -0.6375   -0.9386    2.5086 O   0  0  0  0  0  0  0  0  0  0  0  0
    0.2482    1.3153   -0.0222 C   0  0  0  0  0  0  0  0  0  0  0  0
    1.1730    1.2600   -1.2355 C   0  0  0  0  0  0  0  0  0  0  0  0
    1.7375    0.1706   -1.5090 O   0  5  0  0  0  0  0  0  0  0  0  0
    1.2596    2.2981   -1.9315 O   0  0  0  0  0  0  0  0  0  0  0  0
   -1.0632   -1.3186   -1.2606 H   0  0  0  0  0  0  0  0  0  0  0  0
    0.4011   -0.7967    0.2758 H   0  0  0  0  0  0  0  0  0  0  0  0
    0.8625    1.5891    0.8391 H   0  0  0  0  0  0  0  0  0  0  0  0
   -0.4928    2.1067   -0.1496 H   0  0  0  0  0  0  0  0  0  0  0  0
   -2.1814    0.5869    1.9017 N   0  0  0  0  0  0  0  0  0  0  0  0
   -2.9667    0.5540    3.1434 C   0  0  2  0  0  0  0  0  0  0  0  0
   -3.8706   -0.6998    3.2623 C   0  0  0  0  0  0  0  0  0  0  0  0
   -5.0496   -0.6216    3.5947 O   0  0  0  0  0  0  0  0  0  0  0  0
   -3.7600    1.8651    3.2009 C   0  0  0  0  0  0  0  0  0  0  0  0
   -2.5526    1.0866    1.0869 H   0  0  0  0  0  0  0  0  0  0  0  0
   -2.2818    0.5359    3.9973 H   0  0  0  0  0  0  0  0  0  0  0  0
   -4.4713    1.9181    2.3703 H   0  0  0  0  0  0  0  0  0  0  0  0
   -4.3164    1.9342    4.1410 H   0  0  0  0  0  0  0  0  0  0  0  0
   -3.0831    2.7226    3.1371 H   0  0  0  0  0  0  0  0  0  0  0  0
   -3.3257   -1.9493    3.0395 N   0  0  0  0  0  0  0  0  0  0  0  0
   -4.0659   -3.1983    3.1326 C   0  0  0  0  0  0  0  0  0  0  0  0
   -2.3258   -1.9671    2.8210 H   0  0  0  0  0  0  0  0  0  0  0  0
   -4.4571   -3.3366    4.1456 H   0  0  0  0  0  0  0  0  0  0  0  0
   -4.9021   -3.2005    2.4260 H   0  0  0  0  0  0  0  0  0  0  0  0
   -3.4109   -4.0418    2.8955 H   0  0  0  0  0  0  0  0  0  0  0  0
  1  2  2  0  0  0  0
  1  3  1  0  0  0  0
  1  7  1  0  0  0  0
  3  4  1  0  0  0  0
  3  5  1  0  0  0  0
  3  6  1  0  0  0  0
  7  8  1  0  0  0  0
  7 12  1  0  0  0  0
  8  9  1  0  0  0  0
  8 11  1  0  0  0  0
  8 13  1  0  0  0  0
  9 10  2  0  0  0  0
  9 17  1  0  0  0  0
 11 14  1  0  0  0  0
 11 15  1  0  0  0  0
 11 16  1  0  0  0  0
 17 18  1  0  0  0  0
 17 25  1  0  0  0  0
 18 19  1  0  0  0  0
 18 21  1  0  0  0  0
 18 26  1  0  0  0  0
 19 20  2  0  0  0  0
 19 29  1  0  0  0  0
 21 22  1  0  0  0  0
 21 27  1  0  0  0  0
 21 28  1  0  0  0  0
 22 23  1  0  0  0  0
 22 24  2  0  0  0  0
 29 30  1  0  0  0  0
 29 34  1  0  0  0  0
 30 31  1  0  0  0  0
 30 33  1  0  0  0  0
 30 35  1  0  0  0  0
 31 32  2  0  0  0  0
 31 39  1  0  0  0  0
 33 36  1  0  0  0  0
 33 37  1  0  0  0  0
 33 38  1  0  0  0  0
 39 40  1  0  0  0  0
 39 41  1  0  0  0  0
 40 42  1  0  0  0  0
 40 43  1  0  0  0  0
 40 44  1  0  0  0  0
M  CHG  1  23  -1
M  END
$$$$

  -OEChem-05262215553D

 44 43  0     1  0  0  0  0  0999 V2000
   -4.4300    0.5438   -4.3221 C   0  0  0  0  0  0  0  0  0  0  0  0
   -4.5367   -0.6411   -4.6017 O   0  0  0  0  0  0  0  0  0  0  0  0
   -5.6111    1.4754   -4.5238 C   0  0  0  0  0  0  0  0  0  0  0  0
   -5.3243    2.3080   -5.1709 H   0  0  0  0  0  0  0  0  0  0  0  0
   -6.4427    0.9380   -4.9879 H   0  0  0  0  0  0  0  0  0  0  0  0
   -5.9397    1.8698   -3.5588 H   0  0  0  0  0  0  0  0  0  0  0  0
   -3.2555    1.0511   -3.8090 N   0  0  0  0  0  0  0  0  0  0  0  0
   -2.1801    0.2173   -3.2538 C   0  0  2  0  0  0  0  0  0  0  0  0
   -2.0706    0.3823   -1.7221 C   0  0  0  0  0  0  0  0  0  0  0  0
   -2.7718    1.1964   -1.1227 O   0  0  0  0  0  0  0  0  0  0  0  0
   -0.8737    0.6281   -3.9352 C   0  0  0  0  0  0  0  0  0  0  0  0
   -3.3194    1.9905   -3.4221 H   0  0  0  0  0  0  0  0  0  0  0  0
   -2.3632   -0.8416   -3.4618 H   0  0  0  0  0  0  0  0  0  0  0  0
   -0.6371    1.6742   -3.7142 H   0  0  0  0  0  0  0  0  0  0  0  0
   -0.0435    0.0068   -3.5849 H   0  0  0  0  0  0  0  0  0  0  0  0
   -0.9572    0.5115   -5.0196 H   0  0  0  0  0  0  0  0  0  0  0  0
   -1.3921   -0.5359   -0.9469 N   0  0  0  0  0  0  0  0  0  0  0  0
   -0.4934   -0.1373    0.1574 C   0  0  2  0  0  0  0  0  0  0  0  0
   -1.1958   -0.3904    1.5023 C   0  0  0  0  0  0  0  0  0  0  0  0
   -0.6511   -0.9839    2.4281 O   0  0  0  0  0  0  0  0  0  0  0  0
    0.0992    1.2876    0.0490 C   0  0  0  0  0  0  0  0  0  0  0  0
    1.0971    1.3971   -1.1012 C   0  0  0  0  0  0  0  0  0  0  0  0
    1.7384    0.3697   -1.4386 O   0  5  0  0  0  0  0  0  0  0  0  0
    1.1619    2.4994   -1.6933 O   0  0  0  0  0  0  0  0  0  0  0  0
   -0.9760   -1.2620   -1.5235 H   0  0  0  0  0  0  0  0  0  0  0  0
    0.3511   -0.8353    0.1553 H   0  0  0  0  0  0  0  0  0  0  0  0
    0.6435    1.5084    0.9708 H   0  0  0  0  0  0  0  0  0  0  0  0
   -0.6793    2.0462   -0.0532 H   0  0  0  0  0  0  0  0  0  0  0  0
   -2.5130    0.0038    1.6330 N   0  0  0  0  0  0  0  0  0  0  0  0
   -3.3080   -0.0679    2.8659 C   0  0  2  0  0  0  0  0  0  0  0  0
   -3.8485   -1.4899    3.1631 C   0  0  0  0  0  0  0  0  0  0  0  0
   -5.0213   -1.6906    3.4645 O   0  0  0  0  0  0  0  0  0  0  0  0
   -4.4220    0.9773    2.7307 C   0  0  0  0  0  0  0  0  0  0  0  0
   -2.8968    0.4938    0.8184 H   0  0  0  0  0  0  0  0  0  0  0  0
   -2.6768    0.2178    3.7137 H   0  0  0  0  0  0  0  0  0  0  0  0
   -5.0821    0.7263    1.8943 H   0  0  0  0  0  0  0  0  0  0  0  0
   -5.0197    1.0191    3.6463 H   0  0  0  0  0  0  0  0  0  0  0  0
   -3.9939    1.9686    2.5522 H   0  0  0  0  0  0  0  0  0  0  0  0
   -2.9760   -2.5601    3.1426 N   0  0  0  0  0  0  0  0  0  0  0  0
   -3.3517   -3.9369    3.4238 C   0  0  0  0  0  0  0  0  0  0  0  0
   -1.9997   -2.3340    2.9314 H   0  0  0  0  0  0  0  0  0  0  0  0
   -3.7500   -4.0246    4.4396 H   0  0  0  0  0  0  0  0  0  0  0  0
   -4.1116   -4.2786    2.7136 H   0  0  0  0  0  0  0  0  0  0  0  0
   -2.4774   -4.5889    3.3363 H   0  0  0  0  0  0  0  0  0  0  0  0
  1  2  2  0  0  0  0
  1  3  1  0  0  0  0
  1  7  1  0  0  0  0
  3  4  1  0  0  0  0
  3  5  1  0  0  0  0
  3  6  1  0  0  0  0
  7  8  1  0  0  0  0
  7 12  1  0  0  0  0
  8  9  1  0  0  0  0
  8 11  1  0  0  0  0
  8 13  1  0  0  0  0
  9 10  2  0  0  0  0
  9 17  1  0  0  0  0
 11 14  1  0  0  0  0
 11 15  1  0  0  0  0
 11 16  1  0  0  0  0
 17 18  1  0  0  0  0
 17 25  1  0  0  0  0
 18 19  1  0  0  0  0
 18 21  1  0  0  0  0
 18 26  1  0  0  0  0
 19 20  2  0  0  0  0
 19 29  1  0  0  0  0
 21 22  1  0  0  0  0
 21 27  1  0  0  0  0
 21 28  1  0  0  0  0
 22 23  1  0  0  0  0
 22 24  2  0  0  0  0
 29 30  1  0  0  0  0
 29 34  1  0  0  0  0
 30 31  1  0  0  0  0
 30 33  1  0  0  0  0
 30 35  1  0  0  0  0
 31 32  2  0  0  0  0
 31 39  1  0  0  0  0
 33 36  1  0  0  0  0
 33 37  1  0  0  0  0
 33 38  1  0  0  0  0
 39 40  1  0  0  0  0
 39 41  1  0  0  0  0
 40 42  1  0  0  0  0
 40 43  1  0  0  0  0
 40 44  1  0  0  0  0
M  CHG  1  23  -1
M  END
$$$$

  -OEChem-05262215553D

 44 43  0     1  0  0  0  0  0999 V2000
   -4.3184    0.7945   -4.6125 C   0  0  0  0  0  0  0  0  0  0  0  0
   -4.2824   -0.3043   -5.1459 O   0  0  0  0  0  0  0  0  0  0  0  0
   -5.5363    1.6814   -4.7963 C   0  0  0  0  0  0  0  0  0  0  0  0
   -5.2318    2.6614   -5.1713 H   0  0  0  0  0  0  0  0  0  0  0  0
   -6.2283    1.2295   -5.5121 H   0  0  0  0  0  0  0  0  0  0  0  0
   -6.0498    1.8094   -3.8402 H   0  0  0  0  0  0  0  0  0  0  0  0
   -3.2717    1.2394   -3.8343 N   0  0  0  0  0  0  0  0  0  0  0  0
   -2.1737    0.3860   -3.3582 C   0  0  2  0  0  0  0  0  0  0  0  0
   -2.0997    0.3716   -1.8154 C   0  0  0  0  0  0  0  0  0  0  0  0
   -2.8783    1.0428   -1.1406 O   0  0  0  0  0  0  0  0  0  0  0  0
   -0.8728    0.9178   -3.9622 C   0  0  0  0  0  0  0  0  0  0  0  0
   -3.4552    2.0699   -3.2741 H   0  0  0  0  0  0  0  0  0  0  0  0
   -2.3166   -0.6475   -3.6888 H   0  0  0  0  0  0  0  0  0  0  0  0
   -0.6821    1.9422   -3.6252 H   0  0  0  0  0  0  0  0  0  0  0  0
   -0.0247    0.2936   -3.6639 H   0  0  0  0  0  0  0  0  0  0  0  0
   -0.9332    0.9167   -5.0546 H   0  0  0  0  0  0  0  0  0  0  0  0
   -1.3957   -0.5998   -1.1341 N   0  0  0  0  0  0  0  0  0  0  0  0
   -0.5311   -0.2908    0.0267 C   0  0  2  0  0  0  0  0  0  0  0  0
   -1.2281   -0.7142    1.3334 C   0  0  0  0  0  0  0  0  0  0  0  0
   -0.5980   -1.1072    2.3102 O   0  0  0  0  0  0  0  0  0  0  0  0
   -0.0024    1.1617    0.0788 C   0  0  0  0  0  0  0  0  0  0  0  0
    1.0048    1.4356   -1.0350 C   0  0  0  0  0  0  0  0  0  0  0  0
    1.6962    0.4781   -1.4661 O   0  5  0  0  0  0  0  0  0  0  0  0
    1.0216    2.5935   -1.5133 O   0  0  0  0  0  0  0  0  0  0  0  0
   -0.9296   -1.2275   -1.7840 H   0  0  0  0  0  0  0  0  0  0  0  0
    0.3424   -0.9487   -0.0367 H   0  0  0  0  0  0  0  0  0  0  0  0
    0.5195    1.3088    1.0280 H   0  0  0  0  0  0  0  0  0  0  0  0
   -0.8149    1.8904    0.0428 H   0  0  0  0  0  0  0  0  0  0  0  0
   -2.6088   -0.6839    1.3887 N   0  0  0  0  0  0  0  0  0  0  0  0
   -3.3939   -0.7904    2.6268 C   0  0  2  0  0  0  0  0  0  0  0  0
   -3.5893   -2.2485    3.1155 C   0  0  0  0  0  0  0  0  0  0  0  0
   -4.6864   -2.6753    3.4642 O   0  0  0  0  0  0  0  0  0  0  0  0
   -4.7221   -0.0691    2.3669 C   0  0  0  0  0  0  0  0  0  0  0  0
   -3.0379   -0.2183    0.5837 H   0  0  0  0  0  0  0  0  0  0  0  0
   -2.8714   -0.2552    3.4260 H   0  0  0  0  0  0  0  0  0  0  0  0
   -5.2907   -0.5832    1.5854 H   0  0  0  0  0  0  0  0  0  0  0  0
   -5.3276   -0.0435    3.2781 H   0  0  0  0  0  0  0  0  0  0  0  0
   -4.5395    0.9611    2.0458 H   0  0  0  0  0  0  0  0  0  0  0  0
   -2.4897   -3.0760    3.2276 N   0  0  0  0  0  0  0  0  0  0  0  0
   -2.5261   -4.4300    3.7573 C   0  0  0  0  0  0  0  0  0  0  0  0
   -1.5898   -2.6514    2.9839 H   0  0  0  0  0  0  0  0  0  0  0  0
   -2.8507   -4.4223    4.8028 H   0  0  0  0  0  0  0  0  0  0  0  0
   -3.2159   -5.0498    3.1755 H   0  0  0  0  0  0  0  0  0  0  0  0
   -1.5298   -4.8791    3.7059 H   0  0  0  0  0  0  0  0  0  0  0  0
  1  2  2  0  0  0  0
  1  3  1  0  0  0  0
  1  7  1  0  0  0  0
  3  4  1  0  0  0  0
  3  5  1  0  0  0  0
  3  6  1  0  0  0  0
  7  8  1  0  0  0  0
  7 12  1  0  0  0  0
  8  9  1  0  0  0  0
  8 11  1  0  0  0  0
  8 13  1  0  0  0  0
  9 10  2  0  0  0  0
  9 17  1  0  0  0  0
 11 14  1  0  0  0  0
 11 15  1  0  0  0  0
 11 16  1  0  0  0  0
 17 18  1  0  0  0  0
 17 25  1  0  0  0  0
 18 19  1  0  0  0  0
 18 21  1  0  0  0  0
 18 26  1  0  0  0  0
 19 20  2  0  0  0  0
 19 29  1  0  0  0  0
 21 22  1  0  0  0  0
 21 27  1  0  0  0  0
 21 28  1  0  0  0  0
 22 23  1  0  0  0  0
 22 24  2  0  0  0  0
 29 30  1  0  0  0  0
 29 34  1  0  0  0  0
 30 31  1  0  0  0  0
 30 33  1  0  0  0  0
 30 35  1  0  0  0  0
 31 32  2  0  0  0  0
 31 39  1  0  0  0  0
 33 36  1  0  0  0  0
 33 37  1  0  0  0  0
 33 38  1  0  0  0  0
 39 40  1  0  0  0  0
 39 41  1  0  0  0  0
 40 42  1  0  0  0  0
 40 43  1  0  0  0  0
 40 44  1  0  0  0  0
M  CHG  1  23  -1
M  END
$$$$

  -OEChem-05262215553D

 44 43  0     1  0  0  0  0  0999 V2000
   -4.3863    0.2314   -4.6004 C   0  0  0  0  0  0  0  0  0  0  0  0
   -4.0393   -0.7300   -5.2705 O   0  0  0  0  0  0  0  0  0  0  0  0
   -5.8159    0.7343   -4.6853 C   0  0  0  0  0  0  0  0  0  0  0  0
   -5.8271    1.7618   -5.0565 H   0  0  0  0  0  0  0  0  0  0  0  0
   -6.3991    0.1063   -5.3643 H   0  0  0  0  0  0  0  0  0  0  0  0
   -6.2781    0.7071   -3.6952 H   0  0  0  0  0  0  0  0  0  0  0  0
   -3.4994    0.8656   -3.7587 N   0  0  0  0  0  0  0  0  0  0  0  0
   -2.1837    0.3318   -3.3825 C   0  0  2  0  0  0  0  0  0  0  0  0
   -1.9807    0.3811   -1.8518 C   0  0  0  0  0  0  0  0  0  0  0  0
   -2.8560    0.8415   -1.1232 O   0  0  0  0  0  0  0  0  0  0  0  0
   -1.1129    1.1580   -4.0991 C   0  0  0  0  0  0  0  0  0  0  0  0
   -3.8988    1.5380   -3.1053 H   0  0  0  0  0  0  0  0  0  0  0  0
   -2.0940   -0.7145   -3.6915 H   0  0  0  0  0  0  0  0  0  0  0  0
   -1.1621    2.2056   -3.7842 H   0  0  0  0  0  0  0  0  0  0  0  0
   -0.1127    0.7769   -3.8706 H   0  0  0  0  0  0  0  0  0  0  0  0
   -1.2593    1.1133   -5.1825 H   0  0  0  0  0  0  0  0  0  0  0  0
   -0.9564   -0.3179   -1.2451 N   0  0  0  0  0  0  0  0  0  0  0  0
   -0.1349    0.2407   -0.1473 C   0  0  2  0  0  0  0  0  0  0  0  0
   -0.5362   -0.3634    1.2152 C   0  0  0  0  0  0  0  0  0  0  0  0
    0.2120   -0.3042    2.1858 O   0  0  0  0  0  0  0  0  0  0  0  0
   -0.0483    1.7863   -0.1322 C   0  0  0  0  0  0  0  0  0  0  0  0
    0.7533    2.3194   -1.3181 C   0  0  0  0  0  0  0  0  0  0  0  0
    1.6610    1.5960   -1.8032 O   0  5  0  0  0  0  0  0  0  0  0  0
    0.4075    3.4294   -1.7864 O   0  0  0  0  0  0  0  0  0  0  0  0
   -0.3788   -0.7848   -1.9388 H   0  0  0  0  0  0  0  0  0  0  0  0
    0.8844   -0.1309   -0.2954 H   0  0  0  0  0  0  0  0  0  0  0  0
    0.4758    2.0976    0.7749 H   0  0  0  0  0  0  0  0  0  0  0  0
   -1.0377    2.2475   -0.1046 H   0  0  0  0  0  0  0  0  0  0  0  0
   -1.7307   -1.0483    1.3379 N   0  0  0  0  0  0  0  0  0  0  0  0
   -2.2453   -1.6332    2.5807 C   0  0  2  0  0  0  0  0  0  0  0  0
   -3.0091   -2.9562    2.3598 C   0  0  0  0  0  0  0  0  0  0  0  0
   -3.5945   -3.1915    1.3085 O   0  0  0  0  0  0  0  0  0  0  0  0
   -3.1512   -0.5959    3.2478 C   0  0  0  0  0  0  0  0  0  0  0  0
   -2.3553   -0.9901    0.5317 H   0  0  0  0  0  0  0  0  0  0  0  0
   -1.4093   -1.8567    3.2508 H   0  0  0  0  0  0  0  0  0  0  0  0
   -3.9966   -0.3518    2.5961 H   0  0  0  0  0  0  0  0  0  0  0  0
   -3.5391   -0.9782    4.1965 H   0  0  0  0  0  0  0  0  0  0  0  0
   -2.5893    0.3223    3.4476 H   0  0  0  0  0  0  0  0  0  0  0  0
   -3.0579   -3.8930    3.3776 N   0  0  0  0  0  0  0  0  0  0  0  0
   -3.7135   -5.1873    3.2461 C   0  0  0  0  0  0  0  0  0  0  0  0
   -2.5262   -3.6921    4.2191 H   0  0  0  0  0  0  0  0  0  0  0  0
   -4.7786   -5.0570    3.0278 H   0  0  0  0  0  0  0  0  0  0  0  0
   -3.2556   -5.7681    2.4384 H   0  0  0  0  0  0  0  0  0  0  0  0
   -3.6184   -5.7539    4.1771 H   0  0  0  0  0  0  0  0  0  0  0  0
  1  2  2  0  0  0  0
  1  3  1  0  0  0  0
  1  7  1  0  0  0  0
  3  4  1  0  0  0  0
  3  5  1  0  0  0  0
  3  6  1  0  0  0  0
  7  8  1  0  0  0  0
  7 12  1  0  0  0  0
  8  9  1  0  0  0  0
  8 11  1  0  0  0  0
  8 13  1  0  0  0  0
  9 10  2  0  0  0  0
  9 17  1  0  0  0  0
 11 14  1  0  0  0  0
 11 15  1  0  0  0  0
 11 16  1  0  0  0  0
 17 18  1  0  0  0  0
 17 25  1  0  0  0  0
 18 19  1  0  0  0  0
 18 21  1  0  0  0  0
 18 26  1  0  0  0  0
 19 20  2  0  0  0  0
 19 29  1  0  0  0  0
 21 22  1  0  0  0  0
 21 27  1  0  0  0  0
 21 28  1  0  0  0  0
 22 23  1  0  0  0  0
 22 24  2  0  0  0  0
 29 30  1  0  0  0  0
 29 34  1  0  0  0  0
 30 31  1  0  0  0  0
 30 33  1  0  0  0  0
 30 35  1  0  0  0  0
 31 32  2  0  0  0  0
 31 39  1  0  0  0  0
 33 36  1  0  0  0  0
 33 37  1  0  0  0  0
 33 38  1  0  0  0  0
 39 40  1  0  0  0  0
 39 41  1  0  0  0  0
 40 42  1  0  0  0  0
 40 43  1  0  0  0  0
 40 44  1  0  0  0  0
M  CHG  1  23  -1
M  END
$$$$

  -OEChem-05262215553D

 44 43  0     1  0  0  0  0  0999 V2000
   -4.4337    0.2069   -4.5501 C   0  0  0  0  0  0  0  0  0  0  0  0
   -4.1071   -0.7757   -5.1997 O   0  0  0  0  0  0  0  0  0  0  0  0
   -5.8570    0.7277   -4.6355 C   0  0  0  0  0  0  0  0  0  0  0  0
   -5.8629    1.7160   -5.1020 H   0  0  0  0  0  0  0  0  0  0  0  0
   -6.4730    0.0493   -5.2325 H   0  0  0  0  0  0  0  0  0  0  0  0
   -6.2867    0.8034   -3.6333 H   0  0  0  0  0  0  0  0  0  0  0  0
   -3.5283    0.8535   -3.7381 N   0  0  0  0  0  0  0  0  0  0  0  0
   -2.2107    0.3177   -3.3713 C   0  0  2  0  0  0  0  0  0  0  0  0
   -1.9944    0.3560   -1.8424 C   0  0  0  0  0  0  0  0  0  0  0  0
   -2.8797    0.7736   -1.1016 O   0  0  0  0  0  0  0  0  0  0  0  0
   -1.1475    1.1494   -4.0922 C   0  0  0  0  0  0  0  0  0  0  0  0
   -3.9124    1.5454   -3.0959 H   0  0  0  0  0  0  0  0  0  0  0  0
   -2.1210   -0.7266   -3.6866 H   0  0  0  0  0  0  0  0  0  0  0  0
   -1.2038    2.1978   -3.7797 H   0  0  0  0  0  0  0  0  0  0  0  0
   -0.1439    0.7766   -3.8649 H   0  0  0  0  0  0  0  0  0  0  0  0
   -1.2969    1.1001   -5.1750 H   0  0  0  0  0  0  0  0  0  0  0  0
   -0.9211   -0.2943   -1.2646 N   0  0  0  0  0  0  0  0  0  0  0  0
   -0.1189    0.2855   -0.1628 C   0  0  2  0  0  0  0  0  0  0  0  0
   -0.4611   -0.3729    1.1928 C   0  0  0  0  0  0  0  0  0  0  0  0
    0.1539   -0.0940    2.2174 O   0  0  0  0  0  0  0  0  0  0  0  0
   -0.1108    1.8347   -0.1268 C   0  0  0  0  0  0  0  0  0  0  0  0
    0.6533    2.4239   -1.3113 C   0  0  0  0  0  0  0  0  0  0  0  0
    1.5929    1.7543   -1.8135 O   0  5  0  0  0  0  0  0  0  0  0  0
    0.2484    3.5216   -1.7613 O   0  0  0  0  0  0  0  0  0  0  0  0
   -0.3264   -0.7079   -1.9777 H   0  0  0  0  0  0  0  0  0  0  0  0
    0.9163   -0.0286   -0.3304 H   0  0  0  0  0  0  0  0  0  0  0  0
    0.4039    2.1638    0.7795 H   0  0  0  0  0  0  0  0  0  0  0  0
   -1.1220    2.2443   -0.0858 H   0  0  0  0  0  0  0  0  0  0  0  0
   -1.4168   -1.3701    1.2558 N   0  0  0  0  0  0  0  0  0  0  0  0
   -1.8689   -2.0264    2.4870 C   0  0  2  0  0  0  0  0  0  0  0  0
   -2.3669   -3.4681    2.2525 C   0  0  0  0  0  0  0  0  0  0  0  0
   -2.7567   -3.8377    1.1499 O   0  0  0  0  0  0  0  0  0  0  0  0
   -2.9812   -1.1702    3.0995 C   0  0  0  0  0  0  0  0  0  0  0  0
   -1.9572   -1.5194    0.4044 H   0  0  0  0  0  0  0  0  0  0  0  0
   -1.0338   -2.0856    3.1921 H   0  0  0  0  0  0  0  0  0  0  0  0
   -3.8253   -1.0886    2.4070 H   0  0  0  0  0  0  0  0  0  0  0  0
   -3.3368   -1.6125    4.0347 H   0  0  0  0  0  0  0  0  0  0  0  0
   -2.6089   -0.1631    3.3135 H   0  0  0  0  0  0  0  0  0  0  0  0
   -2.3912   -4.3639    3.3071 N   0  0  0  0  0  0  0  0  0  0  0  0
   -2.8253   -5.7478    3.1739 C   0  0  0  0  0  0  0  0  0  0  0  0
   -2.0345   -4.0411    4.2013 H   0  0  0  0  0  0  0  0  0  0  0  0
   -3.8652   -5.7915    2.8343 H   0  0  0  0  0  0  0  0  0  0  0  0
   -2.1948   -6.2776    2.4524 H   0  0  0  0  0  0  0  0  0  0  0  0
   -2.7548   -6.2599    4.1383 H   0  0  0  0  0  0  0  0  0  0  0  0
  1  2  2  0  0  0  0
  1  3  1  0  0  0  0
  1  7  1  0  0  0  0
  3  4  1  0  0  0  0
  3  5  1  0  0  0  0
  3  6  1  0  0  0  0
  7  8  1  0  0  0  0
  7 12  1  0  0  0  0
  8  9  1  0  0  0  0
  8 11  1  0  0  0  0
  8 13  1  0  0  0  0
  9 10  2  0  0  0  0
  9 17  1  0  0  0  0
 11 14  1  0  0  0  0
 11 15  1  0  0  0  0
 11 16  1  0  0  0  0
 17 18  1  0  0  0  0
 17 25  1  0  0  0  0
 18 19  1  0  0  0  0
 18 21  1  0  0  0  0
 18 26  1  0  0  0  0
 19 20  2  0  0  0  0
 19 29  1  0  0  0  0
 21 22  1  0  0  0  0
 21 27  1  0  0  0  0
 21 28  1  0  0  0  0
 22 23  1  0  0  0  0
 22 24  2  0  0  0  0
 29 30  1  0  0  0  0
 29 34  1  0  0  0  0
 30 31  1  0  0  0  0
 30 33  1  0  0  0  0
 30 35  1  0  0  0  0
 31 32  2  0  0  0  0
 31 39  1  0  0  0  0
 33 36  1  0  0  0  0
 33 37  1  0  0  0  0
 33 38  1  0  0  0  0
 39 40  1  0  0  0  0
 39 41  1  0  0  0  0
 40 42  1  0  0  0  0
 40 43  1  0  0  0  0
 40 44  1  0  0  0  0
M  CHG  1  23  -1
M  END
$$$$

  -OEChem-05262215553D

 44 43  0     1  0  0  0  0  0999 V2000
   -4.4873    0.1471   -4.4535 C   0  0  0  0  0  0  0  0  0  0  0  0
   -4.2038   -0.8810   -5.0510 O   0  0  0  0  0  0  0  0  0  0  0  0
   -5.9036    0.6893   -4.5167 C   0  0  0  0  0  0  0  0  0  0  0  0
   -5.9094    1.6553   -5.0273 H   0  0  0  0  0  0  0  0  0  0  0  0
   -6.5507   -0.0029   -5.0622 H   0  0  0  0  0  0  0  0  0  0  0  0
   -6.2978    0.8185   -3.5056 H   0  0  0  0  0  0  0  0  0  0  0  0
   -3.5412    0.8256   -3.7173 N   0  0  0  0  0  0  0  0  0  0  0  0
   -2.2298    0.2767   -3.3471 C   0  0  2  0  0  0  0  0  0  0  0  0
   -2.0062    0.3343   -1.8194 C   0  0  0  0  0  0  0  0  0  0  0  0
   -2.8912    0.7550   -1.0803 O   0  0  0  0  0  0  0  0  0  0  0  0
   -1.1597    1.0832   -4.0868 C   0  0  0  0  0  0  0  0  0  0  0  0
   -3.8949    1.5572   -3.1022 H   0  0  0  0  0  0  0  0  0  0  0  0
   -2.1522   -0.7731   -3.6475 H   0  0  0  0  0  0  0  0  0  0  0  0
   -1.2108    2.1402   -3.8044 H   0  0  0  0  0  0  0  0  0  0  0  0
   -0.1582    0.7117   -3.8480 H   0  0  0  0  0  0  0  0  0  0  0  0
   -1.3068    1.0046   -5.1680 H   0  0  0  0  0  0  0  0  0  0  0  0
   -0.9091   -0.2811   -1.2469 N   0  0  0  0  0  0  0  0  0  0  0  0
   -0.1162    0.3253   -0.1528 C   0  0  2  0  0  0  0  0  0  0  0  0
   -0.4290   -0.3410    1.2077 C   0  0  0  0  0  0  0  0  0  0  0  0
   -0.0029    0.1063    2.2678 O   0  0  0  0  0  0  0  0  0  0  0  0
   -0.1378    1.8762   -0.1399 C   0  0  0  0  0  0  0  0  0  0  0  0
    0.6144    2.4607   -1.3344 C   0  0  0  0  0  0  0  0  0  0  0  0
    1.5658    1.7998   -1.8259 O   0  5  0  0  0  0  0  0  0  0  0  0
    0.1870    3.5409   -1.8057 O   0  0  0  0  0  0  0  0  0  0  0  0
   -0.3076   -0.6773   -1.9642 H   0  0  0  0  0  0  0  0  0  0  0  0
    0.9243    0.0321   -0.3239 H   0  0  0  0  0  0  0  0  0  0  0  0
    0.3738    2.2301    0.7585 H   0  0  0  0  0  0  0  0  0  0  0  0
   -1.1556    2.2685   -0.1017 H   0  0  0  0  0  0  0  0  0  0  0  0
   -1.1022   -1.5485    1.2404 N   0  0  0  0  0  0  0  0  0  0  0  0
   -1.4874   -2.2670    2.4593 C   0  0  2  0  0  0  0  0  0  0  0  0
   -1.6574   -3.7834    2.2291 C   0  0  0  0  0  0  0  0  0  0  0  0
   -1.8427   -4.2394    1.1056 O   0  0  0  0  0  0  0  0  0  0  0  0
   -2.7935   -1.6598    2.9804 C   0  0  0  0  0  0  0  0  0  0  0  0
   -1.4895   -1.8684    0.3545 H   0  0  0  0  0  0  0  0  0  0  0  0
   -0.7053   -2.1397    3.2145 H   0  0  0  0  0  0  0  0  0  0  0  0
   -3.5878   -1.7654    2.2344 H   0  0  0  0  0  0  0  0  0  0  0  0
   -3.1091   -2.1582    3.9016 H   0  0  0  0  0  0  0  0  0  0  0  0
   -2.6572   -0.5947    3.1937 H   0  0  0  0  0  0  0  0  0  0  0  0
   -1.6111   -4.6508    3.3062 N   0  0  0  0  0  0  0  0  0  0  0  0
   -1.7399   -6.0963    3.1797 C   0  0  0  0  0  0  0  0  0  0  0  0
   -1.4298   -4.2485    4.2208 H   0  0  0  0  0  0  0  0  0  0  0  0
   -2.7028   -6.3570    2.7284 H   0  0  0  0  0  0  0  0  0  0  0  0
   -0.9360   -6.4996    2.5550 H   0  0  0  0  0  0  0  0  0  0  0  0
   -1.6816   -6.5671    4.1655 H   0  0  0  0  0  0  0  0  0  0  0  0
  1  2  2  0  0  0  0
  1  3  1  0  0  0  0
  1  7  1  0  0  0  0
  3  4  1  0  0  0  0
  3  5  1  0  0  0  0
  3  6  1  0  0  0  0
  7  8  1  0  0  0  0
  7 12  1  0  0  0  0
  8  9  1  0  0  0  0
  8 11  1  0  0  0  0
  8 13  1  0  0  0  0
  9 10  2  0  0  0  0
  9 17  1  0  0  0  0
 11 14  1  0  0  0  0
 11 15  1  0  0  0  0
 11 16  1  0  0  0  0
 17 18  1  0  0  0  0
 17 25  1  0  0  0  0
 18 19  1  0  0  0  0
 18 21  1  0  0  0  0
 18 26  1  0  0  0  0
 19 20  2  0  0  0  0
 19 29  1  0  0  0  0
 21 22  1  0  0  0  0
 21 27  1  0  0  0  0
 21 28  1  0  0  0  0
 22 23  1  0  0  0  0
 22 24  2  0  0  0  0
 29 30  1  0  0  0  0
 29 34  1  0  0  0  0
 30 31  1  0  0  0  0
 30 33  1  0  0  0  0
 30 35  1  0  0  0  0
 31 32  2  0  0  0  0
 31 39  1  0  0  0  0
 33 36  1  0  0  0  0
 33 37  1  0  0  0  0
 33 38  1  0  0  0  0
 39 40  1  0  0  0  0
 39 41  1  0  0  0  0
 40 42  1  0  0  0  0
 40 43  1  0  0  0  0
 40 44  1  0  0  0  0
M  CHG  1  23  -1
M  END
$$$$

  -OEChem-05262215553D

 44 43  0     1  0  0  0  0  0999 V2000
   -4.5231    0.0855   -4.3767 C   0  0  0  0  0  0  0  0  0  0  0  0
   -4.2540   -0.9618   -4.9467 O   0  0  0  0  0  0  0  0  0  0  0  0
   -5.9370    0.6348   -4.4382 C   0  0  0  0  0  0  0  0  0  0  0  0
   -5.9400    1.5942   -4.9618 H   0  0  0  0  0  0  0  0  0  0  0  0
   -6.5916   -0.0612   -4.9702 H   0  0  0  0  0  0  0  0  0  0  0  0
   -6.3246    0.7793   -3.4264 H   0  0  0  0  0  0  0  0  0  0  0  0
   -3.5618    0.7828   -3.6785 N   0  0  0  0  0  0  0  0  0  0  0  0
   -2.2452    0.2422   -3.3132 C   0  0  2  0  0  0  0  0  0  0  0  0
   -2.0106    0.3184   -1.7875 C   0  0  0  0  0  0  0  0  0  0  0  0
   -2.8902    0.7549   -1.0511 O   0  0  0  0  0  0  0  0  0  0  0  0
   -1.1843    1.0453   -4.0704 C   0  0  0  0  0  0  0  0  0  0  0  0
   -3.9045    1.5306   -3.0771 H   0  0  0  0  0  0  0  0  0  0  0  0
   -2.1662   -0.8105   -3.6028 H   0  0  0  0  0  0  0  0  0  0  0  0
   -1.2287    2.1024   -3.7877 H   0  0  0  0  0  0  0  0  0  0  0  0
   -0.1804    0.6718   -3.8461 H   0  0  0  0  0  0  0  0  0  0  0  0
   -1.3476    0.9669   -5.1493 H   0  0  0  0  0  0  0  0  0  0  0  0
   -0.9072   -0.2868   -1.2150 N   0  0  0  0  0  0  0  0  0  0  0  0
   -0.1113    0.3367   -0.1336 C   0  0  2  0  0  0  0  0  0  0  0  0
   -0.4190   -0.3194    1.2329 C   0  0  0  0  0  0  0  0  0  0  0  0
   -0.2167    0.2489    2.3015 O   0  0  0  0  0  0  0  0  0  0  0  0
   -0.1238    1.8881   -0.1524 C   0  0  0  0  0  0  0  0  0  0  0  0
    0.6325    2.4422   -1.3593 C   0  0  0  0  0  0  0  0  0  0  0  0
    1.5799    1.7641   -1.8360 O   0  5  0  0  0  0  0  0  0  0  0  0
    0.2161    3.5171   -1.8520 O   0  0  0  0  0  0  0  0  0  0  0  0
   -0.3078   -0.6835   -1.9336 H   0  0  0  0  0  0  0  0  0  0  0  0
    0.9284    0.0386   -0.3009 H   0  0  0  0  0  0  0  0  0  0  0  0
    0.3899    2.2585    0.7378 H   0  0  0  0  0  0  0  0  0  0  0  0
   -1.1396    2.2867   -0.1227 H   0  0  0  0  0  0  0  0  0  0  0  0
   -0.7972   -1.6493    1.2739 N   0  0  0  0  0  0  0  0  0  0  0  0
   -1.1123   -2.4004    2.4934 C   0  0  2  0  0  0  0  0  0  0  0  0
   -0.9263   -3.9219    2.3155 C   0  0  0  0  0  0  0  0  0  0  0  0
   -0.9020   -4.4315    1.1998 O   0  0  0  0  0  0  0  0  0  0  0  0
   -2.5575   -2.0847    2.8940 C   0  0  0  0  0  0  0  0  0  0  0  0
   -0.9806   -2.0969    0.3784 H   0  0  0  0  0  0  0  0  0  0  0  0
   -0.4384   -2.0828    3.2959 H   0  0  0  0  0  0  0  0  0  0  0  0
   -3.2479   -2.3830    2.0986 H   0  0  0  0  0  0  0  0  0  0  0  0
   -2.8284   -2.6167    3.8106 H   0  0  0  0  0  0  0  0  0  0  0  0
   -2.6764   -1.0109    3.0713 H   0  0  0  0  0  0  0  0  0  0  0  0
   -0.7895   -4.7320    3.4290 N   0  0  0  0  0  0  0  0  0  0  0  0
   -0.5799   -6.1715    3.3543 C   0  0  0  0  0  0  0  0  0  0  0  0
   -0.7860   -4.2780    4.3376 H   0  0  0  0  0  0  0  0  0  0  0  0
   -1.4224   -6.6563    2.8502 H   0  0  0  0  0  0  0  0  0  0  0  0
    0.3389   -6.3954    2.8026 H   0  0  0  0  0  0  0  0  0  0  0  0
   -0.4905   -6.5915    4.3604 H   0  0  0  0  0  0  0  0  0  0  0  0
  1  2  2  0  0  0  0
  1  3  1  0  0  0  0
  1  7  1  0  0  0  0
  3  4  1  0  0  0  0
  3  5  1  0  0  0  0
  3  6  1  0  0  0  0
  7  8  1  0  0  0  0
  7 12  1  0  0  0  0
  8  9  1  0  0  0  0
  8 11  1  0  0  0  0
  8 13  1  0  0  0  0
  9 10  2  0  0  0  0
  9 17  1  0  0  0  0
 11 14  1  0  0  0  0
 11 15  1  0  0  0  0
 11 16  1  0  0  0  0
 17 18  1  0  0  0  0
 17 25  1  0  0  0  0
 18 19  1  0  0  0  0
 18 21  1  0  0  0  0
 18 26  1  0  0  0  0
 19 20  2  0  0  0  0
 19 29  1  0  0  0  0
 21 22  1  0  0  0  0
 21 27  1  0  0  0  0
 21 28  1  0  0  0  0
 22 23  1  0  0  0  0
 22 24  2  0  0  0  0
 29 30  1  0  0  0  0
 29 34  1  0  0  0  0
 30 31  1  0  0  0  0
 30 33  1  0  0  0  0
 30 35  1  0  0  0  0
 31 32  2  0  0  0  0
 31 39  1  0  0  0  0
 33 36  1  0  0  0  0
 33 37  1  0  0  0  0
 33 38  1  0  0  0  0
 39 40  1  0  0  0  0
 39 41  1  0  0  0  0
 40 42  1  0  0  0  0
 40 43  1  0  0  0  0
 40 44  1  0  0  0  0
M  CHG  1  23  -1
M  END
$$$$

  -OEChem-05262215553D

 44 43  0     1  0  0  0  0  0999 V2000
   -4.5438    0.0308   -4.3253 C   0  0  0  0  0  0  0  0  0  0  0  0
   -4.2840   -1.0405   -4.8541 O   0  0  0  0  0  0  0  0  0  0  0  0
   -5.9578    0.5796   -4.3916 C   0  0  0  0  0  0  0  0  0  0  0  0
   -5.9637    1.5275   -4.9353 H   0  0  0  0  0  0  0  0  0  0  0  0
   -6.6144   -0.1275   -4.9059 H   0  0  0  0  0  0  0  0  0  0  0  0
   -6.3405    0.7450   -3.3813 H   0  0  0  0  0  0  0  0  0  0  0  0
   -3.5720    0.7553   -3.6701 N   0  0  0  0  0  0  0  0  0  0  0  0
   -2.2544    0.2238   -3.2948 C   0  0  2  0  0  0  0  0  0  0  0  0
   -2.0207    0.3136   -1.7696 C   0  0  0  0  0  0  0  0  0  0  0  0
   -2.8910    0.7803   -1.0413 O   0  0  0  0  0  0  0  0  0  0  0  0
   -1.1956    1.0275   -4.0542 C   0  0  0  0  0  0  0  0  0  0  0  0
   -3.9067    1.5264   -3.0943 H   0  0  0  0  0  0  0  0  0  0  0  0
   -2.1694   -0.8302   -3.5770 H   0  0  0  0  0  0  0  0  0  0  0  0
   -1.2467    2.0862   -3.7781 H   0  0  0  0  0  0  0  0  0  0  0  0
   -0.1900    0.6615   -3.8246 H   0  0  0  0  0  0  0  0  0  0  0  0
   -1.3552    0.9409   -5.1330 H   0  0  0  0  0  0  0  0  0  0  0  0
   -0.9201   -0.2959   -1.1956 N   0  0  0  0  0  0  0  0  0  0  0  0
   -0.1156    0.3263   -0.1211 C   0  0  2  0  0  0  0  0  0  0  0  0
   -0.4223   -0.3179    1.2511 C   0  0  0  0  0  0  0  0  0  0  0  0
   -0.4572    0.3241    2.2962 O   0  0  0  0  0  0  0  0  0  0  0  0
   -0.1028    1.8776   -0.1552 C   0  0  0  0  0  0  0  0  0  0  0  0
    0.6633    2.4085   -1.3664 C   0  0  0  0  0  0  0  0  0  0  0  0
    1.6001    1.7104   -1.8350 O   0  5  0  0  0  0  0  0  0  0  0  0
    0.2698    3.4882   -1.8669 O   0  0  0  0  0  0  0  0  0  0  0  0
   -0.3283   -0.7037   -1.9140 H   0  0  0  0  0  0  0  0  0  0  0  0
    0.9194    0.0146   -0.2908 H   0  0  0  0  0  0  0  0  0  0  0  0
    0.4157    2.2470    0.7331 H   0  0  0  0  0  0  0  0  0  0  0  0
   -1.1122    2.2925   -0.1303 H   0  0  0  0  0  0  0  0  0  0  0  0
   -0.5030   -1.6962    1.3446 N   0  0  0  0  0  0  0  0  0  0  0  0
   -0.7348   -2.4441    2.5853 C   0  0  2  0  0  0  0  0  0  0  0  0
   -0.2056   -3.8914    2.5088 C   0  0  0  0  0  0  0  0  0  0  0  0
    0.0082   -4.4295    1.4272 O   0  0  0  0  0  0  0  0  0  0  0  0
   -2.2390   -2.4463    2.8775 C   0  0  0  0  0  0  0  0  0  0  0  0
   -0.4617   -2.2216    0.4744 H   0  0  0  0  0  0  0  0  0  0  0  0
   -0.2088   -1.9483    3.4077 H   0  0  0  0  0  0  0  0  0  0  0  0
   -2.7850   -2.9355    2.0647 H   0  0  0  0  0  0  0  0  0  0  0  0
   -2.4483   -2.9782    3.8101 H   0  0  0  0  0  0  0  0  0  0  0  0
   -2.6084   -1.4205    2.9757 H   0  0  0  0  0  0  0  0  0  0  0  0
    0.0228   -4.6037    3.6729 N   0  0  0  0  0  0  0  0  0  0  0  0
    0.5377   -5.9663    3.6938 C   0  0  0  0  0  0  0  0  0  0  0  0
   -0.1419   -4.1240    4.5530 H   0  0  0  0  0  0  0  0  0  0  0  0
   -0.1433   -6.6414    3.1650 H   0  0  0  0  0  0  0  0  0  0  0  0
    1.5225   -6.0118    3.2170 H   0  0  0  0  0  0  0  0  0  0  0  0
    0.6379   -6.3147    4.7261 H   0  0  0  0  0  0  0  0  0  0  0  0
  1  2  2  0  0  0  0
  1  3  1  0  0  0  0
  1  7  1  0  0  0  0
  3  4  1  0  0  0  0
  3  5  1  0  0  0  0
  3  6  1  0  0  0  0
  7  8  1  0  0  0  0
  7 12  1  0  0  0  0
  8  9  1  0  0  0  0
  8 11  1  0  0  0  0
  8 13  1  0  0  0  0
  9 10  2  0  0  0  0
  9 17  1  0  0  0  0
 11 14  1  0  0  0  0
 11 15  1  0  0  0  0
 11 16  1  0  0  0  0
 17 18  1  0  0  0  0
 17 25  1  0  0  0  0
 18 19  1  0  0  0  0
 18 21  1  0  0  0  0
 18 26  1  0  0  0  0
 19 20  2  0  0  0  0
 19 29  1  0  0  0  0
 21 22  1  0  0  0  0
 21 27  1  0  0  0  0
 21 28  1  0  0  0  0
 22 23  1  0  0  0  0
 22 24  2  0  0  0  0
 29 30  1  0  0  0  0
 29 34  1  0  0  0  0
 30 31  1  0  0  0  0
 30 33  1  0  0  0  0
 30 35  1  0  0  0  0
 31 32  2  0  0  0  0
 31 39  1  0  0  0  0
 33 36  1  0  0  0  0
 33 37  1  0  0  0  0
 33 38  1  0  0  0  0
 39 40  1  0  0  0  0
 39 41  1  0  0  0  0
 40 42  1  0  0  0  0
 40 43  1  0  0  0  0
 40 44  1  0  0  0  0
M  CHG  1  23  -1
M  END
$$$$

  -OEChem-05262215553D

 44 43  0     1  0  0  0  0  0999 V2000
   -4.5482   -0.0082   -4.2995 C   0  0  0  0  0  0  0  0  0  0  0  0
   -4.2932   -1.0878   -4.8137 O   0  0  0  0  0  0  0  0  0  0  0  0
   -5.9597    0.5466   -4.3719 C   0  0  0  0  0  0  0  0  0  0  0  0
   -5.9569    1.5040   -4.8986 H   0  0  0  0  0  0  0  0  0  0  0  0
   -6.6132   -0.1486   -4.9058 H   0  0  0  0  0  0  0  0  0  0  0  0
   -6.3525    0.6960   -3.3630 H   0  0  0  0  0  0  0  0  0  0  0  0
   -3.5739    0.7194   -3.6515 N   0  0  0  0  0  0  0  0  0  0  0  0
   -2.2599    0.1861   -3.2668 C   0  0  2  0  0  0  0  0  0  0  0  0
   -2.0239    0.3068   -1.7443 C   0  0  0  0  0  0  0  0  0  0  0  0
   -2.8869    0.8054   -1.0291 O   0  0  0  0  0  0  0  0  0  0  0  0
   -1.1959    0.9665   -4.0425 C   0  0  0  0  0  0  0  0  0  0  0  0
   -3.9062    1.4979   -3.0839 H   0  0  0  0  0  0  0  0  0  0  0  0
   -2.1828   -0.8743   -3.5266 H   0  0  0  0  0  0  0  0  0  0  0  0
   -1.2409    2.0315   -3.7904 H   0  0  0  0  0  0  0  0  0  0  0  0
   -0.1927    0.6001   -3.8034 H   0  0  0  0  0  0  0  0  0  0  0  0
   -1.3554    0.8565   -5.1191 H   0  0  0  0  0  0  0  0  0  0  0  0
   -0.9290   -0.3059   -1.1626 N   0  0  0  0  0  0  0  0  0  0  0  0
   -0.1159    0.3142   -0.0950 C   0  0  2  0  0  0  0  0  0  0  0  0
   -0.4297   -0.3167    1.2810 C   0  0  0  0  0  0  0  0  0  0  0  0
   -0.7159    0.3460    2.2729 O   0  0  0  0  0  0  0  0  0  0  0  0
   -0.0842    1.8643   -0.1393 C   0  0  0  0  0  0  0  0  0  0  0  0
    0.6865    2.3774   -1.3555 C   0  0  0  0  0  0  0  0  0  0  0  0
    1.6137    1.6630   -1.8194 O   0  5  0  0  0  0  0  0  0  0  0  0
    0.3075    3.4586   -1.8636 O   0  0  0  0  0  0  0  0  0  0  0  0
   -0.3465   -0.7382   -1.8733 H   0  0  0  0  0  0  0  0  0  0  0  0
    0.9161   -0.0077   -0.2639 H   0  0  0  0  0  0  0  0  0  0  0  0
    0.4390    2.2306    0.7475 H   0  0  0  0  0  0  0  0  0  0  0  0
   -1.0887    2.2912   -0.1165 H   0  0  0  0  0  0  0  0  0  0  0  0
   -0.2210   -1.6737    1.4577 N   0  0  0  0  0  0  0  0  0  0  0  0
   -0.3886   -2.3941    2.7247 C   0  0  2  0  0  0  0  0  0  0  0  0
    0.4490   -3.6888    2.7768 C   0  0  0  0  0  0  0  0  0  0  0  0
    0.8589   -4.2148    1.7469 O   0  0  0  0  0  0  0  0  0  0  0  0
   -1.8748   -2.7183    2.9073 C   0  0  0  0  0  0  0  0  0  0  0  0
    0.0725   -2.2110    0.6450 H   0  0  0  0  0  0  0  0  0  0  0  0
   -0.0542   -1.7557    3.5488 H   0  0  0  0  0  0  0  0  0  0  0  0
   -2.2310   -3.3492    2.0867 H   0  0  0  0  0  0  0  0  0  0  0  0
   -2.0400   -3.2454    3.8514 H   0  0  0  0  0  0  0  0  0  0  0  0
   -2.4659   -1.7968    2.9190 H   0  0  0  0  0  0  0  0  0  0  0  0
    0.7398   -4.2748    3.9960 N   0  0  0  0  0  0  0  0  0  0  0  0
    1.5563   -5.4733    4.1354 C   0  0  0  0  0  0  0  0  0  0  0  0
    0.4150   -3.7979    4.8320 H   0  0  0  0  0  0  0  0  0  0  0  0
    1.1029   -6.3108    3.5952 H   0  0  0  0  0  0  0  0  0  0  0  0
    2.5619   -5.2995    3.7387 H   0  0  0  0  0  0  0  0  0  0  0  0
    1.6431   -5.7493    5.1905 H   0  0  0  0  0  0  0  0  0  0  0  0
  1  2  2  0  0  0  0
  1  3  1  0  0  0  0
  1  7  1  0  0  0  0
  3  4  1  0  0  0  0
  3  5  1  0  0  0  0
  3  6  1  0  0  0  0
  7  8  1  0  0  0  0
  7 12  1  0  0  0  0
  8  9  1  0  0  0  0
  8 11  1  0  0  0  0
  8 13  1  0  0  0  0
  9 10  2  0  0  0  0
  9 17  1  0  0  0  0
 11 14  1  0  0  0  0
 11 15  1  0  0  0  0
 11 16  1  0  0  0  0
 17 18  1  0  0  0  0
 17 25  1  0  0  0  0
 18 19  1  0  0  0  0
 18 21  1  0  0  0  0
 18 26  1  0  0  0  0
 19 20  2  0  0  0  0
 19 29  1  0  0  0  0
 21 22  1  0  0  0  0
 21 27  1  0  0  0  0
 21 28  1  0  0  0  0
 22 23  1  0  0  0  0
 22 24  2  0  0  0  0
 29 30  1  0  0  0  0
 29 34  1  0  0  0  0
 30 31  1  0  0  0  0
 30 33  1  0  0  0  0
 30 35  1  0  0  0  0
 31 32  2  0  0  0  0
 31 39  1  0  0  0  0
 33 36  1  0  0  0  0
 33 37  1  0  0  0  0
 33 38  1  0  0  0  0
 39 40  1  0  0  0  0
 39 41  1  0  0  0  0
 40 42  1  0  0  0  0
 40 43  1  0  0  0  0
 40 44  1  0  0  0  0
M  CHG  1  23  -1
M  END
$$$$

  -OEChem-05262215553D

 44 43  0     1  0  0  0  0  0999 V2000
   -4.5408   -0.0174   -4.2962 C   0  0  0  0  0  0  0  0  0  0  0  0
   -4.2838   -1.0872   -4.8292 O   0  0  0  0  0  0  0  0  0  0  0  0
   -5.9529    0.5348   -4.3572 C   0  0  0  0  0  0  0  0  0  0  0  0
   -5.9510    1.5032   -4.8631 H   0  0  0  0  0  0  0  0  0  0  0  0
   -6.6048   -0.1505   -4.9056 H   0  0  0  0  0  0  0  0  0  0  0  0
   -6.3458    0.6618   -3.3453 H   0  0  0  0  0  0  0  0  0  0  0  0
   -3.5689    0.6983   -3.6329 N   0  0  0  0  0  0  0  0  0  0  0  0
   -2.2628    0.1513   -3.2424 C   0  0  2  0  0  0  0  0  0  0  0  0
   -2.0284    0.2886   -1.7217 C   0  0  0  0  0  0  0  0  0  0  0  0
   -2.8872    0.8098   -1.0181 O   0  0  0  0  0  0  0  0  0  0  0  0
   -1.1853    0.9052   -4.0256 C   0  0  0  0  0  0  0  0  0  0  0  0
   -3.9027    1.4677   -3.0535 H   0  0  0  0  0  0  0  0  0  0  0  0
   -2.2013   -0.9136   -3.4875 H   0  0  0  0  0  0  0  0  0  0  0  0
   -1.2112    1.9730   -3.7830 H   0  0  0  0  0  0  0  0  0  0  0  0
   -0.1895    0.5229   -3.7814 H   0  0  0  0  0  0  0  0  0  0  0  0
   -1.3457    0.7874   -5.1013 H   0  0  0  0  0  0  0  0  0  0  0  0
   -0.9363   -0.3235   -1.1347 N   0  0  0  0  0  0  0  0  0  0  0  0
   -0.1181    0.2954   -0.0711 C   0  0  2  0  0  0  0  0  0  0  0  0
   -0.4305   -0.3246    1.3095 C   0  0  0  0  0  0  0  0  0  0  0  0
   -0.9701    0.2978    2.2183 O   0  0  0  0  0  0  0  0  0  0  0  0
   -0.0786    1.8446   -0.1170 C   0  0  0  0  0  0  0  0  0  0  0  0
    0.6924    2.3530   -1.3357 C   0  0  0  0  0  0  0  0  0  0  0  0
    1.6149    1.6328   -1.7999 O   0  5  0  0  0  0  0  0  0  0  0  0
    0.3250    3.4397   -1.8402 O   0  0  0  0  0  0  0  0  0  0  0  0
   -0.3609   -0.7761   -1.8382 H   0  0  0  0  0  0  0  0  0  0  0  0
    0.9118   -0.0290   -0.2459 H   0  0  0  0  0  0  0  0  0  0  0  0
    0.4447    2.2082    0.7710 H   0  0  0  0  0  0  0  0  0  0  0  0
   -1.0814    2.2761   -0.0952 H   0  0  0  0  0  0  0  0  0  0  0  0
    0.0547   -1.5887    1.5987 N   0  0  0  0  0  0  0  0  0  0  0  0
   -0.0753   -2.2641    2.8947 C   0  0  2  0  0  0  0  0  0  0  0  0
    1.0256   -3.3240    3.1083 C   0  0  0  0  0  0  0  0  0  0  0  0
    1.6357   -3.7950    2.1537 O   0  0  0  0  0  0  0  0  0  0  0  0
   -1.4595   -2.9172    2.9670 C   0  0  0  0  0  0  0  0  0  0  0  0
    0.5841   -2.0663    0.8722 H   0  0  0  0  0  0  0  0  0  0  0  0
    0.0176   -1.5263    3.6986 H   0  0  0  0  0  0  0  0  0  0  0  0
   -1.5732   -3.6609    2.1720 H   0  0  0  0  0  0  0  0  0  0  0  0
   -1.6002   -3.4122    3.9322 H   0  0  0  0  0  0  0  0  0  0  0  0
   -2.2428   -2.1615    2.8503 H   0  0  0  0  0  0  0  0  0  0  0  0
    1.3279   -3.7637    4.3848 N   0  0  0  0  0  0  0  0  0  0  0  0
    2.3787   -4.7311    4.6723 C   0  0  0  0  0  0  0  0  0  0  0  0
    0.8368   -3.3242    5.1575 H   0  0  0  0  0  0  0  0  0  0  0  0
    2.1949   -5.6680    4.1361 H   0  0  0  0  0  0  0  0  0  0  0  0
    3.3546   -4.3370    4.3703 H   0  0  0  0  0  0  0  0  0  0  0  0
    2.4089   -4.9476    5.7444 H   0  0  0  0  0  0  0  0  0  0  0  0
  1  2  2  0  0  0  0
  1  3  1  0  0  0  0
  1  7  1  0  0  0  0
  3  4  1  0  0  0  0
  3  5  1  0  0  0  0
  3  6  1  0  0  0  0
  7  8  1  0  0  0  0
  7 12  1  0  0  0  0
  8  9  1  0  0  0  0
  8 11  1  0  0  0  0
  8 13  1  0  0  0  0
  9 10  2  0  0  0  0
  9 17  1  0  0  0  0
 11 14  1  0  0  0  0
 11 15  1  0  0  0  0
 11 16  1  0  0  0  0
 17 18  1  0  0  0  0
 17 25  1  0  0  0  0
 18 19  1  0  0  0  0
 18 21  1  0  0  0  0
 18 26  1  0  0  0  0
 19 20  2  0  0  0  0
 19 29  1  0  0  0  0
 21 22  1  0  0  0  0
 21 27  1  0  0  0  0
 21 28  1  0  0  0  0
 22 23  1  0  0  0  0
 22 24  2  0  0  0  0
 29 30  1  0  0  0  0
 29 34  1  0  0  0  0
 30 31  1  0  0  0  0
 30 33  1  0  0  0  0
 30 35  1  0  0  0  0
 31 32  2  0  0  0  0
 31 39  1  0  0  0  0
 33 36  1  0  0  0  0
 33 37  1  0  0  0  0
 33 38  1  0  0  0  0
 39 40  1  0  0  0  0
 39 41  1  0  0  0  0
 40 42  1  0  0  0  0
 40 43  1  0  0  0  0
 40 44  1  0  0  0  0
M  CHG  1  23  -1
M  END
$$$$

  -OEChem-05262215553D

 44 43  0     1  0  0  0  0  0999 V2000
   -4.5393   -0.0282   -4.2917 C   0  0  0  0  0  0  0  0  0  0  0  0
   -4.2766   -1.0951   -4.8279 O   0  0  0  0  0  0  0  0  0  0  0  0
   -5.9536    0.5195   -4.3567 C   0  0  0  0  0  0  0  0  0  0  0  0
   -5.9532    1.4940   -4.8511 H   0  0  0  0  0  0  0  0  0  0  0  0
   -6.5987   -0.1616   -4.9185 H   0  0  0  0  0  0  0  0  0  0  0  0
   -6.3547    0.6327   -3.3464 H   0  0  0  0  0  0  0  0  0  0  0  0
   -3.5714    0.6883   -3.6230 N   0  0  0  0  0  0  0  0  0  0  0  0
   -2.2613    0.1477   -3.2353 C   0  0  2  0  0  0  0  0  0  0  0  0
   -2.0265    0.2790   -1.7135 C   0  0  0  0  0  0  0  0  0  0  0  0
   -2.8765    0.8220   -1.0159 O   0  0  0  0  0  0  0  0  0  0  0  0
   -1.1892    0.9140   -4.0149 C   0  0  0  0  0  0  0  0  0  0  0  0
   -3.9089    1.4529   -3.0394 H   0  0  0  0  0  0  0  0  0  0  0  0
   -2.1932   -0.9153   -3.4863 H   0  0  0  0  0  0  0  0  0  0  0  0
   -1.2200    1.9797   -3.7637 H   0  0  0  0  0  0  0  0  0  0  0  0
   -0.1906    0.5348   -3.7767 H   0  0  0  0  0  0  0  0  0  0  0  0
   -1.3517    0.8044   -5.0912 H   0  0  0  0  0  0  0  0  0  0  0  0
   -0.9397   -0.3473   -1.1293 N   0  0  0  0  0  0  0  0  0  0  0  0
   -0.1151    0.2526   -0.0601 C   0  0  2  0  0  0  0  0  0  0  0  0
   -0.4201   -0.3656    1.3236 C   0  0  0  0  0  0  0  0  0  0  0  0
   -1.1931    0.1459    2.1260 O   0  0  0  0  0  0  0  0  0  0  0  0
   -0.0616    1.8009   -0.0824 C   0  0  0  0  0  0  0  0  0  0  0  0
    0.7112    2.3231   -1.2939 C   0  0  0  0  0  0  0  0  0  0  0  0
    1.6268    1.6025   -1.7713 O   0  5  0  0  0  0  0  0  0  0  0  0
    0.3587    3.4258   -1.7736 O   0  0  0  0  0  0  0  0  0  0  0  0
   -0.3710   -0.8078   -1.8328 H   0  0  0  0  0  0  0  0  0  0  0  0
    0.9103   -0.0783   -0.2479 H   0  0  0  0  0  0  0  0  0  0  0  0
    0.4650    2.1449    0.8113 H   0  0  0  0  0  0  0  0  0  0  0  0
   -1.0609    2.2401   -0.0522 H   0  0  0  0  0  0  0  0  0  0  0  0
    0.2949   -1.4747    1.7440 N   0  0  0  0  0  0  0  0  0  0  0  0
    0.1893   -2.0814    3.0763 C   0  0  2  0  0  0  0  0  0  0  0  0
    1.4750   -2.8331    3.4783 C   0  0  0  0  0  0  0  0  0  0  0  0
    2.2733   -3.2102    2.6265 O   0  0  0  0  0  0  0  0  0  0  0  0
   -1.0074   -3.0378    3.0813 C   0  0  0  0  0  0  0  0  0  0  0  0
    1.0174   -1.8327    1.1222 H   0  0  0  0  0  0  0  0  0  0  0  0
    0.0251   -1.2951    3.8203 H   0  0  0  0  0  0  0  0  0  0  0  0
   -0.8705   -3.8242    2.3323 H   0  0  0  0  0  0  0  0  0  0  0  0
   -1.1211   -3.5054    4.0636 H   0  0  0  0  0  0  0  0  0  0  0  0
   -1.9288   -2.4936    2.8501 H   0  0  0  0  0  0  0  0  0  0  0  0
    1.7334   -3.0993    4.8113 N   0  0  0  0  0  0  0  0  0  0  0  0
    2.9440   -3.7631    5.2762 C   0  0  0  0  0  0  0  0  0  0  0  0
    1.0755   -2.7365    5.4950 H   0  0  0  0  0  0  0  0  0  0  0  0
    3.0362   -4.7540    4.8196 H   0  0  0  0  0  0  0  0  0  0  0  0
    3.8284   -3.1712    5.0188 H   0  0  0  0  0  0  0  0  0  0  0  0
    2.9132   -3.8851    6.3629 H   0  0  0  0  0  0  0  0  0  0  0  0
  1  2  2  0  0  0  0
  1  3  1  0  0  0  0
  1  7  1  0  0  0  0
  3  4  1  0  0  0  0
  3  5  1  0  0  0  0
  3  6  1  0  0  0  0
  7  8  1  0  0  0  0
  7 12  1  0  0  0  0
  8  9  1  0  0  0  0
  8 11  1  0  0  0  0
  8 13  1  0  0  0  0
  9 10  2  0  0  0  0
  9 17  1  0  0  0  0
 11 14  1  0  0  0  0
 11 15  1  0  0  0  0
 11 16  1  0  0  0  0
 17 18  1  0  0  0  0
 17 25  1  0  0  0  0
 18 19  1  0  0  0  0
 18 21  1  0  0  0  0
 18 26  1  0  0  0  0
 19 20  2  0  0  0  0
 19 29  1  0  0  0  0
 21 22  1  0  0  0  0
 21 27  1  0  0  0  0
 21 28  1  0  0  0  0
 22 23  1  0  0  0  0
 22 24  2  0  0  0  0
 29 30  1  0  0  0  0
 29 34  1  0  0  0  0
 30 31  1  0  0  0  0
 30 33  1  0  0  0  0
 30 35  1  0  0  0  0
 31 32  2  0  0  0  0
 31 39  1  0  0  0  0
 33 36  1  0  0  0  0
 33 37  1  0  0  0  0
 33 38  1  0  0  0  0
 39 40  1  0  0  0  0
 39 41  1  0  0  0  0
 40 42  1  0  0  0  0
 40 43  1  0  0  0  0
 40 44  1  0  0  0  0
M  CHG  1  23  -1
M  END
$$$$

  -OEChem-05262215553D

 44 43  0     1  0  0  0  0  0999 V2000
   -4.5408   -0.0354   -4.2800 C   0  0  0  0  0  0  0  0  0  0  0  0
   -4.2767   -1.0927   -4.8344 O   0  0  0  0  0  0  0  0  0  0  0  0
   -5.9503    0.5230   -4.3503 C   0  0  0  0  0  0  0  0  0  0  0  0
   -5.9369    1.5065   -4.8266 H   0  0  0  0  0  0  0  0  0  0  0  0
   -6.5938   -0.1431   -4.9314 H   0  0  0  0  0  0  0  0  0  0  0  0
   -6.3616    0.6210   -3.3425 H   0  0  0  0  0  0  0  0  0  0  0  0
   -3.5775    0.6650   -3.5887 N   0  0  0  0  0  0  0  0  0  0  0  0
   -2.2702    0.1185   -3.2019 C   0  0  2  0  0  0  0  0  0  0  0  0
   -2.0270    0.2747   -1.6840 C   0  0  0  0  0  0  0  0  0  0  0  0
   -2.8588    0.8619   -1.0007 O   0  0  0  0  0  0  0  0  0  0  0  0
   -1.1964    0.8659   -3.9979 C   0  0  0  0  0  0  0  0  0  0  0  0
   -3.9179    1.4192   -2.9927 H   0  0  0  0  0  0  0  0  0  0  0  0
   -2.2135   -0.9489   -3.4369 H   0  0  0  0  0  0  0  0  0  0  0  0
   -1.2135    1.9340   -3.7549 H   0  0  0  0  0  0  0  0  0  0  0  0
   -0.1996    0.4781   -3.7654 H   0  0  0  0  0  0  0  0  0  0  0  0
   -1.3709    0.7497   -5.0717 H   0  0  0  0  0  0  0  0  0  0  0  0
   -0.9393   -0.3495   -1.0988 N   0  0  0  0  0  0  0  0  0  0  0  0
   -0.1083    0.2432   -0.0306 C   0  0  2  0  0  0  0  0  0  0  0  0
   -0.3968   -0.3669    1.3606 C   0  0  0  0  0  0  0  0  0  0  0  0
   -1.3804   -0.0681    2.0280 O   0  0  0  0  0  0  0  0  0  0  0  0
   -0.0419    1.7903   -0.0451 C   0  0  0  0  0  0  0  0  0  0  0  0
    0.7324    2.3126   -1.2559 C   0  0  0  0  0  0  0  0  0  0  0  0
    1.6406    1.5871   -1.7396 O   0  5  0  0  0  0  0  0  0  0  0  0
    0.4029    3.4305   -1.7157 O   0  0  0  0  0  0  0  0  0  0  0  0
   -0.3812   -0.8332   -1.7944 H   0  0  0  0  0  0  0  0  0  0  0  0
    0.9115   -0.0960   -0.2329 H   0  0  0  0  0  0  0  0  0  0  0  0
    0.4905    2.1265    0.8478 H   0  0  0  0  0  0  0  0  0  0  0  0
   -1.0371    2.2373   -0.0104 H   0  0  0  0  0  0  0  0  0  0  0  0
    0.5066   -1.2586    1.9156 N   0  0  0  0  0  0  0  0  0  0  0  0
    0.3854   -1.8427    3.2571 C   0  0  2  0  0  0  0  0  0  0  0  0
    1.7564   -2.2234    3.8524 C   0  0  0  0  0  0  0  0  0  0  0  0
    2.7210   -2.4258    3.1223 O   0  0  0  0  0  0  0  0  0  0  0  0
   -0.5154   -3.0790    3.1710 C   0  0  0  0  0  0  0  0  0  0  0  0
    1.3800   -1.4157    1.4148 H   0  0  0  0  0  0  0  0  0  0  0  0
   -0.0709   -1.1107    3.9318 H   0  0  0  0  0  0  0  0  0  0  0  0
   -0.0801   -3.8218    2.4950 H   0  0  0  0  0  0  0  0  0  0  0  0
   -0.6384   -3.5330    4.1587 H   0  0  0  0  0  0  0  0  0  0  0  0
   -1.5049   -2.8019    2.7933 H   0  0  0  0  0  0  0  0  0  0  0  0
    1.9076   -2.3512    5.2217 N   0  0  0  0  0  0  0  0  0  0  0  0
    3.1840   -2.6440    5.8600 C   0  0  0  0  0  0  0  0  0  0  0  0
    1.1064   -2.1217    5.8024 H   0  0  0  0  0  0  0  0  0  0  0  0
    3.5939   -3.5867    5.4828 H   0  0  0  0  0  0  0  0  0  0  0  0
    3.9030   -1.8418    5.6625 H   0  0  0  0  0  0  0  0  0  0  0  0
    3.0528   -2.7342    6.9425 H   0  0  0  0  0  0  0  0  0  0  0  0
  1  2  2  0  0  0  0
  1  3  1  0  0  0  0
  1  7  1  0  0  0  0
  3  4  1  0  0  0  0
  3  5  1  0  0  0  0
  3  6  1  0  0  0  0
  7  8  1  0  0  0  0
  7 12  1  0  0  0  0
  8  9  1  0  0  0  0
  8 11  1  0  0  0  0
  8 13  1  0  0  0  0
  9 10  2  0  0  0  0
  9 17  1  0  0  0  0
 11 14  1  0  0  0  0
 11 15  1  0  0  0  0
 11 16  1  0  0  0  0
 17 18  1  0  0  0  0
 17 25  1  0  0  0  0
 18 19  1  0  0  0  0
 18 21  1  0  0  0  0
 18 26  1  0  0  0  0
 19 20  2  0  0  0  0
 19 29  1  0  0  0  0
 21 22  1  0  0  0  0
 21 27  1  0  0  0  0
 21 28  1  0  0  0  0
 22 23  1  0  0  0  0
 22 24  2  0  0  0  0
 29 30  1  0  0  0  0
 29 34  1  0  0  0  0
 30 31  1  0  0  0  0
 30 33  1  0  0  0  0
 30 35  1  0  0  0  0
 31 32  2  0  0  0  0
 31 39  1  0  0  0  0
 33 36  1  0  0  0  0
 33 37  1  0  0  0  0
 33 38  1  0  0  0  0
 39 40  1  0  0  0  0
 39 41  1  0  0  0  0
 40 42  1  0  0  0  0
 40 43  1  0  0  0  0
 40 44  1  0  0  0  0
M  CHG  1  23  -1
M  END
$$$$

  -OEChem-05262215553D

 44 43  0     1  0  0  0  0  0999 V2000
   -4.5561   -0.0300   -4.2601 C   0  0  0  0  0  0  0  0  0  0  0  0
   -4.2963   -1.0882   -4.8149 O   0  0  0  0  0  0  0  0  0  0  0  0
   -5.9611    0.5384   -4.3415 C   0  0  0  0  0  0  0  0  0  0  0  0
   -5.9372    1.5229   -4.8153 H   0  0  0  0  0  0  0  0  0  0  0  0
   -6.6036   -0.1225   -4.9298 H   0  0  0  0  0  0  0  0  0  0  0  0
   -6.3804    0.6359   -3.3367 H   0  0  0  0  0  0  0  0  0  0  0  0
   -3.5936    0.6543   -3.5514 N   0  0  0  0  0  0  0  0  0  0  0  0
   -2.2966    0.0894   -3.1568 C   0  0  2  0  0  0  0  0  0  0  0  0
   -2.0329    0.2895   -1.6482 C   0  0  0  0  0  0  0  0  0  0  0  0
   -2.8344    0.9353   -0.9812 O   0  0  0  0  0  0  0  0  0  0  0  0
   -1.2081    0.7804   -3.9838 C   0  0  0  0  0  0  0  0  0  0  0  0
   -3.9275    1.4144   -2.9590 H   0  0  0  0  0  0  0  0  0  0  0  0
   -2.2719   -0.9871   -3.3537 H   0  0  0  0  0  0  0  0  0  0  0  0
   -1.1997    1.8572   -3.7829 H   0  0  0  0  0  0  0  0  0  0  0  0
   -0.2200    0.3800   -3.7364 H   0  0  0  0  0  0  0  0  0  0  0  0
   -1.3866    0.6254   -5.0520 H   0  0  0  0  0  0  0  0  0  0  0  0
   -0.9438   -0.3356   -1.0661 N   0  0  0  0  0  0  0  0  0  0  0  0
   -0.1012    0.2520   -0.0046 C   0  0  2  0  0  0  0  0  0  0  0  0
   -0.3689   -0.3438    1.3969 C   0  0  0  0  0  0  0  0  0  0  0  0
   -1.4786   -0.3470    1.9172 O   0  0  0  0  0  0  0  0  0  0  0  0
   -0.0145    1.7974   -0.0140 C   0  0  0  0  0  0  0  0  0  0  0  0
    0.7591    2.3169   -1.2262 C   0  0  0  0  0  0  0  0  0  0  0  0
    1.6559    1.5833   -1.7188 O   0  5  0  0  0  0  0  0  0  0  0  0
    0.4485    3.4470   -1.6693 O   0  0  0  0  0  0  0  0  0  0  0  0
   -0.4032   -0.8486   -1.7539 H   0  0  0  0  0  0  0  0  0  0  0  0
    0.9101   -0.1024   -0.2231 H   0  0  0  0  0  0  0  0  0  0  0  0
    0.5287    2.1227    0.8764 H   0  0  0  0  0  0  0  0  0  0  0  0
   -1.0031    2.2576    0.0302 H   0  0  0  0  0  0  0  0  0  0  0  0
    0.6591   -0.9732    2.0795 N   0  0  0  0  0  0  0  0  0  0  0  0
    0.5311   -1.5558    3.4215 C   0  0  2  0  0  0  0  0  0  0  0  0
    1.8579   -1.5209    4.2077 C   0  0  0  0  0  0  0  0  0  0  0  0
    2.9328   -1.4599    3.6209 O   0  0  0  0  0  0  0  0  0  0  0  0
    0.0399   -2.9998    3.2779 C   0  0  0  0  0  0  0  0  0  0  0  0
    1.5989   -0.8844    1.6945 H   0  0  0  0  0  0  0  0  0  0  0  0
   -0.2018   -0.9816    3.9983 H   0  0  0  0  0  0  0  0  0  0  0  0
    0.7563   -3.5899    2.6977 H   0  0  0  0  0  0  0  0  0  0  0  0
   -0.0814   -3.4640    4.2608 H   0  0  0  0  0  0  0  0  0  0  0  0
   -0.9268   -3.0226    2.7647 H   0  0  0  0  0  0  0  0  0  0  0  0
    1.8437   -1.5748    5.5903 N   0  0  0  0  0  0  0  0  0  0  0  0
    3.0459   -1.4798    6.4076 C   0  0  0  0  0  0  0  0  0  0  0  0
    0.9361   -1.5657    6.0462 H   0  0  0  0  0  0  0  0  0  0  0  0
    3.7540   -2.2725    6.1438 H   0  0  0  0  0  0  0  0  0  0  0  0
    3.5309   -0.5091    6.2615 H   0  0  0  0  0  0  0  0  0  0  0  0
    2.7910   -1.5846    7.4664 H   0  0  0  0  0  0  0  0  0  0  0  0
  1  2  2  0  0  0  0
  1  3  1  0  0  0  0
  1  7  1  0  0  0  0
  3  4  1  0  0  0  0
  3  5  1  0  0  0  0
  3  6  1  0  0  0  0
  7  8  1  0  0  0  0
  7 12  1  0  0  0  0
  8  9  1  0  0  0  0
  8 11  1  0  0  0  0
  8 13  1  0  0  0  0
  9 10  2  0  0  0  0
  9 17  1  0  0  0  0
 11 14  1  0  0  0  0
 11 15  1  0  0  0  0
 11 16  1  0  0  0  0
 17 18  1  0  0  0  0
 17 25  1  0  0  0  0
 18 19  1  0  0  0  0
 18 21  1  0  0  0  0
 18 26  1  0  0  0  0
 19 20  2  0  0  0  0
 19 29  1  0  0  0  0
 21 22  1  0  0  0  0
 21 27  1  0  0  0  0
 21 28  1  0  0  0  0
 22 23  1  0  0  0  0
 22 24  2  0  0  0  0
 29 30  1  0  0  0  0
 29 34  1  0  0  0  0
 30 31  1  0  0  0  0
 30 33  1  0  0  0  0
 30 35  1  0  0  0  0
 31 32  2  0  0  0  0
 31 39  1  0  0  0  0
 33 36  1  0  0  0  0
 33 37  1  0  0  0  0
 33 38  1  0  0  0  0
 39 40  1  0  0  0  0
 39 41  1  0  0  0  0
 40 42  1  0  0  0  0
 40 43  1  0  0  0  0
 40 44  1  0  0  0  0
M  CHG  1  23  -1
M  END
$$$$

  -OEChem-05262215553D

 44 43  0     1  0  0  0  0  0999 V2000
   -4.5601   -0.0196   -4.2594 C   0  0  0  0  0  0  0  0  0  0  0  0
   -4.2959   -1.0662   -4.8335 O   0  0  0  0  0  0  0  0  0  0  0  0
   -5.9569    0.5652   -4.3608 C   0  0  0  0  0  0  0  0  0  0  0  0
   -5.9120    1.5601   -4.8105 H   0  0  0  0  0  0  0  0  0  0  0  0
   -6.5914   -0.0745   -4.9801 H   0  0  0  0  0  0  0  0  0  0  0  0
   -6.3991    0.6439   -3.3646 H   0  0  0  0  0  0  0  0  0  0  0  0
   -3.6084    0.6375   -3.5118 N   0  0  0  0  0  0  0  0  0  0  0  0
   -2.3169    0.0613   -3.1170 C   0  0  2  0  0  0  0  0  0  0  0  0
   -2.0427    0.2810   -1.6134 C   0  0  0  0  0  0  0  0  0  0  0  0
   -2.8288    0.9523   -0.9520 O   0  0  0  0  0  0  0  0  0  0  0  0
   -1.2229    0.7260   -3.9584 C   0  0  0  0  0  0  0  0  0  0  0  0
   -3.9437    1.3920   -2.9129 H   0  0  0  0  0  0  0  0  0  0  0  0
   -2.3082   -1.0182   -3.2983 H   0  0  0  0  0  0  0  0  0  0  0  0
   -1.1934    1.8041   -3.7655 H   0  0  0  0  0  0  0  0  0  0  0  0
   -0.2402    0.3089   -3.7173 H   0  0  0  0  0  0  0  0  0  0  0  0
   -1.4134    0.5661   -5.0238 H   0  0  0  0  0  0  0  0  0  0  0  0
   -0.9540   -0.3434   -1.0310 N   0  0  0  0  0  0  0  0  0  0  0  0
   -0.1088    0.2492    0.0249 C   0  0  2  0  0  0  0  0  0  0  0  0
   -0.3658   -0.3303    1.4352 C   0  0  0  0  0  0  0  0  0  0  0  0
   -1.4818   -0.6535    1.8275 O   0  0  0  0  0  0  0  0  0  0  0  0
   -0.0103    1.7942    0.0042 C   0  0  0  0  0  0  0  0  0  0  0  0
    0.7678    2.3001   -1.2111 C   0  0  0  0  0  0  0  0  0  0  0  0
    1.6594    1.5571   -1.6982 O   0  5  0  0  0  0  0  0  0  0  0  0
    0.4671    3.4307   -1.6593 O   0  0  0  0  0  0  0  0  0  0  0  0
   -0.4210   -0.8759   -1.7099 H   0  0  0  0  0  0  0  0  0  0  0  0
    0.8981   -0.1175   -0.1942 H   0  0  0  0  0  0  0  0  0  0  0  0
    0.5353    2.1221    0.8917 H   0  0  0  0  0  0  0  0  0  0  0  0
   -0.9950    2.2633    0.0449 H   0  0  0  0  0  0  0  0  0  0  0  0
    0.7125   -0.6633    2.2382 N   0  0  0  0  0  0  0  0  0  0  0  0
    0.5963   -1.2266    3.5895 C   0  0  2  0  0  0  0  0  0  0  0  0
    1.7517   -0.7900    4.5127 C   0  0  0  0  0  0  0  0  0  0  0  0
    2.8310   -0.4436    4.0457 O   0  0  0  0  0  0  0  0  0  0  0  0
    0.5591   -2.7537    3.4760 C   0  0  0  0  0  0  0  0  0  0  0  0
    1.6291   -0.3213    1.9497 H   0  0  0  0  0  0  0  0  0  0  0  0
   -0.3339   -0.8773    4.0497 H   0  0  0  0  0  0  0  0  0  0  0  0
    1.4803   -3.1244    3.0152 H   0  0  0  0  0  0  0  0  0  0  0  0
    0.4550   -3.2092    4.4653 H   0  0  0  0  0  0  0  0  0  0  0  0
   -0.2900   -3.0677    2.8604 H   0  0  0  0  0  0  0  0  0  0  0  0
    1.5823   -0.8065    5.8857 N   0  0  0  0  0  0  0  0  0  0  0  0
    2.6028   -0.3565    6.8230 C   0  0  0  0  0  0  0  0  0  0  0  0
    0.6584   -1.0395    6.2372 H   0  0  0  0  0  0  0  0  0  0  0  0
    3.5314   -0.9184    6.6786 H   0  0  0  0  0  0  0  0  0  0  0  0
    2.8089    0.7094    6.6806 H   0  0  0  0  0  0  0  0  0  0  0  0
    2.2642   -0.5105    7.8518 H   0  0  0  0  0  0  0  0  0  0  0  0
  1  2  2  0  0  0  0
  1  3  1  0  0  0  0
  1  7  1  0  0  0  0
  3  4  1  0  0  0  0
  3  5  1  0  0  0  0
  3  6  1  0  0  0  0
  7  8  1  0  0  0  0
  7 12  1  0  0  0  0
  8  9  1  0  0  0  0
  8 11  1  0  0  0  0
  8 13  1  0  0  0  0
  9 10  2  0  0  0  0
  9 17  1  0  0  0  0
 11 14  1  0  0  0  0
 11 15  1  0  0  0  0
 11 16  1  0  0  0  0
 17 18  1  0  0  0  0
 17 25  1  0  0  0  0
 18 19  1  0  0  0  0
 18 21  1  0  0  0  0
 18 26  1  0  0  0  0
 19 20  2  0  0  0  0
 19 29  1  0  0  0  0
 21 22  1  0  0  0  0
 21 27  1  0  0  0  0
 21 28  1  0  0  0  0
 22 23  1  0  0  0  0
 22 24  2  0  0  0  0
 29 30  1  0  0  0  0
 29 34  1  0  0  0  0
 30 31  1  0  0  0  0
 30 33  1  0  0  0  0
 30 35  1  0  0  0  0
 31 32  2  0  0  0  0
 31 39  1  0  0  0  0
 33 36  1  0  0  0  0
 33 37  1  0  0  0  0
 33 38  1  0  0  0  0
 39 40  1  0  0  0  0
 39 41  1  0  0  0  0
 40 42  1  0  0  0  0
 40 43  1  0  0  0  0
 40 44  1  0  0  0  0
M  CHG  1  23  -1
M  END
$$$$

  -OEChem-05262215553D

 44 43  0     1  0  0  0  0  0999 V2000
   -4.5698   -0.0194   -4.2447 C   0  0  0  0  0  0  0  0  0  0  0  0
   -4.3183   -1.0717   -4.8140 O   0  0  0  0  0  0  0  0  0  0  0  0
   -5.9547    0.5907   -4.3624 C   0  0  0  0  0  0  0  0  0  0  0  0
   -5.8916    1.5670   -4.8495 H   0  0  0  0  0  0  0  0  0  0  0  0
   -6.6057   -0.0585   -4.9541 H   0  0  0  0  0  0  0  0  0  0  0  0
   -6.3905    0.7160   -3.3683 H   0  0  0  0  0  0  0  0  0  0  0  0
   -3.6123    0.6263   -3.4946 N   0  0  0  0  0  0  0  0  0  0  0  0
   -2.3282    0.0365   -3.0953 C   0  0  2  0  0  0  0  0  0  0  0  0
   -2.0478    0.2697   -1.5945 C   0  0  0  0  0  0  0  0  0  0  0  0
   -2.8284    0.9509   -0.9357 O   0  0  0  0  0  0  0  0  0  0  0  0
   -1.2285    0.6751   -3.9492 C   0  0  0  0  0  0  0  0  0  0  0  0
   -3.9368    1.3932   -2.9058 H   0  0  0  0  0  0  0  0  0  0  0  0
   -2.3352   -1.0450   -3.2633 H   0  0  0  0  0  0  0  0  0  0  0  0
   -1.1928    1.7568   -3.7801 H   0  0  0  0  0  0  0  0  0  0  0  0
   -0.2484    0.2578   -3.6976 H   0  0  0  0  0  0  0  0  0  0  0  0
   -1.4187    0.4931   -5.0112 H   0  0  0  0  0  0  0  0  0  0  0  0
   -0.9622   -0.3516   -1.0034 N   0  0  0  0  0  0  0  0  0  0  0  0
   -0.1172    0.2533    0.0464 C   0  0  2  0  0  0  0  0  0  0  0  0
   -0.3732   -0.3017    1.4666 C   0  0  0  0  0  0  0  0  0  0  0  0
   -1.3956   -0.9110    1.7656 O   0  0  0  0  0  0  0  0  0  0  0  0
   -0.0097    1.7983   -0.0029 C   0  0  0  0  0  0  0  0  0  0  0  0
    0.7767    2.2774   -1.2235 C   0  0  0  0  0  0  0  0  0  0  0  0
    1.6666    1.5216   -1.6932 O   0  5  0  0  0  0  0  0  0  0  0  0
    0.4807    3.3996   -1.6953 O   0  0  0  0  0  0  0  0  0  0  0  0
   -0.4335   -0.9046   -1.6689 H   0  0  0  0  0  0  0  0  0  0  0  0
    0.8882   -0.1244   -0.1611 H   0  0  0  0  0  0  0  0  0  0  0  0
    0.5326    2.1433    0.8807 H   0  0  0  0  0  0  0  0  0  0  0  0
   -0.9916    2.2736    0.0222 H   0  0  0  0  0  0  0  0  0  0  0  0
    0.6700   -0.3264    2.3769 N   0  0  0  0  0  0  0  0  0  0  0  0
    0.5683   -0.8606    3.7413 C   0  0  2  0  0  0  0  0  0  0  0  0
    1.4285   -0.0751    4.7527 C   0  0  0  0  0  0  0  0  0  0  0  0
    2.3933    0.5828    4.3798 O   0  0  0  0  0  0  0  0  0  0  0  0
    0.9954   -2.3307    3.7118 C   0  0  0  0  0  0  0  0  0  0  0  0
    1.4892    0.2392    2.1542 H   0  0  0  0  0  0  0  0  0  0  0  0
   -0.4699   -0.7952    4.0833 H   0  0  0  0  0  0  0  0  0  0  0  0
    2.0329   -2.4196    3.3745 H   0  0  0  0  0  0  0  0  0  0  0  0
    0.9121   -2.7747    4.7081 H   0  0  0  0  0  0  0  0  0  0  0  0
    0.3560   -2.8964    3.0268 H   0  0  0  0  0  0  0  0  0  0  0  0
    1.1321   -0.1330    6.1032 N   0  0  0  0  0  0  0  0  0  0  0  0
    1.8736    0.6029    7.1187 C   0  0  0  0  0  0  0  0  0  0  0  0
    0.3014   -0.6498    6.3760 H   0  0  0  0  0  0  0  0  0  0  0  0
    2.9287    0.3102    7.1105 H   0  0  0  0  0  0  0  0  0  0  0  0
    1.8042    1.6806    6.9378 H   0  0  0  0  0  0  0  0  0  0  0  0
    1.4648    0.3912    8.1113 H   0  0  0  0  0  0  0  0  0  0  0  0
  1  2  2  0  0  0  0
  1  3  1  0  0  0  0
  1  7  1  0  0  0  0
  3  4  1  0  0  0  0
  3  5  1  0  0  0  0
  3  6  1  0  0  0  0
  7  8  1  0  0  0  0
  7 12  1  0  0  0  0
  8  9  1  0  0  0  0
  8 11  1  0  0  0  0
  8 13  1  0  0  0  0
  9 10  2  0  0  0  0
  9 17  1  0  0  0  0
 11 14  1  0  0  0  0
 11 15  1  0  0  0  0
 11 16  1  0  0  0  0
 17 18  1  0  0  0  0
 17 25  1  0  0  0  0
 18 19  1  0  0  0  0
 18 21  1  0  0  0  0
 18 26  1  0  0  0  0
 19 20  2  0  0  0  0
 19 29  1  0  0  0  0
 21 22  1  0  0  0  0
 21 27  1  0  0  0  0
 21 28  1  0  0  0  0
 22 23  1  0  0  0  0
 22 24  2  0  0  0  0
 29 30  1  0  0  0  0
 29 34  1  0  0  0  0
 30 31  1  0  0  0  0
 30 33  1  0  0  0  0
 30 35  1  0  0  0  0
 31 32  2  0  0  0  0
 31 39  1  0  0  0  0
 33 36  1  0  0  0  0
 33 37  1  0  0  0  0
 33 38  1  0  0  0  0
 39 40  1  0  0  0  0
 39 41  1  0  0  0  0
 40 42  1  0  0  0  0
 40 43  1  0  0  0  0
 40 44  1  0  0  0  0
M  CHG  1  23  -1
M  END
$$$$

  -OEChem-05262215553D

 44 43  0     1  0  0  0  0  0999 V2000
   -4.5540   -0.0136   -4.2439 C   0  0  0  0  0  0  0  0  0  0  0  0
   -4.2827   -1.0368   -4.8556 O   0  0  0  0  0  0  0  0  0  0  0  0
   -5.9482    0.5785   -4.3416 C   0  0  0  0  0  0  0  0  0  0  0  0
   -5.8980    1.5729   -4.7920 H   0  0  0  0  0  0  0  0  0  0  0  0
   -6.5885   -0.0581   -4.9585 H   0  0  0  0  0  0  0  0  0  0  0  0
   -6.3877    0.6610   -3.3443 H   0  0  0  0  0  0  0  0  0  0  0  0
   -3.6133    0.6111   -3.4560 N   0  0  0  0  0  0  0  0  0  0  0  0
   -2.3235    0.0247   -3.0713 C   0  0  2  0  0  0  0  0  0  0  0  0
   -2.0301    0.2570   -1.5728 C   0  0  0  0  0  0  0  0  0  0  0  0
   -2.8208    0.9112   -0.8981 O   0  0  0  0  0  0  0  0  0  0  0  0
   -1.2315    0.6647   -3.9343 C   0  0  0  0  0  0  0  0  0  0  0  0
   -3.9531    1.3491   -2.8397 H   0  0  0  0  0  0  0  0  0  0  0  0
   -2.3327   -1.0568   -3.2404 H   0  0  0  0  0  0  0  0  0  0  0  0
   -1.1832    1.7439   -3.7532 H   0  0  0  0  0  0  0  0  0  0  0  0
   -0.2520    0.2356   -3.7012 H   0  0  0  0  0  0  0  0  0  0  0  0
   -1.4389    0.4975   -4.9955 H   0  0  0  0  0  0  0  0  0  0  0  0
   -0.9324   -0.3501   -0.9906 N   0  0  0  0  0  0  0  0  0  0  0  0
   -0.0901    0.2623    0.0574 C   0  0  2  0  0  0  0  0  0  0  0  0
   -0.3369   -0.3086    1.4735 C   0  0  0  0  0  0  0  0  0  0  0  0
   -1.2098   -1.1404    1.7058 O   0  0  0  0  0  0  0  0  0  0  0  0
   -0.0145    1.8107    0.0079 C   0  0  0  0  0  0  0  0  0  0  0  0
    0.7531    2.3037   -1.2189 C   0  0  0  0  0  0  0  0  0  0  0  0
    1.6540    1.5652   -1.6946 O   0  5  0  0  0  0  0  0  0  0  0  0
    0.4296    3.4183   -1.6905 O   0  0  0  0  0  0  0  0  0  0  0  0
   -0.3984   -0.8927   -1.6605 H   0  0  0  0  0  0  0  0  0  0  0  0
    0.9227   -0.0953   -0.1495 H   0  0  0  0  0  0  0  0  0  0  0  0
    0.5291    2.1706    0.8842 H   0  0  0  0  0  0  0  0  0  0  0  0
   -1.0048    2.2674    0.0424 H   0  0  0  0  0  0  0  0  0  0  0  0
    0.5820   -0.0549    2.4773 N   0  0  0  0  0  0  0  0  0  0  0  0
    0.4514   -0.5306    3.8604 C   0  0  2  0  0  0  0  0  0  0  0  0
    0.9922    0.4859    4.8870 C   0  0  0  0  0  0  0  0  0  0  0  0
    1.8569    1.2958    4.5725 O   0  0  0  0  0  0  0  0  0  0  0  0
    1.2000   -1.8602    3.9831 C   0  0  0  0  0  0  0  0  0  0  0  0
    1.2679    0.6781    2.2967 H   0  0  0  0  0  0  0  0  0  0  0  0
   -0.6063   -0.6916    4.0934 H   0  0  0  0  0  0  0  0  0  0  0  0
    2.2622   -1.7231    3.7567 H   0  0  0  0  0  0  0  0  0  0  0  0
    1.1067   -2.2600    4.9969 H   0  0  0  0  0  0  0  0  0  0  0  0
    0.7862   -2.5928    3.2831 H   0  0  0  0  0  0  0  0  0  0  0  0
    0.5161    0.4765    6.1862 N   0  0  0  0  0  0  0  0  0  0  0  0
    0.9288    1.4420    7.1962 C   0  0  0  0  0  0  0  0  0  0  0  0
   -0.2447   -0.1623    6.3973 H   0  0  0  0  0  0  0  0  0  0  0  0
    2.0140    1.4079    7.3389 H   0  0  0  0  0  0  0  0  0  0  0  0
    0.6433    2.4556    6.8960 H   0  0  0  0  0  0  0  0  0  0  0  0
    0.4485    1.2149    8.1526 H   0  0  0  0  0  0  0  0  0  0  0  0
  1  2  2  0  0  0  0
  1  3  1  0  0  0  0
  1  7  1  0  0  0  0
  3  4  1  0  0  0  0
  3  5  1  0  0  0  0
  3  6  1  0  0  0  0
  7  8  1  0  0  0  0
  7 12  1  0  0  0  0
  8  9  1  0  0  0  0
  8 11  1  0  0  0  0
  8 13  1  0  0  0  0
  9 10  2  0  0  0  0
  9 17  1  0  0  0  0
 11 14  1  0  0  0  0
 11 15  1  0  0  0  0
 11 16  1  0  0  0  0
 17 18  1  0  0  0  0
 17 25  1  0  0  0  0
 18 19  1  0  0  0  0
 18 21  1  0  0  0  0
 18 26  1  0  0  0  0
 19 20  2  0  0  0  0
 19 29  1  0  0  0  0
 21 22  1  0  0  0  0
 21 27  1  0  0  0  0
 21 28  1  0  0  0  0
 22 23  1  0  0  0  0
 22 24  2  0  0  0  0
 29 30  1  0  0  0  0
 29 34  1  0  0  0  0
 30 31  1  0  0  0  0
 30 33  1  0  0  0  0
 30 35  1  0  0  0  0
 31 32  2  0  0  0  0
 31 39  1  0  0  0  0
 33 36  1  0  0  0  0
 33 37  1  0  0  0  0
 33 38  1  0  0  0  0
 39 40  1  0  0  0  0
 39 41  1  0  0  0  0
 40 42  1  0  0  0  0
 40 43  1  0  0  0  0
 40 44  1  0  0  0  0
M  CHG  1  23  -1
M  END
$$$$

  -OEChem-05262215553D

 44 43  0     1  0  0  0  0  0999 V2000
   -4.5816   -0.0358   -4.2035 C   0  0  0  0  0  0  0  0  0  0  0  0
   -4.3294   -1.0772   -4.7924 O   0  0  0  0  0  0  0  0  0  0  0  0
   -5.9629    0.5824   -4.3192 C   0  0  0  0  0  0  0  0  0  0  0  0
   -5.8896    1.5717   -4.7774 H   0  0  0  0  0  0  0  0  0  0  0  0
   -6.6095   -0.0468   -4.9367 H   0  0  0  0  0  0  0  0  0  0  0  0
   -6.4099    0.6811   -3.3269 H   0  0  0  0  0  0  0  0  0  0  0  0
   -3.6291    0.5868   -3.4282 N   0  0  0  0  0  0  0  0  0  0  0  0
   -2.3517   -0.0169   -3.0288 C   0  0  2  0  0  0  0  0  0  0  0  0
   -2.0621    0.2313   -1.5314 C   0  0  0  0  0  0  0  0  0  0  0  0
   -2.8844    0.8387   -0.8521 O   0  0  0  0  0  0  0  0  0  0  0  0
   -1.2488    0.5934   -3.8995 C   0  0  0  0  0  0  0  0  0  0  0  0
   -3.9529    1.3483   -2.8316 H   0  0  0  0  0  0  0  0  0  0  0  0
   -2.3783   -1.1005   -3.1822 H   0  0  0  0  0  0  0  0  0  0  0  0
   -1.1835    1.6741   -3.7315 H   0  0  0  0  0  0  0  0  0  0  0  0
   -0.2766    0.1512   -3.6615 H   0  0  0  0  0  0  0  0  0  0  0  0
   -1.4594    0.4166   -4.9586 H   0  0  0  0  0  0  0  0  0  0  0  0
   -0.9595   -0.3548   -0.9370 N   0  0  0  0  0  0  0  0  0  0  0  0
   -0.0690    0.2895    0.0550 C   0  0  2  0  0  0  0  0  0  0  0  0
   -0.0461   -0.4671    1.4056 C   0  0  0  0  0  0  0  0  0  0  0  0
   -0.5494   -1.5814    1.5262 O   0  0  0  0  0  0  0  0  0  0  0  0
   -0.2165    1.8294    0.1981 C   0  0  0  0  0  0  0  0  0  0  0  0
    0.2792    2.5724   -1.0437 C   0  0  0  0  0  0  0  0  0  0  0  0
    1.1914    2.0412   -1.7289 O   0  5  0  0  0  0  0  0  0  0  0  0
   -0.2354    3.6870   -1.2939 O   0  0  0  0  0  0  0  0  0  0  0  0
   -0.4630   -0.9680   -1.5725 H   0  0  0  0  0  0  0  0  0  0  0  0
    0.9469    0.1236   -0.3158 H   0  0  0  0  0  0  0  0  0  0  0  0
    0.4013    2.1782    1.0278 H   0  0  0  0  0  0  0  0  0  0  0  0
   -1.2439    2.1149    0.4294 H   0  0  0  0  0  0  0  0  0  0  0  0
    0.7324   -0.0068    2.4541 N   0  0  0  0  0  0  0  0  0  0  0  0
    0.8287   -0.6569    3.7677 C   0  0  2  0  0  0  0  0  0  0  0  0
    0.9200    0.3590    4.9246 C   0  0  0  0  0  0  0  0  0  0  0  0
    1.4351    1.4582    4.7553 O   0  0  0  0  0  0  0  0  0  0  0  0
    2.0586   -1.5676    3.7618 C   0  0  0  0  0  0  0  0  0  0  0  0
    1.0997    0.9409    2.3707 H   0  0  0  0  0  0  0  0  0  0  0  0
   -0.0649   -1.2647    3.9435 H   0  0  0  0  0  0  0  0  0  0  0  0
    2.9673   -0.9810    3.5928 H   0  0  0  0  0  0  0  0  0  0  0  0
    2.1520   -2.0901    4.7183 H   0  0  0  0  0  0  0  0  0  0  0  0
    1.9719   -2.3142    2.9660 H   0  0  0  0  0  0  0  0  0  0  0  0
    0.4402    0.0215    6.1778 N   0  0  0  0  0  0  0  0  0  0  0  0
    0.4223    0.9471    7.3027 C   0  0  0  0  0  0  0  0  0  0  0  0
   -0.0509   -0.8633    6.2620 H   0  0  0  0  0  0  0  0  0  0  0  0
    1.4318    1.3152    7.5144 H   0  0  0  0  0  0  0  0  0  0  0  0
   -0.2268    1.8015    7.0840 H   0  0  0  0  0  0  0  0  0  0  0  0
    0.0450    0.4438    8.1980 H   0  0  0  0  0  0  0  0  0  0  0  0
  1  2  2  0  0  0  0
  1  3  1  0  0  0  0
  1  7  1  0  0  0  0
  3  4  1  0  0  0  0
  3  5  1  0  0  0  0
  3  6  1  0  0  0  0
  7  8  1  0  0  0  0
  7 12  1  0  0  0  0
  8  9  1  0  0  0  0
  8 11  1  0  0  0  0
  8 13  1  0  0  0  0
  9 10  2  0  0  0  0
  9 17  1  0  0  0  0
 11 14  1  0  0  0  0
 11 15  1  0  0  0  0
 11 16  1  0  0  0  0
 17 18  1  0  0  0  0
 17 25  1  0  0  0  0
 18 19  1  0  0  0  0
 18 21  1  0  0  0  0
 18 26  1  0  0  0  0
 19 20  2  0  0  0  0
 19 29  1  0  0  0  0
 21 22  1  0  0  0  0
 21 27  1  0  0  0  0
 21 28  1  0  0  0  0
 22 23  1  0  0  0  0
 22 24  2  0  0  0  0
 29 30  1  0  0  0  0
 29 34  1  0  0  0  0
 30 31  1  0  0  0  0
 30 33  1  0  0  0  0
 30 35  1  0  0  0  0
 31 32  2  0  0  0  0
 31 39  1  0  0  0  0
 33 36  1  0  0  0  0
 33 37  1  0  0  0  0
 33 38  1  0  0  0  0
 39 40  1  0  0  0  0
 39 41  1  0  0  0  0
 40 42  1  0  0  0  0
 40 43  1  0  0  0  0
 40 44  1  0  0  0  0
M  CHG  1  23  -1
M  END
$$$$

  -OEChem-05262215553D

 44 43  0     1  0  0  0  0  0999 V2000
   -4.5759   -0.0623   -4.1903 C   0  0  0  0  0  0  0  0  0  0  0  0
   -4.3453   -1.1348   -4.7302 O   0  0  0  0  0  0  0  0  0  0  0  0
   -5.9459    0.5749   -4.3340 C   0  0  0  0  0  0  0  0  0  0  0  0
   -5.8554    1.5377   -4.8430 H   0  0  0  0  0  0  0  0  0  0  0  0
   -6.6056   -0.0739   -4.9166 H   0  0  0  0  0  0  0  0  0  0  0  0
   -6.3885    0.7339   -3.3474 H   0  0  0  0  0  0  0  0  0  0  0  0
   -3.6096    0.5800   -3.4487 N   0  0  0  0  0  0  0  0  0  0  0  0
   -2.3416   -0.0276   -3.0254 C   0  0  2  0  0  0  0  0  0  0  0  0
   -2.0696    0.2282   -1.5260 C   0  0  0  0  0  0  0  0  0  0  0  0
   -2.9026    0.8273   -0.8521 O   0  0  0  0  0  0  0  0  0  0  0  0
   -1.2247    0.5705   -3.8868 C   0  0  0  0  0  0  0  0  0  0  0  0
   -3.9198    1.3721   -2.8863 H   0  0  0  0  0  0  0  0  0  0  0  0
   -2.3704   -1.1119   -3.1720 H   0  0  0  0  0  0  0  0  0  0  0  0
   -1.1523    1.6513   -3.7234 H   0  0  0  0  0  0  0  0  0  0  0  0
   -0.2587    0.1221   -3.6361 H   0  0  0  0  0  0  0  0  0  0  0  0
   -1.4248    0.3900   -4.9473 H   0  0  0  0  0  0  0  0  0  0  0  0
   -0.9679   -0.3437   -0.9171 N   0  0  0  0  0  0  0  0  0  0  0  0
   -0.0796    0.3285    0.0573 C   0  0  2  0  0  0  0  0  0  0  0  0
   -0.0705   -0.4054    1.4213 C   0  0  0  0  0  0  0  0  0  0  0  0
   -0.3436   -1.6015    1.4940 O   0  0  0  0  0  0  0  0  0  0  0  0
   -0.2308    1.8729    0.1488 C   0  0  0  0  0  0  0  0  0  0  0  0
    0.2678    2.5726   -1.1173 C   0  0  0  0  0  0  0  0  0  0  0  0
    1.1826    2.0205   -1.7818 O   0  5  0  0  0  0  0  0  0  0  0  0
   -0.2566    3.6712   -1.4136 O   0  0  0  0  0  0  0  0  0  0  0  0
   -0.4634   -0.9611   -1.5426 H   0  0  0  0  0  0  0  0  0  0  0  0
    0.9396    0.1541   -0.3010 H   0  0  0  0  0  0  0  0  0  0  0  0
    0.3895    2.2527    0.9624 H   0  0  0  0  0  0  0  0  0  0  0  0
   -1.2583    2.1660    0.3706 H   0  0  0  0  0  0  0  0  0  0  0  0
    0.4332    0.2006    2.5598 N   0  0  0  0  0  0  0  0  0  0  0  0
    0.4961   -0.4333    3.8832 C   0  0  2  0  0  0  0  0  0  0  0  0
    0.2024    0.5569    5.0281 C   0  0  0  0  0  0  0  0  0  0  0  0
    0.5342    1.7335    4.9403 O   0  0  0  0  0  0  0  0  0  0  0  0
    1.8886   -1.0455    4.0551 C   0  0  0  0  0  0  0  0  0  0  0  0
    0.5987    1.2054    2.5092 H   0  0  0  0  0  0  0  0  0  0  0  0
   -0.2536   -1.2284    3.9462 H   0  0  0  0  0  0  0  0  0  0  0  0
    2.6572   -0.2676    4.0026 H   0  0  0  0  0  0  0  0  0  0  0  0
    1.9675   -1.5503    5.0225 H   0  0  0  0  0  0  0  0  0  0  0  0
    2.0795   -1.7786    3.2647 H   0  0  0  0  0  0  0  0  0  0  0  0
   -0.4121    0.1111    6.1850 N   0  0  0  0  0  0  0  0  0  0  0  0
   -0.7769    0.9922    7.2864 C   0  0  0  0  0  0  0  0  0  0  0  0
   -0.7421   -0.8493    6.1933 H   0  0  0  0  0  0  0  0  0  0  0  0
    0.1072    1.5110    7.6712 H   0  0  0  0  0  0  0  0  0  0  0  0
   -1.5076    1.7370    6.9544 H   0  0  0  0  0  0  0  0  0  0  0  0
   -1.2182    0.4124    8.1025 H   0  0  0  0  0  0  0  0  0  0  0  0
  1  2  2  0  0  0  0
  1  3  1  0  0  0  0
  1  7  1  0  0  0  0
  3  4  1  0  0  0  0
  3  5  1  0  0  0  0
  3  6  1  0  0  0  0
  7  8  1  0  0  0  0
  7 12  1  0  0  0  0
  8  9  1  0  0  0  0
  8 11  1  0  0  0  0
  8 13  1  0  0  0  0
  9 10  2  0  0  0  0
  9 17  1  0  0  0  0
 11 14  1  0  0  0  0
 11 15  1  0  0  0  0
 11 16  1  0  0  0  0
 17 18  1  0  0  0  0
 17 25  1  0  0  0  0
 18 19  1  0  0  0  0
 18 21  1  0  0  0  0
 18 26  1  0  0  0  0
 19 20  2  0  0  0  0
 19 29  1  0  0  0  0
 21 22  1  0  0  0  0
 21 27  1  0  0  0  0
 21 28  1  0  0  0  0
 22 23  1  0  0  0  0
 22 24  2  0  0  0  0
 29 30  1  0  0  0  0
 29 34  1  0  0  0  0
 30 31  1  0  0  0  0
 30 33  1  0  0  0  0
 30 35  1  0  0  0  0
 31 32  2  0  0  0  0
 31 39  1  0  0  0  0
 33 36  1  0  0  0  0
 33 37  1  0  0  0  0
 33 38  1  0  0  0  0
 39 40  1  0  0  0  0
 39 41  1  0  0  0  0
 40 42  1  0  0  0  0
 40 43  1  0  0  0  0
 40 44  1  0  0  0  0
M  CHG  1  23  -1
M  END
$$$$

  -OEChem-05262215553D

 44 43  0     1  0  0  0  0  0999 V2000
   -4.5743   -0.0825   -4.1737 C   0  0  0  0  0  0  0  0  0  0  0  0
   -4.3658   -1.1797   -4.6715 O   0  0  0  0  0  0  0  0  0  0  0  0
   -5.9321    0.5754   -4.3388 C   0  0  0  0  0  0  0  0  0  0  0  0
   -5.8286    1.5009   -4.9102 H   0  0  0  0  0  0  0  0  0  0  0  0
   -6.6159   -0.0929   -4.8689 H   0  0  0  0  0  0  0  0  0  0  0  0
   -6.3540    0.8075   -3.3579 H   0  0  0  0  0  0  0  0  0  0  0  0
   -3.5923    0.5724   -3.4645 N   0  0  0  0  0  0  0  0  0  0  0  0
   -2.3291   -0.0372   -3.0293 C   0  0  2  0  0  0  0  0  0  0  0  0
   -2.0631    0.2261   -1.5304 C   0  0  0  0  0  0  0  0  0  0  0  0
   -2.8996    0.8222   -0.8585 O   0  0  0  0  0  0  0  0  0  0  0  0
   -1.2073    0.5542   -3.8879 C   0  0  0  0  0  0  0  0  0  0  0  0
   -3.8879    1.3884   -2.9293 H   0  0  0  0  0  0  0  0  0  0  0  0
   -2.3579   -1.1224   -3.1699 H   0  0  0  0  0  0  0  0  0  0  0  0
   -1.1481    1.6390   -3.7466 H   0  0  0  0  0  0  0  0  0  0  0  0
   -0.2407    0.1202   -3.6156 H   0  0  0  0  0  0  0  0  0  0  0  0
   -1.3918    0.3502   -4.9467 H   0  0  0  0  0  0  0  0  0  0  0  0
   -0.9614   -0.3363   -0.9137 N   0  0  0  0  0  0  0  0  0  0  0  0
   -0.0763    0.3560    0.0485 C   0  0  2  0  0  0  0  0  0  0  0  0
   -0.0779   -0.3648    1.4176 C   0  0  0  0  0  0  0  0  0  0  0  0
   -0.1241   -1.5917    1.4710 O   0  0  0  0  0  0  0  0  0  0  0  0
   -0.2312    1.9012    0.1196 C   0  0  0  0  0  0  0  0  0  0  0  0
    0.2635    2.5872   -1.1551 C   0  0  0  0  0  0  0  0  0  0  0  0
    1.1789    2.0311   -1.8150 O   0  5  0  0  0  0  0  0  0  0  0  0
   -0.2675    3.6791   -1.4640 O   0  0  0  0  0  0  0  0  0  0  0  0
   -0.4521   -0.9582   -1.5314 H   0  0  0  0  0  0  0  0  0  0  0  0
    0.9448    0.1800   -0.3033 H   0  0  0  0  0  0  0  0  0  0  0  0
    0.3922    2.2906    0.9272 H   0  0  0  0  0  0  0  0  0  0  0  0
   -1.2591    2.1954    0.3390 H   0  0  0  0  0  0  0  0  0  0  0  0
    0.1216    0.3229    2.6023 N   0  0  0  0  0  0  0  0  0  0  0  0
    0.1105   -0.2931    3.9351 C   0  0  2  0  0  0  0  0  0  0  0  0
   -0.5543    0.6072    4.9958 C   0  0  0  0  0  0  0  0  0  0  0  0
   -0.4380    1.8261    4.9447 O   0  0  0  0  0  0  0  0  0  0  0  0
    1.5560   -0.6020    4.3327 C   0  0  0  0  0  0  0  0  0  0  0  0
    0.0741    1.3404    2.5514 H   0  0  0  0  0  0  0  0  0  0  0  0
   -0.4580   -1.2280    3.9034 H   0  0  0  0  0  0  0  0  0  0  0  0
    2.1466    0.3190    4.3732 H   0  0  0  0  0  0  0  0  0  0  0  0
    1.5880   -1.0810    5.3156 H   0  0  0  0  0  0  0  0  0  0  0  0
    2.0132   -1.2776    3.6030 H   0  0  0  0  0  0  0  0  0  0  0  0
   -1.2585    0.0389    6.0423 N   0  0  0  0  0  0  0  0  0  0  0  0
   -1.9539    0.8222    7.0548 C   0  0  0  0  0  0  0  0  0  0  0  0
   -1.3922   -0.9674    6.0200 H   0  0  0  0  0  0  0  0  0  0  0  0
   -1.2424    1.4278    7.6253 H   0  0  0  0  0  0  0  0  0  0  0  0
   -2.6886    1.4867    6.5880 H   0  0  0  0  0  0  0  0  0  0  0  0
   -2.4791    0.1601    7.7494 H   0  0  0  0  0  0  0  0  0  0  0  0
  1  2  2  0  0  0  0
  1  3  1  0  0  0  0
  1  7  1  0  0  0  0
  3  4  1  0  0  0  0
  3  5  1  0  0  0  0
  3  6  1  0  0  0  0
  7  8  1  0  0  0  0
  7 12  1  0  0  0  0
  8  9  1  0  0  0  0
  8 11  1  0  0  0  0
  8 13  1  0  0  0  0
  9 10  2  0  0  0  0
  9 17  1  0  0  0  0
 11 14  1  0  0  0  0
 11 15  1  0  0  0  0
 11 16  1  0  0  0  0
 17 18  1  0  0  0  0
 17 25  1  0  0  0  0
 18 19  1  0  0  0  0
 18 21  1  0  0  0  0
 18 26  1  0  0  0  0
 19 20  2  0  0  0  0
 19 29  1  0  0  0  0
 21 22  1  0  0  0  0
 21 27  1  0  0  0  0
 21 28  1  0  0  0  0
 22 23  1  0  0  0  0
 22 24  2  0  0  0  0
 29 30  1  0  0  0  0
 29 34  1  0  0  0  0
 30 31  1  0  0  0  0
 30 33  1  0  0  0  0
 30 35  1  0  0  0  0
 31 32  2  0  0  0  0
 31 39  1  0  0  0  0
 33 36  1  0  0  0  0
 33 37  1  0  0  0  0
 33 38  1  0  0  0  0
 39 40  1  0  0  0  0
 39 41  1  0  0  0  0
 40 42  1  0  0  0  0
 40 43  1  0  0  0  0
 40 44  1  0  0  0  0
M  CHG  1  23  -1
M  END
$$$$

  -OEChem-05262215553D

 44 43  0     1  0  0  0  0  0999 V2000
   -4.5543   -0.0940   -4.1697 C   0  0  0  0  0  0  0  0  0  0  0  0
   -4.3649   -1.2077   -4.6375 O   0  0  0  0  0  0  0  0  0  0  0  0
   -5.9096    0.5707   -4.3282 C   0  0  0  0  0  0  0  0  0  0  0  0
   -5.8077    1.4871   -4.9149 H   0  0  0  0  0  0  0  0  0  0  0  0
   -6.6042   -0.1018   -4.8388 H   0  0  0  0  0  0  0  0  0  0  0  0
   -6.3178    0.8203   -3.3457 H   0  0  0  0  0  0  0  0  0  0  0  0
   -3.5545    0.5733   -3.4980 N   0  0  0  0  0  0  0  0  0  0  0  0
   -2.3007   -0.0434   -3.0455 C   0  0  2  0  0  0  0  0  0  0  0  0
   -2.0616    0.2081   -1.5396 C   0  0  0  0  0  0  0  0  0  0  0  0
   -2.9170    0.7804   -0.8710 O   0  0  0  0  0  0  0  0  0  0  0  0
   -1.1640    0.5512   -3.8827 C   0  0  0  0  0  0  0  0  0  0  0  0
   -3.8379    1.4063   -2.9829 H   0  0  0  0  0  0  0  0  0  0  0  0
   -2.3271   -1.1275   -3.1945 H   0  0  0  0  0  0  0  0  0  0  0  0
   -1.1055    1.6352   -3.7345 H   0  0  0  0  0  0  0  0  0  0  0  0
   -0.2016    0.1146   -3.5989 H   0  0  0  0  0  0  0  0  0  0  0  0
   -1.3320    0.3533   -4.9454 H   0  0  0  0  0  0  0  0  0  0  0  0
   -0.9610   -0.3419   -0.9099 N   0  0  0  0  0  0  0  0  0  0  0  0
   -0.0915    0.3708    0.0507 C   0  0  2  0  0  0  0  0  0  0  0  0
   -0.1053   -0.3398    1.4224 C   0  0  0  0  0  0  0  0  0  0  0  0
    0.0690   -1.5543    1.4876 O   0  0  0  0  0  0  0  0  0  0  0  0
   -0.2723    1.9128    0.1173 C   0  0  0  0  0  0  0  0  0  0  0  0
    0.2129    2.6043   -1.1572 C   0  0  0  0  0  0  0  0  0  0  0  0
    1.1389    2.0627   -1.8142 O   0  5  0  0  0  0  0  0  0  0  0  0
   -0.3425    3.6819   -1.4736 O   0  0  0  0  0  0  0  0  0  0  0  0
   -0.4354   -0.9531   -1.5250 H   0  0  0  0  0  0  0  0  0  0  0  0
    0.9359    0.2092   -0.2907 H   0  0  0  0  0  0  0  0  0  0  0  0
    0.3441    2.3096    0.9272 H   0  0  0  0  0  0  0  0  0  0  0  0
   -1.3056    2.1905    0.3333 H   0  0  0  0  0  0  0  0  0  0  0  0
   -0.2330    0.3653    2.6059 N   0  0  0  0  0  0  0  0  0  0  0  0
   -0.2866   -0.2447    3.9396 C   0  0  2  0  0  0  0  0  0  0  0  0
   -1.2309    0.5161    4.8920 C   0  0  0  0  0  0  0  0  0  0  0  0
   -1.2373    1.7414    4.9195 O   0  0  0  0  0  0  0  0  0  0  0  0
    1.1342   -0.2782    4.5086 C   0  0  0  0  0  0  0  0  0  0  0  0
   -0.4556    1.3573    2.5243 H   0  0  0  0  0  0  0  0  0  0  0  0
   -0.6623   -1.2700    3.8599 H   0  0  0  0  0  0  0  0  0  0  0  0
    1.5368    0.7365    4.5918 H   0  0  0  0  0  0  0  0  0  0  0  0
    1.1374   -0.7385    5.5009 H   0  0  0  0  0  0  0  0  0  0  0  0
    1.7900   -0.8607    3.8540 H   0  0  0  0  0  0  0  0  0  0  0  0
   -2.0591   -0.1829    5.7525 N   0  0  0  0  0  0  0  0  0  0  0  0
   -3.0366    0.4660    6.6163 C   0  0  0  0  0  0  0  0  0  0  0  0
   -2.1003   -1.1910    5.6361 H   0  0  0  0  0  0  0  0  0  0  0  0
   -2.5455    1.1893    7.2759 H   0  0  0  0  0  0  0  0  0  0  0  0
   -3.7886    0.9891    6.0166 H   0  0  0  0  0  0  0  0  0  0  0  0
   -3.5439   -0.2782    7.2377 H   0  0  0  0  0  0  0  0  0  0  0  0
  1  2  2  0  0  0  0
  1  3  1  0  0  0  0
  1  7  1  0  0  0  0
  3  4  1  0  0  0  0
  3  5  1  0  0  0  0
  3  6  1  0  0  0  0
  7  8  1  0  0  0  0
  7 12  1  0  0  0  0
  8  9  1  0  0  0  0
  8 11  1  0  0  0  0
  8 13  1  0  0  0  0
  9 10  2  0  0  0  0
  9 17  1  0  0  0  0
 11 14  1  0  0  0  0
 11 15  1  0  0  0  0
 11 16  1  0  0  0  0
 17 18  1  0  0  0  0
 17 25  1  0  0  0  0
 18 19  1  0  0  0  0
 18 21  1  0  0  0  0
 18 26  1  0  0  0  0
 19 20  2  0  0  0  0
 19 29  1  0  0  0  0
 21 22  1  0  0  0  0
 21 27  1  0  0  0  0
 21 28  1  0  0  0  0
 22 23  1  0  0  0  0
 22 24  2  0  0  0  0
 29 30  1  0  0  0  0
 29 34  1  0  0  0  0
 30 31  1  0  0  0  0
 30 33  1  0  0  0  0
 30 35  1  0  0  0  0
 31 32  2  0  0  0  0
 31 39  1  0  0  0  0
 33 36  1  0  0  0  0
 33 37  1  0  0  0  0
 33 38  1  0  0  0  0
 39 40  1  0  0  0  0
 39 41  1  0  0  0  0
 40 42  1  0  0  0  0
 40 43  1  0  0  0  0
 40 44  1  0  0  0  0
M  CHG  1  23  -1
M  END
$$$$

  -OEChem-05262215553D

 44 43  0     1  0  0  0  0  0999 V2000
   -4.5424   -0.1062   -4.1667 C   0  0  0  0  0  0  0  0  0  0  0  0
   -4.3593   -1.2280   -4.6175 O   0  0  0  0  0  0  0  0  0  0  0  0
   -5.8957    0.5608   -4.3314 C   0  0  0  0  0  0  0  0  0  0  0  0
   -5.7890    1.4797   -4.9129 H   0  0  0  0  0  0  0  0  0  0  0  0
   -6.5878   -0.1078   -4.8503 H   0  0  0  0  0  0  0  0  0  0  0  0
   -6.3099    0.8059   -3.3502 H   0  0  0  0  0  0  0  0  0  0  0  0
   -3.5374    0.5673   -3.5088 N   0  0  0  0  0  0  0  0  0  0  0  0
   -2.2848   -0.0486   -3.0519 C   0  0  2  0  0  0  0  0  0  0  0  0
   -2.0506    0.2003   -1.5449 C   0  0  0  0  0  0  0  0  0  0  0  0
   -2.9156    0.7541   -0.8731 O   0  0  0  0  0  0  0  0  0  0  0  0
   -1.1483    0.5491   -3.8859 C   0  0  0  0  0  0  0  0  0  0  0  0
   -3.8157    1.4095   -3.0062 H   0  0  0  0  0  0  0  0  0  0  0  0
   -2.3090   -1.1322   -3.2032 H   0  0  0  0  0  0  0  0  0  0  0  0
   -1.0923    1.6329   -3.7356 H   0  0  0  0  0  0  0  0  0  0  0  0
   -0.1860    0.1132   -3.6007 H   0  0  0  0  0  0  0  0  0  0  0  0
   -1.3146    0.3531   -4.9493 H   0  0  0  0  0  0  0  0  0  0  0  0
   -0.9486   -0.3414   -0.9105 N   0  0  0  0  0  0  0  0  0  0  0  0
   -0.0863    0.3884    0.0428 C   0  0  2  0  0  0  0  0  0  0  0  0
   -0.1020   -0.3095    1.4186 C   0  0  0  0  0  0  0  0  0  0  0  0
    0.2728   -1.4747    1.5216 O   0  0  0  0  0  0  0  0  0  0  0  0
   -0.2869    1.9272    0.1076 C   0  0  0  0  0  0  0  0  0  0  0  0
    0.1832    2.6237   -1.1697 C   0  0  0  0  0  0  0  0  0  0  0  0
    1.1134    2.0935   -1.8298 O   0  5  0  0  0  0  0  0  0  0  0  0
   -0.3932    3.6894   -1.4889 O   0  0  0  0  0  0  0  0  0  0  0  0
   -0.4125   -0.9405   -1.5290 H   0  0  0  0  0  0  0  0  0  0  0  0
    0.9435    0.2370   -0.2966 H   0  0  0  0  0  0  0  0  0  0  0  0
    0.3239    2.3292    0.9198 H   0  0  0  0  0  0  0  0  0  0  0  0
   -1.3240    2.1911    0.3240 H   0  0  0  0  0  0  0  0  0  0  0  0
   -0.5380    0.3475    2.5551 N   0  0  0  0  0  0  0  0  0  0  0  0
   -0.6856   -0.2760    3.8752 C   0  0  2  0  0  0  0  0  0  0  0  0
   -1.8896    0.2901    4.6549 C   0  0  0  0  0  0  0  0  0  0  0  0
   -2.0959    1.4973    4.6982 O   0  0  0  0  0  0  0  0  0  0  0  0
    0.6106   -0.0597    4.6605 C   0  0  0  0  0  0  0  0  0  0  0  0
   -0.9353    1.2771    2.4173 H   0  0  0  0  0  0  0  0  0  0  0  0
   -0.8512   -1.3512    3.7555 H   0  0  0  0  0  0  0  0  0  0  0  0
    0.8049    1.0100    4.7902 H   0  0  0  0  0  0  0  0  0  0  0  0
    0.5409   -0.5243    5.6486 H   0  0  0  0  0  0  0  0  0  0  0  0
    1.4555   -0.5055    4.1263 H   0  0  0  0  0  0  0  0  0  0  0  0
   -2.7293   -0.5638    5.3481 N   0  0  0  0  0  0  0  0  0  0  0  0
   -3.9335   -0.1124    6.0330 C   0  0  0  0  0  0  0  0  0  0  0  0
   -2.5900   -1.5599    5.2083 H   0  0  0  0  0  0  0  0  0  0  0  0
   -3.6851    0.6310    6.7975 H   0  0  0  0  0  0  0  0  0  0  0  0
   -4.6341    0.3347    5.3202 H   0  0  0  0  0  0  0  0  0  0  0  0
   -4.4274   -0.9572    6.5220 H   0  0  0  0  0  0  0  0  0  0  0  0
  1  2  2  0  0  0  0
  1  3  1  0  0  0  0
  1  7  1  0  0  0  0
  3  4  1  0  0  0  0
  3  5  1  0  0  0  0
  3  6  1  0  0  0  0
  7  8  1  0  0  0  0
  7 12  1  0  0  0  0
  8  9  1  0  0  0  0
  8 11  1  0  0  0  0
  8 13  1  0  0  0  0
  9 10  2  0  0  0  0
  9 17  1  0  0  0  0
 11 14  1  0  0  0  0
 11 15  1  0  0  0  0
 11 16  1  0  0  0  0
 17 18  1  0  0  0  0
 17 25  1  0  0  0  0
 18 19  1  0  0  0  0
 18 21  1  0  0  0  0
 18 26  1  0  0  0  0
 19 20  2  0  0  0  0
 19 29  1  0  0  0  0
 21 22  1  0  0  0  0
 21 27  1  0  0  0  0
 21 28  1  0  0  0  0
 22 23  1  0  0  0  0
 22 24  2  0  0  0  0
 29 30  1  0  0  0  0
 29 34  1  0  0  0  0
 30 31  1  0  0  0  0
 30 33  1  0  0  0  0
 30 35  1  0  0  0  0
 31 32  2  0  0  0  0
 31 39  1  0  0  0  0
 33 36  1  0  0  0  0
 33 37  1  0  0  0  0
 33 38  1  0  0  0  0
 39 40  1  0  0  0  0
 39 41  1  0  0  0  0
 40 42  1  0  0  0  0
 40 43  1  0  0  0  0
 40 44  1  0  0  0  0
M  CHG  1  23  -1
M  END
$$$$

  -OEChem-05262215553D

 44 43  0     1  0  0  0  0  0999 V2000
   -4.5323   -0.1194   -4.1600 C   0  0  0  0  0  0  0  0  0  0  0  0
   -4.3596   -1.2542   -4.5819 O   0  0  0  0  0  0  0  0  0  0  0  0
   -5.8882    0.5449   -4.3133 C   0  0  0  0  0  0  0  0  0  0  0  0
   -5.7904    1.4547   -4.9110 H   0  0  0  0  0  0  0  0  0  0  0  0
   -6.5884   -0.1319   -4.8108 H   0  0  0  0  0  0  0  0  0  0  0  0
   -6.2870    0.8055   -3.3295 H   0  0  0  0  0  0  0  0  0  0  0  0
   -3.5132    0.5731   -3.5445 N   0  0  0  0  0  0  0  0  0  0  0  0
   -2.2601   -0.0355   -3.0784 C   0  0  2  0  0  0  0  0  0  0  0  0
   -2.0344    0.2247   -1.5721 C   0  0  0  0  0  0  0  0  0  0  0  0
   -2.9003    0.7880   -0.9098 O   0  0  0  0  0  0  0  0  0  0  0  0
   -1.1207    0.5585   -3.9111 C   0  0  0  0  0  0  0  0  0  0  0  0
   -3.7851    1.4280   -3.0602 H   0  0  0  0  0  0  0  0  0  0  0  0
   -2.2797   -1.1200   -3.2235 H   0  0  0  0  0  0  0  0  0  0  0  0
   -1.0634    1.6425   -3.7641 H   0  0  0  0  0  0  0  0  0  0  0  0
   -0.1595    0.1224   -3.6224 H   0  0  0  0  0  0  0  0  0  0  0  0
   -1.2848    0.3591   -4.9743 H   0  0  0  0  0  0  0  0  0  0  0  0
   -0.9502   -0.3298   -0.9195 N   0  0  0  0  0  0  0  0  0  0  0  0
   -0.0899    0.3994    0.0348 C   0  0  2  0  0  0  0  0  0  0  0  0
   -0.1405   -0.2859    1.4134 C   0  0  0  0  0  0  0  0  0  0  0  0
    0.4128   -1.3690    1.5840 O   0  0  0  0  0  0  0  0  0  0  0  0
   -0.2748    1.9390    0.0962 C   0  0  0  0  0  0  0  0  0  0  0  0
    0.2102    2.6277   -1.1794 C   0  0  0  0  0  0  0  0  0  0  0  0
    1.1385    2.0861   -1.8329 O   0  5  0  0  0  0  0  0  0  0  0  0
   -0.3567    3.6960   -1.5075 O   0  0  0  0  0  0  0  0  0  0  0  0
   -0.4116   -0.9330   -1.5317 H   0  0  0  0  0  0  0  0  0  0  0  0
    0.9429    0.2355   -0.2913 H   0  0  0  0  0  0  0  0  0  0  0  0
    0.3327    2.3317    0.9156 H   0  0  0  0  0  0  0  0  0  0  0  0
   -1.3101    2.2153    0.3045 H   0  0  0  0  0  0  0  0  0  0  0  0
   -0.8581    0.2680    2.4579 N   0  0  0  0  0  0  0  0  0  0  0  0
   -1.0771   -0.3844    3.7540 C   0  0  2  0  0  0  0  0  0  0  0  0
   -2.4718   -0.0788    4.3355 C   0  0  0  0  0  0  0  0  0  0  0  0
   -2.9034    1.0677    4.3606 O   0  0  0  0  0  0  0  0  0  0  0  0
    0.0199    0.0747    4.7175 C   0  0  0  0  0  0  0  0  0  0  0  0
   -1.4043    1.1024    2.2399 H   0  0  0  0  0  0  0  0  0  0  0  0
   -1.0076   -1.4700    3.6337 H   0  0  0  0  0  0  0  0  0  0  0  0
   -0.0214    1.1601    4.8540 H   0  0  0  0  0  0  0  0  0  0  0  0
   -0.1033   -0.4052    5.6930 H   0  0  0  0  0  0  0  0  0  0  0  0
    1.0057   -0.1901    4.3220 H   0  0  0  0  0  0  0  0  0  0  0  0
   -3.2321   -1.0990    4.8793 N   0  0  0  0  0  0  0  0  0  0  0  0
   -4.5894   -0.9017    5.3702 C   0  0  0  0  0  0  0  0  0  0  0  0
   -2.8865   -2.0463    4.7585 H   0  0  0  0  0  0  0  0  0  0  0  0
   -4.5988   -0.1722    6.1866 H   0  0  0  0  0  0  0  0  0  0  0  0
   -5.2385   -0.5402    4.5657 H   0  0  0  0  0  0  0  0  0  0  0  0
   -4.9952   -1.8455    5.7459 H   0  0  0  0  0  0  0  0  0  0  0  0
  1  2  2  0  0  0  0
  1  3  1  0  0  0  0
  1  7  1  0  0  0  0
  3  4  1  0  0  0  0
  3  5  1  0  0  0  0
  3  6  1  0  0  0  0
  7  8  1  0  0  0  0
  7 12  1  0  0  0  0
  8  9  1  0  0  0  0
  8 11  1  0  0  0  0
  8 13  1  0  0  0  0
  9 10  2  0  0  0  0
  9 17  1  0  0  0  0
 11 14  1  0  0  0  0
 11 15  1  0  0  0  0
 11 16  1  0  0  0  0
 17 18  1  0  0  0  0
 17 25  1  0  0  0  0
 18 19  1  0  0  0  0
 18 21  1  0  0  0  0
 18 26  1  0  0  0  0
 19 20  2  0  0  0  0
 19 29  1  0  0  0  0
 21 22  1  0  0  0  0
 21 27  1  0  0  0  0
 21 28  1  0  0  0  0
 22 23  1  0  0  0  0
 22 24  2  0  0  0  0
 29 30  1  0  0  0  0
 29 34  1  0  0  0  0
 30 31  1  0  0  0  0
 30 33  1  0  0  0  0
 30 35  1  0  0  0  0
 31 32  2  0  0  0  0
 31 39  1  0  0  0  0
 33 36  1  0  0  0  0
 33 37  1  0  0  0  0
 33 38  1  0  0  0  0
 39 40  1  0  0  0  0
 39 41  1  0  0  0  0
 40 42  1  0  0  0  0
 40 43  1  0  0  0  0
 40 44  1  0  0  0  0
M  CHG  1  23  -1
M  END
$$$$

  -OEChem-05262215553D

 44 43  0     1  0  0  0  0  0999 V2000
   -4.8735    0.2441   -3.5717 C   0  0  0  0  0  0  0  0  0  0  0  0
   -5.0459   -0.9573   -3.7184 O   0  0  0  0  0  0  0  0  0  0  0  0
   -6.0462    1.1971   -3.7133 C   0  0  0  0  0  0  0  0  0  0  0  0
   -5.8497    1.9116   -4.5162 H   0  0  0  0  0  0  0  0  0  0  0  0
   -6.9592    0.6431   -3.9483 H   0  0  0  0  0  0  0  0  0  0  0  0
   -6.1952    1.7436   -2.7785 H   0  0  0  0  0  0  0  0  0  0  0  0
   -3.6281    0.7531   -3.2740 N   0  0  0  0  0  0  0  0  0  0  0  0
   -2.5032   -0.0613   -2.7943 C   0  0  2  0  0  0  0  0  0  0  0  0
   -2.1106    0.3150   -1.3488 C   0  0  0  0  0  0  0  0  0  0  0  0
   -2.6623    1.2541   -0.7816 O   0  0  0  0  0  0  0  0  0  0  0  0
   -1.3261    0.1672   -3.7440 C   0  0  0  0  0  0  0  0  0  0  0  0
   -3.6135    1.7266   -2.9736 H   0  0  0  0  0  0  0  0  0  0  0  0
   -2.7619   -1.1244   -2.8026 H   0  0  0  0  0  0  0  0  0  0  0  0
   -1.0152    1.2175   -3.7240 H   0  0  0  0  0  0  0  0  0  0  0  0
   -0.4699   -0.4489   -3.4523 H   0  0  0  0  0  0  0  0  0  0  0  0
   -1.6077   -0.0946   -4.7682 H   0  0  0  0  0  0  0  0  0  0  0  0
   -1.2959   -0.5099   -0.5980 N   0  0  0  0  0  0  0  0  0  0  0  0
   -0.1715   -0.0180    0.2232 C   0  0  2  0  0  0  0  0  0  0  0  0
   -0.4258   -0.3931    1.6914 C   0  0  0  0  0  0  0  0  0  0  0  0
   -0.1400   -1.5057    2.1245 O   0  0  0  0  0  0  0  0  0  0  0  0
    0.2493    1.4631    0.0370 C   0  0  0  0  0  0  0  0  0  0  0  0
    0.8871    1.7150   -1.3280 C   0  0  0  0  0  0  0  0  0  0  0  0
    1.4998    0.7676   -1.8826 O   0  5  0  0  0  0  0  0  0  0  0  0
    0.7552    2.8593   -1.8203 O   0  0  0  0  0  0  0  0  0  0  0  0
   -1.0534   -1.3540   -1.1067 H   0  0  0  0  0  0  0  0  0  0  0  0
    0.7037   -0.6151   -0.0548 H   0  0  0  0  0  0  0  0  0  0  0  0
    1.0045    1.7065    0.7892 H   0  0  0  0  0  0  0  0  0  0  0  0
   -0.5882    2.1457    0.1915 H   0  0  0  0  0  0  0  0  0  0  0  0
   -1.1174    0.4864    2.5022 N   0  0  0  0  0  0  0  0  0  0  0  0
   -1.5286    0.2107    3.8869 C   0  0  2  0  0  0  0  0  0  0  0  0
   -2.7725   -0.7098    3.9803 C   0  0  0  0  0  0  0  0  0  0  0  0
   -3.7462   -0.4177    4.6679 O   0  0  0  0  0  0  0  0  0  0  0  0
   -1.7397    1.5686    4.5677 C   0  0  0  0  0  0  0  0  0  0  0  0
   -1.5159    1.2934    2.0229 H   0  0  0  0  0  0  0  0  0  0  0  0
   -0.7127   -0.3021    4.4061 H   0  0  0  0  0  0  0  0  0  0  0  0
   -2.5645    2.1106    4.0939 H   0  0  0  0  0  0  0  0  0  0  0  0
   -1.9773    1.4304    5.6270 H   0  0  0  0  0  0  0  0  0  0  0  0
   -0.8329    2.1769    4.4944 H   0  0  0  0  0  0  0  0  0  0  0  0
   -2.7727   -1.9111    3.2991 N   0  0  0  0  0  0  0  0  0  0  0  0
   -3.9111   -2.8135    3.2253 C   0  0  0  0  0  0  0  0  0  0  0  0
   -1.9386   -2.1047    2.7380 H   0  0  0  0  0  0  0  0  0  0  0  0
   -4.2139   -3.1334    4.2275 H   0  0  0  0  0  0  0  0  0  0  0  0
   -4.7581   -2.3185    2.7393 H   0  0  0  0  0  0  0  0  0  0  0  0
   -3.6476   -3.7020    2.6438 H   0  0  0  0  0  0  0  0  0  0  0  0
  1  2  2  0  0  0  0
  1  3  1  0  0  0  0
  1  7  1  0  0  0  0
  3  4  1  0  0  0  0
  3  5  1  0  0  0  0
  3  6  1  0  0  0  0
  7  8  1  0  0  0  0
  7 12  1  0  0  0  0
  8  9  1  0  0  0  0
  8 11  1  0  0  0  0
  8 13  1  0  0  0  0
  9 10  2  0  0  0  0
  9 17  1  0  0  0  0
 11 14  1  0  0  0  0
 11 15  1  0  0  0  0
 11 16  1  0  0  0  0
 17 18  1  0  0  0  0
 17 25  1  0  0  0  0
 18 19  1  0  0  0  0
 18 21  1  0  0  0  0
 18 26  1  0  0  0  0
 19 20  2  0  0  0  0
 19 29  1  0  0  0  0
 21 22  1  0  0  0  0
 21 27  1  0  0  0  0
 21 28  1  0  0  0  0
 22 23  1  0  0  0  0
 22 24  2  0  0  0  0
 29 30  1  0  0  0  0
 29 34  1  0  0  0  0
 30 31  1  0  0  0  0
 30 33  1  0  0  0  0
 30 35  1  0  0  0  0
 31 32  2  0  0  0  0
 31 39  1  0  0  0  0
 33 36  1  0  0  0  0
 33 37  1  0  0  0  0
 33 38  1  0  0  0  0
 39 40  1  0  0  0  0
 39 41  1  0  0  0  0
 40 42  1  0  0  0  0
 40 43  1  0  0  0  0
 40 44  1  0  0  0  0
M  CHG  1  23  -1
M  END
$$$$

  -OEChem-05262215553D

 44 43  0     1  0  0  0  0  0999 V2000
   -4.8084    0.2903   -3.7275 C   0  0  0  0  0  0  0  0  0  0  0  0
   -4.9746   -0.9075   -3.9072 O   0  0  0  0  0  0  0  0  0  0  0  0
   -5.9766    1.2458   -3.8895 C   0  0  0  0  0  0  0  0  0  0  0  0
   -5.7429    1.9931   -4.6518 H   0  0  0  0  0  0  0  0  0  0  0  0
   -6.8742    0.6997   -4.1926 H   0  0  0  0  0  0  0  0  0  0  0  0
   -6.1758    1.7524   -2.9417 H   0  0  0  0  0  0  0  0  0  0  0  0
   -3.5741    0.7916   -3.3748 N   0  0  0  0  0  0  0  0  0  0  0  0
   -2.4621   -0.0358   -2.8863 C   0  0  2  0  0  0  0  0  0  0  0  0
   -2.1096    0.2990   -1.4206 C   0  0  0  0  0  0  0  0  0  0  0  0
   -2.6814    1.2143   -0.8337 O   0  0  0  0  0  0  0  0  0  0  0  0
   -1.2595    0.2125   -3.7986 C   0  0  0  0  0  0  0  0  0  0  0  0
   -3.5688    1.7577   -3.0516 H   0  0  0  0  0  0  0  0  0  0  0  0
   -2.7211   -1.0982   -2.9290 H   0  0  0  0  0  0  0  0  0  0  0  0
   -0.9440    1.2600   -3.7426 H   0  0  0  0  0  0  0  0  0  0  0  0
   -0.4148   -0.4166   -3.5014 H   0  0  0  0  0  0  0  0  0  0  0  0
   -1.5141   -0.0204   -4.8369 H   0  0  0  0  0  0  0  0  0  0  0  0
   -1.3419   -0.5594   -0.6594 N   0  0  0  0  0  0  0  0  0  0  0  0
   -0.2267   -0.1025    0.1945 C   0  0  2  0  0  0  0  0  0  0  0  0
   -0.5422   -0.4864    1.6467 C   0  0  0  0  0  0  0  0  0  0  0  0
   -0.0873   -1.5031    2.1624 O   0  0  0  0  0  0  0  0  0  0  0  0
    0.2213    1.3736    0.0492 C   0  0  0  0  0  0  0  0  0  0  0  0
    0.8909    1.6416   -1.2974 C   0  0  0  0  0  0  0  0  0  0  0  0
    1.4986    0.6942   -1.8575 O   0  5  0  0  0  0  0  0  0  0  0  0
    0.7718    2.7915   -1.7799 O   0  0  0  0  0  0  0  0  0  0  0  0
   -1.0980   -1.3940   -1.1833 H   0  0  0  0  0  0  0  0  0  0  0  0
    0.6450   -0.7125   -0.0679 H   0  0  0  0  0  0  0  0  0  0  0  0
    0.9627    1.5886    0.8228 H   0  0  0  0  0  0  0  0  0  0  0  0
   -0.6089    2.0662    0.2000 H   0  0  0  0  0  0  0  0  0  0  0  0
   -1.4908    0.2526    2.3262 N   0  0  0  0  0  0  0  0  0  0  0  0
   -1.9988   -0.0584    3.6700 C   0  0  2  0  0  0  0  0  0  0  0  0
   -3.0341   -1.2117    3.6748 C   0  0  0  0  0  0  0  0  0  0  0  0
   -4.1179   -1.1100    4.2412 O   0  0  0  0  0  0  0  0  0  0  0  0
   -2.5585    1.2471    4.2476 C   0  0  0  0  0  0  0  0  0  0  0  0
   -1.9809    0.9475    1.7606 H   0  0  0  0  0  0  0  0  0  0  0  0
   -1.1637   -0.3758    4.3028 H   0  0  0  0  0  0  0  0  0  0  0  0
   -3.4133    1.5924    3.6572 H   0  0  0  0  0  0  0  0  0  0  0  0
   -2.8874    1.0964    5.2805 H   0  0  0  0  0  0  0  0  0  0  0  0
   -1.7909    2.0271    4.2405 H   0  0  0  0  0  0  0  0  0  0  0  0
   -2.7163   -2.4030    3.0526 N   0  0  0  0  0  0  0  0  0  0  0  0
   -3.6255   -3.5310    2.9207 C   0  0  0  0  0  0  0  0  0  0  0  0
   -1.7965   -2.4403    2.6051 H   0  0  0  0  0  0  0  0  0  0  0  0
   -3.9704   -3.8632    3.9051 H   0  0  0  0  0  0  0  0  0  0  0  0
   -4.4944   -3.2522    2.3158 H   0  0  0  0  0  0  0  0  0  0  0  0
   -3.1161   -4.3669    2.4322 H   0  0  0  0  0  0  0  0  0  0  0  0
  1  2  2  0  0  0  0
  1  3  1  0  0  0  0
  1  7  1  0  0  0  0
  3  4  1  0  0  0  0
  3  5  1  0  0  0  0
  3  6  1  0  0  0  0
  7  8  1  0  0  0  0
  7 12  1  0  0  0  0
  8  9  1  0  0  0  0
  8 11  1  0  0  0  0
  8 13  1  0  0  0  0
  9 10  2  0  0  0  0
  9 17  1  0  0  0  0
 11 14  1  0  0  0  0
 11 15  1  0  0  0  0
 11 16  1  0  0  0  0
 17 18  1  0  0  0  0
 17 25  1  0  0  0  0
 18 19  1  0  0  0  0
 18 21  1  0  0  0  0
 18 26  1  0  0  0  0
 19 20  2  0  0  0  0
 19 29  1  0  0  0  0
 21 22  1  0  0  0  0
 21 27  1  0  0  0  0
 21 28  1  0  0  0  0
 22 23  1  0  0  0  0
 22 24  2  0  0  0  0
 29 30  1  0  0  0  0
 29 34  1  0  0  0  0
 30 31  1  0  0  0  0
 30 33  1  0  0  0  0
 30 35  1  0  0  0  0
 31 32  2  0  0  0  0
 31 39  1  0  0  0  0
 33 36  1  0  0  0  0
 33 37  1  0  0  0  0
 33 38  1  0  0  0  0
 39 40  1  0  0  0  0
 39 41  1  0  0  0  0
 40 42  1  0  0  0  0
 40 43  1  0  0  0  0
 40 44  1  0  0  0  0
M  CHG  1  23  -1
M  END
$$$$

  -OEChem-05262215553D

 44 43  0     1  0  0  0  0  0999 V2000
   -4.6595    0.4185   -3.9626 C   0  0  0  0  0  0  0  0  0  0  0  0
   -4.8271   -0.7712   -4.1882 O   0  0  0  0  0  0  0  0  0  0  0  0
   -5.8306    1.3781   -4.0694 C   0  0  0  0  0  0  0  0  0  0  0  0
   -5.6285    2.1293   -4.8367 H   0  0  0  0  0  0  0  0  0  0  0  0
   -6.7421    0.8357   -4.3351 H   0  0  0  0  0  0  0  0  0  0  0  0
   -5.9867    1.8798   -3.1111 H   0  0  0  0  0  0  0  0  0  0  0  0
   -3.4237    0.9052   -3.5948 N   0  0  0  0  0  0  0  0  0  0  0  0
   -2.3330    0.0558   -3.0956 C   0  0  2  0  0  0  0  0  0  0  0  0
   -2.0853    0.2915   -1.5889 C   0  0  0  0  0  0  0  0  0  0  0  0
   -2.7287    1.1389   -0.9737 O   0  0  0  0  0  0  0  0  0  0  0  0
   -1.0800    0.3815   -3.9098 C   0  0  0  0  0  0  0  0  0  0  0  0
   -3.4237    1.8585   -3.2362 H   0  0  0  0  0  0  0  0  0  0  0  0
   -2.5709   -1.0034   -3.2323 H   0  0  0  0  0  0  0  0  0  0  0  0
   -0.7777    1.4223   -3.7512 H   0  0  0  0  0  0  0  0  0  0  0  0
   -0.2492   -0.2663   -3.6136 H   0  0  0  0  0  0  0  0  0  0  0  0
   -1.2701    0.2325   -4.9766 H   0  0  0  0  0  0  0  0  0  0  0  0
   -1.3733   -0.6092   -0.8236 N   0  0  0  0  0  0  0  0  0  0  0  0
   -0.3182   -0.1942    0.1255 C   0  0  2  0  0  0  0  0  0  0  0  0
   -0.7363   -0.6484    1.5308 C   0  0  0  0  0  0  0  0  0  0  0  0
   -0.1106   -1.4924    2.1649 O   0  0  0  0  0  0  0  0  0  0  0  0
    0.1214    1.2904    0.0900 C   0  0  0  0  0  0  0  0  0  0  0  0
    0.8714    1.6346   -1.1954 C   0  0  0  0  0  0  0  0  0  0  0  0
    1.5228    0.7224   -1.7651 O   0  5  0  0  0  0  0  0  0  0  0  0
    0.7576    2.8031   -1.6325 O   0  0  0  0  0  0  0  0  0  0  0  0
   -1.0822   -1.4059   -1.3817 H   0  0  0  0  0  0  0  0  0  0  0  0
    0.5740   -0.7867   -0.1061 H   0  0  0  0  0  0  0  0  0  0  0  0
    0.8086    1.4695    0.9208 H   0  0  0  0  0  0  0  0  0  0  0  0
   -0.7257    1.9661    0.2244 H   0  0  0  0  0  0  0  0  0  0  0  0
   -1.9228   -0.1552    2.0375 N   0  0  0  0  0  0  0  0  0  0  0  0
   -2.4771   -0.4642    3.3626 C   0  0  2  0  0  0  0  0  0  0  0  0
   -3.1616   -1.8532    3.4324 C   0  0  0  0  0  0  0  0  0  0  0  0
   -4.2881   -2.0011    3.8968 O   0  0  0  0  0  0  0  0  0  0  0  0
   -3.4254    0.6855    3.7243 C   0  0  0  0  0  0  0  0  0  0  0  0
   -2.4462    0.4542    1.4045 H   0  0  0  0  0  0  0  0  0  0  0  0
   -1.6626   -0.4728    4.0938 H   0  0  0  0  0  0  0  0  0  0  0  0
   -4.2705    0.7177    3.0289 H   0  0  0  0  0  0  0  0  0  0  0  0
   -3.8142    0.5538    4.7388 H   0  0  0  0  0  0  0  0  0  0  0  0
   -2.8974    1.6430    3.6782 H   0  0  0  0  0  0  0  0  0  0  0  0
   -2.4672   -2.9675    3.0044 N   0  0  0  0  0  0  0  0  0  0  0  0
   -3.0013   -4.3205    3.0007 C   0  0  0  0  0  0  0  0  0  0  0  0
   -1.5240   -2.7943    2.6454 H   0  0  0  0  0  0  0  0  0  0  0  0
   -3.3042   -4.6172    4.0099 H   0  0  0  0  0  0  0  0  0  0  0  0
   -3.8687   -4.3866    2.3362 H   0  0  0  0  0  0  0  0  0  0  0  0
   -2.2397   -5.0221    2.6476 H   0  0  0  0  0  0  0  0  0  0  0  0
  1  2  2  0  0  0  0
  1  3  1  0  0  0  0
  1  7  1  0  0  0  0
  3  4  1  0  0  0  0
  3  5  1  0  0  0  0
  3  6  1  0  0  0  0
  7  8  1  0  0  0  0
  7 12  1  0  0  0  0
  8  9  1  0  0  0  0
  8 11  1  0  0  0  0
  8 13  1  0  0  0  0
  9 10  2  0  0  0  0
  9 17  1  0  0  0  0
 11 14  1  0  0  0  0
 11 15  1  0  0  0  0
 11 16  1  0  0  0  0
 17 18  1  0  0  0  0
 17 25  1  0  0  0  0
 18 19  1  0  0  0  0
 18 21  1  0  0  0  0
 18 26  1  0  0  0  0
 19 20  2  0  0  0  0
 19 29  1  0  0  0  0
 21 22  1  0  0  0  0
 21 27  1  0  0  0  0
 21 28  1  0  0  0  0
 22 23  1  0  0  0  0
 22 24  2  0  0  0  0
 29 30  1  0  0  0  0
 29 34  1  0  0  0  0
 30 31  1  0  0  0  0
 30 33  1  0  0  0  0
 30 35  1  0  0  0  0
 31 32  2  0  0  0  0
 31 39  1  0  0  0  0
 33 36  1  0  0  0  0
 33 37  1  0  0  0  0
 33 38  1  0  0  0  0
 39 40  1  0  0  0  0
 39 41  1  0  0  0  0
 40 42  1  0  0  0  0
 40 43  1  0  0  0  0
 40 44  1  0  0  0  0
M  CHG  1  23  -1
M  END
$$$$

  -OEChem-05262215553D

 44 43  0     1  0  0  0  0  0999 V2000
   -4.5242    0.7089   -4.3190 C   0  0  0  0  0  0  0  0  0  0  0  0
   -4.6710   -0.4411   -4.7074 O   0  0  0  0  0  0  0  0  0  0  0  0
   -5.6489    1.7134   -4.4897 C   0  0  0  0  0  0  0  0  0  0  0  0
   -5.3078    2.5522   -5.1013 H   0  0  0  0  0  0  0  0  0  0  0  0
   -6.5067    1.2443   -4.9790 H   0  0  0  0  0  0  0  0  0  0  0  0
   -5.9621    2.0887   -3.5121 H   0  0  0  0  0  0  0  0  0  0  0  0
   -3.3498    1.1143   -3.7234 N   0  0  0  0  0  0  0  0  0  0  0  0
   -2.3190    0.1931   -3.2258 C   0  0  2  0  0  0  0  0  0  0  0  0
   -2.1653    0.2905   -1.6910 C   0  0  0  0  0  0  0  0  0  0  0  0
   -2.9131    1.0052   -1.0285 O   0  0  0  0  0  0  0  0  0  0  0  0
   -1.0086    0.5429   -3.9334 C   0  0  0  0  0  0  0  0  0  0  0  0
   -3.3805    2.0227   -3.2638 H   0  0  0  0  0  0  0  0  0  0  0  0
   -2.5779   -0.8432   -3.4635 H   0  0  0  0  0  0  0  0  0  0  0  0
   -0.7052    1.5686   -3.6976 H   0  0  0  0  0  0  0  0  0  0  0  0
   -0.2082   -0.1336   -3.6190 H   0  0  0  0  0  0  0  0  0  0  0  0
   -1.1272    0.4566   -5.0176 H   0  0  0  0  0  0  0  0  0  0  0  0
   -1.4254   -0.6316   -0.9791 N   0  0  0  0  0  0  0  0  0  0  0  0
   -0.4375   -0.2434    0.0533 C   0  0  2  0  0  0  0  0  0  0  0  0
   -0.8637   -0.8463    1.4007 C   0  0  0  0  0  0  0  0  0  0  0  0
   -0.0817   -1.4537    2.1250 O   0  0  0  0  0  0  0  0  0  0  0  0
   -0.1066    1.2643    0.1692 C   0  0  0  0  0  0  0  0  0  0  0  0
    0.6642    1.7760   -1.0458 C   0  0  0  0  0  0  0  0  0  0  0  0
    1.4014    0.9670   -1.6649 O   0  5  0  0  0  0  0  0  0  0  0  0
    0.4728    2.9655   -1.3893 O   0  0  0  0  0  0  0  0  0  0  0  0
   -1.0513   -1.3425   -1.6001 H   0  0  0  0  0  0  0  0  0  0  0  0
    0.5011   -0.7513   -0.1942 H   0  0  0  0  0  0  0  0  0  0  0  0
    0.5350    1.4132    1.0412 H   0  0  0  0  0  0  0  0  0  0  0  0
   -1.0067    1.8624    0.3274 H   0  0  0  0  0  0  0  0  0  0  0  0
   -2.1917   -0.7468    1.7683 N   0  0  0  0  0  0  0  0  0  0  0  0
   -2.7382   -1.1272    3.0786 C   0  0  2  0  0  0  0  0  0  0  0  0
   -2.9612   -2.6535    3.2348 C   0  0  0  0  0  0  0  0  0  0  0  0
   -4.0078   -3.1149    3.6801 O   0  0  0  0  0  0  0  0  0  0  0  0
   -4.0257   -0.3166    3.2729 C   0  0  0  0  0  0  0  0  0  0  0  0
   -2.7762   -0.2123    1.1219 H   0  0  0  0  0  0  0  0  0  0  0  0
   -2.0305   -0.8277    3.8587 H   0  0  0  0  0  0  0  0  0  0  0  0
   -4.7725   -0.5984    2.5237 H   0  0  0  0  0  0  0  0  0  0  0  0
   -4.4443   -0.4988    4.2676 H   0  0  0  0  0  0  0  0  0  0  0  0
   -3.8201    0.7540    3.1765 H   0  0  0  0  0  0  0  0  0  0  0  0
   -1.9331   -3.5215    2.9233 N   0  0  0  0  0  0  0  0  0  0  0  0
   -1.9902   -4.9640    3.1020 C   0  0  0  0  0  0  0  0  0  0  0  0
   -1.0580   -3.0833    2.6210 H   0  0  0  0  0  0  0  0  0  0  0  0
   -2.1117   -5.2128    4.1611 H   0  0  0  0  0  0  0  0  0  0  0  0
   -2.8289   -5.3867    2.5394 H   0  0  0  0  0  0  0  0  0  0  0  0
   -1.0653   -5.4238    2.7409 H   0  0  0  0  0  0  0  0  0  0  0  0
  1  2  2  0  0  0  0
  1  3  1  0  0  0  0
  1  7  1  0  0  0  0
  3  4  1  0  0  0  0
  3  5  1  0  0  0  0
  3  6  1  0  0  0  0
  7  8  1  0  0  0  0
  7 12  1  0  0  0  0
  8  9  1  0  0  0  0
  8 11  1  0  0  0  0
  8 13  1  0  0  0  0
  9 10  2  0  0  0  0
  9 17  1  0  0  0  0
 11 14  1  0  0  0  0
 11 15  1  0  0  0  0
 11 16  1  0  0  0  0
 17 18  1  0  0  0  0
 17 25  1  0  0  0  0
 18 19  1  0  0  0  0
 18 21  1  0  0  0  0
 18 26  1  0  0  0  0
 19 20  2  0  0  0  0
 19 29  1  0  0  0  0
 21 22  1  0  0  0  0
 21 27  1  0  0  0  0
 21 28  1  0  0  0  0
 22 23  1  0  0  0  0
 22 24  2  0  0  0  0
 29 30  1  0  0  0  0
 29 34  1  0  0  0  0
 30 31  1  0  0  0  0
 30 33  1  0  0  0  0
 30 35  1  0  0  0  0
 31 32  2  0  0  0  0
 31 39  1  0  0  0  0
 33 36  1  0  0  0  0
 33 37  1  0  0  0  0
 33 38  1  0  0  0  0
 39 40  1  0  0  0  0
 39 41  1  0  0  0  0
 40 42  1  0  0  0  0
 40 43  1  0  0  0  0
 40 44  1  0  0  0  0
M  CHG  1  23  -1
M  END
$$$$

  -OEChem-05262215553D

 44 43  0     1  0  0  0  0  0999 V2000
   -4.5032    1.0895   -4.4256 C   0  0  0  0  0  0  0  0  0  0  0  0
   -4.7475   -0.0026   -4.9185 O   0  0  0  0  0  0  0  0  0  0  0  0
   -5.5174    2.2131   -4.5416 C   0  0  0  0  0  0  0  0  0  0  0  0
   -5.0689    3.0685   -5.0528 H   0  0  0  0  0  0  0  0  0  0  0  0
   -6.3903    1.8797   -5.1095 H   0  0  0  0  0  0  0  0  0  0  0  0
   -5.8424    2.5238   -3.5454 H   0  0  0  0  0  0  0  0  0  0  0  0
   -3.3151    1.3219   -3.7677 N   0  0  0  0  0  0  0  0  0  0  0  0
   -2.3930    0.2649   -3.3296 C   0  0  2  0  0  0  0  0  0  0  0  0
   -2.2696    0.2203   -1.7887 C   0  0  0  0  0  0  0  0  0  0  0  0
   -3.0843    0.8007   -1.0776 O   0  0  0  0  0  0  0  0  0  0  0  0
   -1.0420    0.5386   -3.9950 C   0  0  0  0  0  0  0  0  0  0  0  0
   -3.2598    2.1969   -3.2488 H   0  0  0  0  0  0  0  0  0  0  0  0
   -2.7478   -0.7185   -3.6531 H   0  0  0  0  0  0  0  0  0  0  0  0
   -0.6638    1.5251   -3.7060 H   0  0  0  0  0  0  0  0  0  0  0  0
   -0.3030   -0.2131   -3.7014 H   0  0  0  0  0  0  0  0  0  0  0  0
   -1.1453    0.5138   -5.0841 H   0  0  0  0  0  0  0  0  0  0  0  0
   -1.4736   -0.7095   -1.1495 N   0  0  0  0  0  0  0  0  0  0  0  0
   -0.5180   -0.3444   -0.0760 C   0  0  2  0  0  0  0  0  0  0  0  0
   -0.8894   -1.0759    1.2264 C   0  0  0  0  0  0  0  0  0  0  0  0
   -0.0412   -1.4222    2.0422 O   0  0  0  0  0  0  0  0  0  0  0  0
   -0.2905    1.1698    0.1507 C   0  0  0  0  0  0  0  0  0  0  0  0
    0.4525    1.8166   -1.0165 C   0  0  0  0  0  0  0  0  0  0  0  0
    1.2470    1.1040   -1.6821 O   0  5  0  0  0  0  0  0  0  0  0  0
    0.1632    3.0038   -1.2948 O   0  0  0  0  0  0  0  0  0  0  0  0
   -1.0390   -1.3245   -1.8306 H   0  0  0  0  0  0  0  0  0  0  0  0
    0.4521   -0.7692   -0.3560 H   0  0  0  0  0  0  0  0  0  0  0  0
    0.3336    1.2994    1.0387 H   0  0  0  0  0  0  0  0  0  0  0  0
   -1.2301    1.6928    0.3406 H   0  0  0  0  0  0  0  0  0  0  0  0
   -2.2163   -1.3819    1.4633 N   0  0  0  0  0  0  0  0  0  0  0  0
   -2.7490   -1.8378    2.7559 C   0  0  2  0  0  0  0  0  0  0  0  0
   -2.5270   -3.3491    3.0253 C   0  0  0  0  0  0  0  0  0  0  0  0
   -3.4299   -4.0751    3.4307 O   0  0  0  0  0  0  0  0  0  0  0  0
   -4.2310   -1.4434    2.7823 C   0  0  0  0  0  0  0  0  0  0  0  0
   -2.8635   -0.9659    0.7915 H   0  0  0  0  0  0  0  0  0  0  0  0
   -2.2420   -1.2940    3.5597 H   0  0  0  0  0  0  0  0  0  0  0  0
   -4.7852   -1.9839    2.0082 H   0  0  0  0  0  0  0  0  0  0  0  0
   -4.6715   -1.6805    3.7557 H   0  0  0  0  0  0  0  0  0  0  0  0
   -4.3423   -0.3688    2.6068 H   0  0  0  0  0  0  0  0  0  0  0  0
   -1.2653   -3.8877    2.8674 N   0  0  0  0  0  0  0  0  0  0  0  0
   -0.9096   -5.2625    3.1832 C   0  0  0  0  0  0  0  0  0  0  0  0
   -0.5316   -3.2247    2.5999 H   0  0  0  0  0  0  0  0  0  0  0  0
   -1.0253   -5.4498    4.2555 H   0  0  0  0  0  0  0  0  0  0  0  0
   -1.5466   -5.9603    2.6300 H   0  0  0  0  0  0  0  0  0  0  0  0
    0.1319   -5.4523    2.9067 H   0  0  0  0  0  0  0  0  0  0  0  0
  1  2  2  0  0  0  0
  1  3  1  0  0  0  0
  1  7  1  0  0  0  0
  3  4  1  0  0  0  0
  3  5  1  0  0  0  0
  3  6  1  0  0  0  0
  7  8  1  0  0  0  0
  7 12  1  0  0  0  0
  8  9  1  0  0  0  0
  8 11  1  0  0  0  0
  8 13  1  0  0  0  0
  9 10  2  0  0  0  0
  9 17  1  0  0  0  0
 11 14  1  0  0  0  0
 11 15  1  0  0  0  0
 11 16  1  0  0  0  0
 17 18  1  0  0  0  0
 17 25  1  0  0  0  0
 18 19  1  0  0  0  0
 18 21  1  0  0  0  0
 18 26  1  0  0  0  0
 19 20  2  0  0  0  0
 19 29  1  0  0  0  0
 21 22  1  0  0  0  0
 21 27  1  0  0  0  0
 21 28  1  0  0  0  0
 22 23  1  0  0  0  0
 22 24  2  0  0  0  0
 29 30  1  0  0  0  0
 29 34  1  0  0  0  0
 30 31  1  0  0  0  0
 30 33  1  0  0  0  0
 30 35  1  0  0  0  0
 31 32  2  0  0  0  0
 31 39  1  0  0  0  0
 33 36  1  0  0  0  0
 33 37  1  0  0  0  0
 33 38  1  0  0  0  0
 39 40  1  0  0  0  0
 39 41  1  0  0  0  0
 40 42  1  0  0  0  0
 40 43  1  0  0  0  0
 40 44  1  0  0  0  0
M  CHG  1  23  -1
M  END
$$$$

  -OEChem-05262215553D

 44 43  0     1  0  0  0  0  0999 V2000
   -4.5205    0.3519   -4.5223 C   0  0  0  0  0  0  0  0  0  0  0  0
   -4.2363   -0.6336   -5.1876 O   0  0  0  0  0  0  0  0  0  0  0  0
   -5.9204    0.9344   -4.5987 C   0  0  0  0  0  0  0  0  0  0  0  0
   -5.8806    1.9464   -5.0089 H   0  0  0  0  0  0  0  0  0  0  0  0
   -6.5535    0.3162   -5.2413 H   0  0  0  0  0  0  0  0  0  0  0  0
   -6.3623    0.9716   -3.5997 H   0  0  0  0  0  0  0  0  0  0  0  0
   -3.5904    0.9387   -3.6928 N   0  0  0  0  0  0  0  0  0  0  0  0
   -2.3060    0.3306   -3.3215 C   0  0  2  0  0  0  0  0  0  0  0  0
   -2.0873    0.3691   -1.7922 C   0  0  0  0  0  0  0  0  0  0  0  0
   -2.9632    0.8142   -1.0569 O   0  0  0  0  0  0  0  0  0  0  0  0
   -1.1980    1.0924   -4.0514 C   0  0  0  0  0  0  0  0  0  0  0  0
   -3.9403    1.6465   -3.0480 H   0  0  0  0  0  0  0  0  0  0  0  0
   -2.2788   -0.7198   -3.6278 H   0  0  0  0  0  0  0  0  0  0  0  0
   -1.1841    2.1419   -3.7385 H   0  0  0  0  0  0  0  0  0  0  0  0
   -0.2189    0.6557   -3.8323 H   0  0  0  0  0  0  0  0  0  0  0  0
   -1.3591    1.0535   -5.1327 H   0  0  0  0  0  0  0  0  0  0  0  0
   -1.0665   -0.3510   -1.2014 N   0  0  0  0  0  0  0  0  0  0  0  0
   -0.1589    0.2037   -0.1670 C   0  0  2  0  0  0  0  0  0  0  0  0
   -0.2727   -0.5970    1.1477 C   0  0  0  0  0  0  0  0  0  0  0  0
    0.6053   -0.5538    2.0031 O   0  0  0  0  0  0  0  0  0  0  0  0
   -0.2420    1.7349    0.0528 C   0  0  0  0  0  0  0  0  0  0  0  0
    0.2998    2.5160   -1.1442 C   0  0  0  0  0  0  0  0  0  0  0  0
    1.1963    1.9825   -1.8477 O   0  5  0  0  0  0  0  0  0  0  0  0
   -0.2168    3.6323   -1.3856 O   0  0  0  0  0  0  0  0  0  0  0  0
   -0.5481   -0.8682   -1.9046 H   0  0  0  0  0  0  0  0  0  0  0  0
    0.8620   -0.0044   -0.5041 H   0  0  0  0  0  0  0  0  0  0  0  0
    0.3771    2.0005    0.9133 H   0  0  0  0  0  0  0  0  0  0  0  0
   -1.2616    2.0511    0.2826 H   0  0  0  0  0  0  0  0  0  0  0  0
   -1.3424   -1.4518    1.3366 N   0  0  0  0  0  0  0  0  0  0  0  0
   -1.5397   -2.3356    2.4909 C   0  0  2  0  0  0  0  0  0  0  0  0
   -1.9741   -3.7608    2.0881 C   0  0  0  0  0  0  0  0  0  0  0  0
   -2.5728   -3.9713    1.0389 O   0  0  0  0  0  0  0  0  0  0  0  0
   -2.5919   -1.6914    3.3959 C   0  0  0  0  0  0  0  0  0  0  0  0
   -2.0410   -1.4581    0.5932 H   0  0  0  0  0  0  0  0  0  0  0  0
   -0.6038   -2.4314    3.0501 H   0  0  0  0  0  0  0  0  0  0  0  0
   -3.5435   -1.5896    2.8640 H   0  0  0  0  0  0  0  0  0  0  0  0
   -2.7545   -2.3006    4.2900 H   0  0  0  0  0  0  0  0  0  0  0  0
   -2.2603   -0.6966    3.7100 H   0  0  0  0  0  0  0  0  0  0  0  0
   -1.7156   -4.8231    2.9366 N   0  0  0  0  0  0  0  0  0  0  0  0
   -2.0833   -6.1999    2.6342 C   0  0  0  0  0  0  0  0  0  0  0  0
   -1.1850   -4.6272    3.7799 H   0  0  0  0  0  0  0  0  0  0  0  0
   -3.1701   -6.2925    2.5384 H   0  0  0  0  0  0  0  0  0  0  0  0
   -1.6167   -6.5245    1.6982 H   0  0  0  0  0  0  0  0  0  0  0  0
   -1.7484   -6.8644    3.4363 H   0  0  0  0  0  0  0  0  0  0  0  0
  1  2  2  0  0  0  0
  1  3  1  0  0  0  0
  1  7  1  0  0  0  0
  3  4  1  0  0  0  0
  3  5  1  0  0  0  0
  3  6  1  0  0  0  0
  7  8  1  0  0  0  0
  7 12  1  0  0  0  0
  8  9  1  0  0  0  0
  8 11  1  0  0  0  0
  8 13  1  0  0  0  0
  9 10  2  0  0  0  0
  9 17  1  0  0  0  0
 11 14  1  0  0  0  0
 11 15  1  0  0  0  0
 11 16  1  0  0  0  0
 17 18  1  0  0  0  0
 17 25  1  0  0  0  0
 18 19  1  0  0  0  0
 18 21  1  0  0  0  0
 18 26  1  0  0  0  0
 19 20  2  0  0  0  0
 19 29  1  0  0  0  0
 21 22  1  0  0  0  0
 21 27  1  0  0  0  0
 21 28  1  0  0  0  0
 22 23  1  0  0  0  0
 22 24  2  0  0  0  0
 29 30  1  0  0  0  0
 29 34  1  0  0  0  0
 30 31  1  0  0  0  0
 30 33  1  0  0  0  0
 30 35  1  0  0  0  0
 31 32  2  0  0  0  0
 31 39  1  0  0  0  0
 33 36  1  0  0  0  0
 33 37  1  0  0  0  0
 33 38  1  0  0  0  0
 39 40  1  0  0  0  0
 39 41  1  0  0  0  0
 40 42  1  0  0  0  0
 40 43  1  0  0  0  0
 40 44  1  0  0  0  0
M  CHG  1  23  -1
M  END
$$$$

  -OEChem-05262215553D

 44 43  0     1  0  0  0  0  0999 V2000
   -4.5375    0.3042   -4.4865 C   0  0  0  0  0  0  0  0  0  0  0  0
   -4.2767   -0.7082   -5.1207 O   0  0  0  0  0  0  0  0  0  0  0  0
   -5.9390    0.8850   -4.5374 C   0  0  0  0  0  0  0  0  0  0  0  0
   -5.9158    1.8734   -5.0031 H   0  0  0  0  0  0  0  0  0  0  0  0
   -6.5977    0.2346   -5.1191 H   0  0  0  0  0  0  0  0  0  0  0  0
   -6.3401    0.9765   -3.5248 H   0  0  0  0  0  0  0  0  0  0  0  0
   -3.5788    0.9273   -3.7186 N   0  0  0  0  0  0  0  0  0  0  0  0
   -2.2929    0.3215   -3.3485 C   0  0  2  0  0  0  0  0  0  0  0  0
   -2.0930    0.3254   -1.8155 C   0  0  0  0  0  0  0  0  0  0  0  0
   -3.0007    0.6992   -1.0796 O   0  0  0  0  0  0  0  0  0  0  0  0
   -1.1877    1.1119   -4.0526 C   0  0  0  0  0  0  0  0  0  0  0  0
   -3.9158    1.6493   -3.0828 H   0  0  0  0  0  0  0  0  0  0  0  0
   -2.2486   -0.7208   -3.6792 H   0  0  0  0  0  0  0  0  0  0  0  0
   -1.2006    2.1592   -3.7318 H   0  0  0  0  0  0  0  0  0  0  0  0
   -0.2036    0.6939   -3.8206 H   0  0  0  0  0  0  0  0  0  0  0  0
   -1.3295    1.0779   -5.1369 H   0  0  0  0  0  0  0  0  0  0  0  0
   -1.0241   -0.3352   -1.2385 N   0  0  0  0  0  0  0  0  0  0  0  0
   -0.1714    0.2531   -0.1755 C   0  0  2  0  0  0  0  0  0  0  0  0
   -0.2278   -0.5941    1.1162 C   0  0  0  0  0  0  0  0  0  0  0  0
    0.4821   -0.3430    2.0846 O   0  0  0  0  0  0  0  0  0  0  0  0
   -0.3612    1.7721    0.0716 C   0  0  0  0  0  0  0  0  0  0  0  0
    0.1478    2.6099   -1.1013 C   0  0  0  0  0  0  0  0  0  0  0  0
    1.0902    2.1503   -1.7977 O   0  5  0  0  0  0  0  0  0  0  0  0
   -0.4432    3.6899   -1.3378 O   0  0  0  0  0  0  0  0  0  0  0  0
   -0.4600   -0.7795   -1.9565 H   0  0  0  0  0  0  0  0  0  0  0  0
    0.8642    0.1252   -0.5063 H   0  0  0  0  0  0  0  0  0  0  0  0
    0.2263    2.0636    0.9453 H   0  0  0  0  0  0  0  0  0  0  0  0
   -1.4020    2.0165    0.2925 H   0  0  0  0  0  0  0  0  0  0  0  0
   -1.0092   -1.7339    1.1609 N   0  0  0  0  0  0  0  0  0  0  0  0
   -1.1077   -2.6534    2.2995 C   0  0  2  0  0  0  0  0  0  0  0  0
   -1.3307   -4.1176    1.8665 C   0  0  0  0  0  0  0  0  0  0  0  0
   -1.7962   -4.3914    0.7654 O   0  0  0  0  0  0  0  0  0  0  0  0
   -2.2553   -2.1799    3.1954 C   0  0  0  0  0  0  0  0  0  0  0  0
   -1.6026   -1.9034    0.3498 H   0  0  0  0  0  0  0  0  0  0  0  0
   -0.1741   -2.6260    2.8705 H   0  0  0  0  0  0  0  0  0  0  0  0
   -3.2024   -2.2021    2.6468 H   0  0  0  0  0  0  0  0  0  0  0  0
   -2.3455   -2.8224    4.0762 H   0  0  0  0  0  0  0  0  0  0  0  0
   -2.0729   -1.1546    3.5325 H   0  0  0  0  0  0  0  0  0  0  0  0
   -1.0125   -5.1459    2.7359 N   0  0  0  0  0  0  0  0  0  0  0  0
   -1.1790   -6.5554    2.4087 C   0  0  0  0  0  0  0  0  0  0  0  0
   -0.6016   -4.8911    3.6289 H   0  0  0  0  0  0  0  0  0  0  0  0
   -2.2334   -6.7814    2.2190 H   0  0  0  0  0  0  0  0  0  0  0  0
   -0.5955   -6.8146    1.5191 H   0  0  0  0  0  0  0  0  0  0  0  0
   -0.8357   -7.1781    3.2402 H   0  0  0  0  0  0  0  0  0  0  0  0
  1  2  2  0  0  0  0
  1  3  1  0  0  0  0
  1  7  1  0  0  0  0
  3  4  1  0  0  0  0
  3  5  1  0  0  0  0
  3  6  1  0  0  0  0
  7  8  1  0  0  0  0
  7 12  1  0  0  0  0
  8  9  1  0  0  0  0
  8 11  1  0  0  0  0
  8 13  1  0  0  0  0
  9 10  2  0  0  0  0
  9 17  1  0  0  0  0
 11 14  1  0  0  0  0
 11 15  1  0  0  0  0
 11 16  1  0  0  0  0
 17 18  1  0  0  0  0
 17 25  1  0  0  0  0
 18 19  1  0  0  0  0
 18 21  1  0  0  0  0
 18 26  1  0  0  0  0
 19 20  2  0  0  0  0
 19 29  1  0  0  0  0
 21 22  1  0  0  0  0
 21 27  1  0  0  0  0
 21 28  1  0  0  0  0
 22 23  1  0  0  0  0
 22 24  2  0  0  0  0
 29 30  1  0  0  0  0
 29 34  1  0  0  0  0
 30 31  1  0  0  0  0
 30 33  1  0  0  0  0
 30 35  1  0  0  0  0
 31 32  2  0  0  0  0
 31 39  1  0  0  0  0
 33 36  1  0  0  0  0
 33 37  1  0  0  0  0
 33 38  1  0  0  0  0
 39 40  1  0  0  0  0
 39 41  1  0  0  0  0
 40 42  1  0  0  0  0
 40 43  1  0  0  0  0
 40 44  1  0  0  0  0
M  CHG  1  23  -1
M  END
$$$$

  -OEChem-05262215553D

 44 43  0     1  0  0  0  0  0999 V2000
   -4.5646    0.2151   -4.4116 C   0  0  0  0  0  0  0  0  0  0  0  0
   -4.3294   -0.8320   -4.9973 O   0  0  0  0  0  0  0  0  0  0  0  0
   -5.9642    0.8010   -4.4482 C   0  0  0  0  0  0  0  0  0  0  0  0
   -5.9475    1.7742   -4.9449 H   0  0  0  0  0  0  0  0  0  0  0  0
   -6.6398    0.1366   -4.9940 H   0  0  0  0  0  0  0  0  0  0  0  0
   -6.3398    0.9270   -3.4295 H   0  0  0  0  0  0  0  0  0  0  0  0
   -3.5795    0.8750   -3.7106 N   0  0  0  0  0  0  0  0  0  0  0  0
   -2.2924    0.2755   -3.3335 C   0  0  2  0  0  0  0  0  0  0  0  0
   -2.0943    0.2871   -1.8001 C   0  0  0  0  0  0  0  0  0  0  0  0
   -3.0143    0.6328   -1.0660 O   0  0  0  0  0  0  0  0  0  0  0  0
   -1.1896    1.0675   -4.0401 C   0  0  0  0  0  0  0  0  0  0  0  0
   -3.8991    1.6276   -3.1020 H   0  0  0  0  0  0  0  0  0  0  0  0
   -2.2416   -0.7680   -3.6590 H   0  0  0  0  0  0  0  0  0  0  0  0
   -1.2092    2.1165   -3.7255 H   0  0  0  0  0  0  0  0  0  0  0  0
   -0.2036    0.6560   -3.8040 H   0  0  0  0  0  0  0  0  0  0  0  0
   -1.3294    1.0274   -5.1244 H   0  0  0  0  0  0  0  0  0  0  0  0
   -0.9967   -0.3280   -1.2259 N   0  0  0  0  0  0  0  0  0  0  0  0
   -0.1714    0.2911   -0.1590 C   0  0  2  0  0  0  0  0  0  0  0  0
   -0.1918   -0.5682    1.1274 C   0  0  0  0  0  0  0  0  0  0  0  0
    0.3119   -0.1858    2.1786 O   0  0  0  0  0  0  0  0  0  0  0  0
   -0.4161    1.8049    0.0796 C   0  0  0  0  0  0  0  0  0  0  0  0
    0.0724    2.6531   -1.0946 C   0  0  0  0  0  0  0  0  0  0  0  0
    1.0354    2.2219   -1.7813 O   0  5  0  0  0  0  0  0  0  0  0  0
   -0.5550    3.7094   -1.3441 O   0  0  0  0  0  0  0  0  0  0  0  0
   -0.4122   -0.7363   -1.9491 H   0  0  0  0  0  0  0  0  0  0  0  0
    0.8690    0.2022   -0.4869 H   0  0  0  0  0  0  0  0  0  0  0  0
    0.1559    2.1236    0.9545 H   0  0  0  0  0  0  0  0  0  0  0  0
   -1.4658    2.0146    0.2935 H   0  0  0  0  0  0  0  0  0  0  0  0
   -0.6521   -1.8712    1.0725 N   0  0  0  0  0  0  0  0  0  0  0  0
   -0.6653   -2.8152    2.1946 C   0  0  2  0  0  0  0  0  0  0  0  0
   -0.5982   -4.2853    1.7285 C   0  0  0  0  0  0  0  0  0  0  0  0
   -0.8727   -4.5982    0.5744 O   0  0  0  0  0  0  0  0  0  0  0  0
   -1.9358   -2.5717    3.0156 C   0  0  0  0  0  0  0  0  0  0  0  0
   -1.0916   -2.1589    0.2001 H   0  0  0  0  0  0  0  0  0  0  0  0
    0.2099   -2.6359    2.8271 H   0  0  0  0  0  0  0  0  0  0  0  0
   -2.8261   -2.7375    2.4002 H   0  0  0  0  0  0  0  0  0  0  0  0
   -1.9735   -3.2471    3.8753 H   0  0  0  0  0  0  0  0  0  0  0  0
   -1.9567   -1.5417    3.3859 H   0  0  0  0  0  0  0  0  0  0  0  0
   -0.2235   -5.2736    2.6213 N   0  0  0  0  0  0  0  0  0  0  0  0
   -0.1027   -6.6793    2.2587 C   0  0  0  0  0  0  0  0  0  0  0  0
    0.0277   -4.9815    3.5609 H   0  0  0  0  0  0  0  0  0  0  0  0
   -1.0617   -7.0657    1.8982 H   0  0  0  0  0  0  0  0  0  0  0  0
    0.6483   -6.8081    1.4724 H   0  0  0  0  0  0  0  0  0  0  0  0
    0.2019   -7.2682    3.1289 H   0  0  0  0  0  0  0  0  0  0  0  0
  1  2  2  0  0  0  0
  1  3  1  0  0  0  0
  1  7  1  0  0  0  0
  3  4  1  0  0  0  0
  3  5  1  0  0  0  0
  3  6  1  0  0  0  0
  7  8  1  0  0  0  0
  7 12  1  0  0  0  0
  8  9  1  0  0  0  0
  8 11  1  0  0  0  0
  8 13  1  0  0  0  0
  9 10  2  0  0  0  0
  9 17  1  0  0  0  0
 11 14  1  0  0  0  0
 11 15  1  0  0  0  0
 11 16  1  0  0  0  0
 17 18  1  0  0  0  0
 17 25  1  0  0  0  0
 18 19  1  0  0  0  0
 18 21  1  0  0  0  0
 18 26  1  0  0  0  0
 19 20  2  0  0  0  0
 19 29  1  0  0  0  0
 21 22  1  0  0  0  0
 21 27  1  0  0  0  0
 21 28  1  0  0  0  0
 22 23  1  0  0  0  0
 22 24  2  0  0  0  0
 29 30  1  0  0  0  0
 29 34  1  0  0  0  0
 30 31  1  0  0  0  0
 30 33  1  0  0  0  0
 30 35  1  0  0  0  0
 31 32  2  0  0  0  0
 31 39  1  0  0  0  0
 33 36  1  0  0  0  0
 33 37  1  0  0  0  0
 33 38  1  0  0  0  0
 39 40  1  0  0  0  0
 39 41  1  0  0  0  0
 40 42  1  0  0  0  0
 40 43  1  0  0  0  0
 40 44  1  0  0  0  0
M  CHG  1  23  -1
M  END
$$$$

  -OEChem-05262215553D

 44 43  0     1  0  0  0  0  0999 V2000
   -4.5859    0.1341   -4.3250 C   0  0  0  0  0  0  0  0  0  0  0  0
   -4.3751   -0.9448   -4.8604 O   0  0  0  0  0  0  0  0  0  0  0  0
   -5.9807    0.7315   -4.3588 C   0  0  0  0  0  0  0  0  0  0  0  0
   -5.9641    1.6830   -4.8959 H   0  0  0  0  0  0  0  0  0  0  0  0
   -6.6722    0.0516   -4.8640 H   0  0  0  0  0  0  0  0  0  0  0  0
   -6.3356    0.9031   -3.3393 H   0  0  0  0  0  0  0  0  0  0  0  0
   -3.5756    0.8249   -3.6926 N   0  0  0  0  0  0  0  0  0  0  0  0
   -2.2873    0.2306   -3.3098 C   0  0  2  0  0  0  0  0  0  0  0  0
   -2.0911    0.2500   -1.7759 C   0  0  0  0  0  0  0  0  0  0  0  0
   -3.0169    0.5861   -1.0450 O   0  0  0  0  0  0  0  0  0  0  0  0
   -1.1868    1.0230   -4.0203 C   0  0  0  0  0  0  0  0  0  0  0  0
   -3.8752    1.6110   -3.1173 H   0  0  0  0  0  0  0  0  0  0  0  0
   -2.2313   -0.8139   -3.6317 H   0  0  0  0  0  0  0  0  0  0  0  0
   -1.2160    2.0759   -3.7195 H   0  0  0  0  0  0  0  0  0  0  0  0
   -0.1981    0.6232   -3.7754 H   0  0  0  0  0  0  0  0  0  0  0  0
   -1.3211    0.9679   -5.1045 H   0  0  0  0  0  0  0  0  0  0  0  0
   -0.9777   -0.3359   -1.2005 N   0  0  0  0  0  0  0  0  0  0  0  0
   -0.1697    0.3089   -0.1363 C   0  0  2  0  0  0  0  0  0  0  0  0
   -0.1708   -0.5490    1.1519 C   0  0  0  0  0  0  0  0  0  0  0  0
    0.0729   -0.0841    2.2608 O   0  0  0  0  0  0  0  0  0  0  0  0
   -0.4363    1.8238    0.0766 C   0  0  0  0  0  0  0  0  0  0  0  0
    0.0522    2.6590   -1.1073 C   0  0  0  0  0  0  0  0  0  0  0  0
    1.0270    2.2279   -1.7776 O   0  5  0  0  0  0  0  0  0  0  0  0
   -0.5886    3.7003   -1.3845 O   0  0  0  0  0  0  0  0  0  0  0  0
   -0.3820   -0.7217   -1.9264 H   0  0  0  0  0  0  0  0  0  0  0  0
    0.8731    0.2342   -0.4595 H   0  0  0  0  0  0  0  0  0  0  0  0
    0.1241    2.1638    0.9511 H   0  0  0  0  0  0  0  0  0  0  0  0
   -1.4903    2.0237    0.2788 H   0  0  0  0  0  0  0  0  0  0  0  0
   -0.2928   -1.9231    1.0478 N   0  0  0  0  0  0  0  0  0  0  0  0
   -0.2378   -2.8696    2.1668 C   0  0  2  0  0  0  0  0  0  0  0  0
    0.1814   -4.2847    1.7152 C   0  0  0  0  0  0  0  0  0  0  0  0
    0.1347   -4.6103    0.5331 O   0  0  0  0  0  0  0  0  0  0  0  0
   -1.6160   -2.9114    2.8357 C   0  0  0  0  0  0  0  0  0  0  0  0
   -0.5058   -2.2935    0.1244 H   0  0  0  0  0  0  0  0  0  0  0  0
    0.5057   -2.5258    2.8934 H   0  0  0  0  0  0  0  0  0  0  0  0
   -2.3748   -3.2583    2.1267 H   0  0  0  0  0  0  0  0  0  0  0  0
   -1.6055   -3.5868    3.6963 H   0  0  0  0  0  0  0  0  0  0  0  0
   -1.8986   -1.9131    3.1852 H   0  0  0  0  0  0  0  0  0  0  0  0
    0.6105   -5.2095    2.6507 N   0  0  0  0  0  0  0  0  0  0  0  0
    1.0260   -6.5629    2.3085 C   0  0  0  0  0  0  0  0  0  0  0  0
    0.6585   -4.9065    3.6189 H   0  0  0  0  0  0  0  0  0  0  0  0
    0.2104   -7.1002    1.8134 H   0  0  0  0  0  0  0  0  0  0  0  0
    1.8916   -6.5391    1.6385 H   0  0  0  0  0  0  0  0  0  0  0  0
    1.3024   -7.1125    3.2130 H   0  0  0  0  0  0  0  0  0  0  0  0
  1  2  2  0  0  0  0
  1  3  1  0  0  0  0
  1  7  1  0  0  0  0
  3  4  1  0  0  0  0
  3  5  1  0  0  0  0
  3  6  1  0  0  0  0
  7  8  1  0  0  0  0
  7 12  1  0  0  0  0
  8  9  1  0  0  0  0
  8 11  1  0  0  0  0
  8 13  1  0  0  0  0
  9 10  2  0  0  0  0
  9 17  1  0  0  0  0
 11 14  1  0  0  0  0
 11 15  1  0  0  0  0
 11 16  1  0  0  0  0
 17 18  1  0  0  0  0
 17 25  1  0  0  0  0
 18 19  1  0  0  0  0
 18 21  1  0  0  0  0
 18 26  1  0  0  0  0
 19 20  2  0  0  0  0
 19 29  1  0  0  0  0
 21 22  1  0  0  0  0
 21 27  1  0  0  0  0
 21 28  1  0  0  0  0
 22 23  1  0  0  0  0
 22 24  2  0  0  0  0
 29 30  1  0  0  0  0
 29 34  1  0  0  0  0
 30 31  1  0  0  0  0
 30 33  1  0  0  0  0
 30 35  1  0  0  0  0
 31 32  2  0  0  0  0
 31 39  1  0  0  0  0
 33 36  1  0  0  0  0
 33 37  1  0  0  0  0
 33 38  1  0  0  0  0
 39 40  1  0  0  0  0
 39 41  1  0  0  0  0
 40 42  1  0  0  0  0
 40 43  1  0  0  0  0
 40 44  1  0  0  0  0
M  CHG  1  23  -1
M  END
$$$$

  -OEChem-05262215553D

 44 43  0     1  0  0  0  0  0999 V2000
   -4.6009    0.0899   -4.2896 C   0  0  0  0  0  0  0  0  0  0  0  0
   -4.3991   -0.9902   -4.8264 O   0  0  0  0  0  0  0  0  0  0  0  0
   -5.9877    0.7049   -4.3306 C   0  0  0  0  0  0  0  0  0  0  0  0
   -5.9497    1.6730   -4.8360 H   0  0  0  0  0  0  0  0  0  0  0  0
   -6.6777    0.0507   -4.8699 H   0  0  0  0  0  0  0  0  0  0  0  0
   -6.3597    0.8484   -3.3128 H   0  0  0  0  0  0  0  0  0  0  0  0
   -3.5868    0.7669   -3.6487 N   0  0  0  0  0  0  0  0  0  0  0  0
   -2.3034    0.1618   -3.2675 C   0  0  2  0  0  0  0  0  0  0  0  0
   -2.0898    0.2083   -1.7366 C   0  0  0  0  0  0  0  0  0  0  0  0
   -3.0106    0.5502   -1.0025 O   0  0  0  0  0  0  0  0  0  0  0  0
   -1.1998    0.9243   -4.0056 C   0  0  0  0  0  0  0  0  0  0  0  0
   -3.8793    1.5559   -3.0737 H   0  0  0  0  0  0  0  0  0  0  0  0
   -2.2677   -0.8901   -3.5676 H   0  0  0  0  0  0  0  0  0  0  0  0
   -1.1947    1.9776   -3.7055 H   0  0  0  0  0  0  0  0  0  0  0  0
   -0.2166    0.4987   -3.7829 H   0  0  0  0  0  0  0  0  0  0  0  0
   -1.3612    0.8728   -5.0864 H   0  0  0  0  0  0  0  0  0  0  0  0
   -0.9583   -0.3505   -1.1693 N   0  0  0  0  0  0  0  0  0  0  0  0
   -0.1497    0.3148   -0.1194 C   0  0  2  0  0  0  0  0  0  0  0  0
   -0.1227   -0.5399    1.1699 C   0  0  0  0  0  0  0  0  0  0  0  0
   -0.1563   -0.0552    2.2964 O   0  0  0  0  0  0  0  0  0  0  0  0
   -0.4354    1.8267    0.0888 C   0  0  0  0  0  0  0  0  0  0  0  0
    0.0273    2.6628   -1.1048 C   0  0  0  0  0  0  0  0  0  0  0  0
    1.0005    2.2412   -1.7836 O   0  5  0  0  0  0  0  0  0  0  0  0
   -0.6238    3.6995   -1.3749 O   0  0  0  0  0  0  0  0  0  0  0  0
   -0.3671   -0.7351   -1.8990 H   0  0  0  0  0  0  0  0  0  0  0  0
    0.8904    0.2572   -0.4539 H   0  0  0  0  0  0  0  0  0  0  0  0
    0.1304    2.1775    0.9555 H   0  0  0  0  0  0  0  0  0  0  0  0
   -1.4898    2.0117    0.3021 H   0  0  0  0  0  0  0  0  0  0  0  0
    0.0931   -1.9032    1.0686 N   0  0  0  0  0  0  0  0  0  0  0  0
    0.1762   -2.8313    2.2018 C   0  0  2  0  0  0  0  0  0  0  0  0
    0.9269   -4.1304    1.8411 C   0  0  0  0  0  0  0  0  0  0  0  0
    1.1100   -4.4481    0.6701 O   0  0  0  0  0  0  0  0  0  0  0  0
   -1.2465   -3.1578    2.6697 C   0  0  0  0  0  0  0  0  0  0  0  0
    0.1349   -2.2981    0.1322 H   0  0  0  0  0  0  0  0  0  0  0  0
    0.7246   -2.3520    3.0193 H   0  0  0  0  0  0  0  0  0  0  0  0
   -1.8122   -3.6383    1.8650 H   0  0  0  0  0  0  0  0  0  0  0  0
   -1.2227   -3.8308    3.5315 H   0  0  0  0  0  0  0  0  0  0  0  0
   -1.7705   -2.2425    2.9632 H   0  0  0  0  0  0  0  0  0  0  0  0
    1.3922   -4.9601    2.8457 N   0  0  0  0  0  0  0  0  0  0  0  0
    2.1174   -6.1981    2.5940 C   0  0  0  0  0  0  0  0  0  0  0  0
    1.2482   -4.6575    3.8045 H   0  0  0  0  0  0  0  0  0  0  0  0
    1.5271   -6.8650    1.9568 H   0  0  0  0  0  0  0  0  0  0  0  0
    3.0713   -5.9889    2.0991 H   0  0  0  0  0  0  0  0  0  0  0  0
    2.3214   -6.7139    3.5370 H   0  0  0  0  0  0  0  0  0  0  0  0
  1  2  2  0  0  0  0
  1  3  1  0  0  0  0
  1  7  1  0  0  0  0
  3  4  1  0  0  0  0
  3  5  1  0  0  0  0
  3  6  1  0  0  0  0
  7  8  1  0  0  0  0
  7 12  1  0  0  0  0
  8  9  1  0  0  0  0
  8 11  1  0  0  0  0
  8 13  1  0  0  0  0
  9 10  2  0  0  0  0
  9 17  1  0  0  0  0
 11 14  1  0  0  0  0
 11 15  1  0  0  0  0
 11 16  1  0  0  0  0
 17 18  1  0  0  0  0
 17 25  1  0  0  0  0
 18 19  1  0  0  0  0
 18 21  1  0  0  0  0
 18 26  1  0  0  0  0
 19 20  2  0  0  0  0
 19 29  1  0  0  0  0
 21 22  1  0  0  0  0
 21 27  1  0  0  0  0
 21 28  1  0  0  0  0
 22 23  1  0  0  0  0
 22 24  2  0  0  0  0
 29 30  1  0  0  0  0
 29 34  1  0  0  0  0
 30 31  1  0  0  0  0
 30 33  1  0  0  0  0
 30 35  1  0  0  0  0
 31 32  2  0  0  0  0
 31 39  1  0  0  0  0
 33 36  1  0  0  0  0
 33 37  1  0  0  0  0
 33 38  1  0  0  0  0
 39 40  1  0  0  0  0
 39 41  1  0  0  0  0
 40 42  1  0  0  0  0
 40 43  1  0  0  0  0
 40 44  1  0  0  0  0
M  CHG  1  23  -1
M  END
$$$$

  -OEChem-05262215553D

 44 43  0     1  0  0  0  0  0999 V2000
   -4.5925    0.0514   -4.2867 C   0  0  0  0  0  0  0  0  0  0  0  0
   -4.3581   -1.0144   -4.8384 O   0  0  0  0  0  0  0  0  0  0  0  0
   -5.9942    0.6318   -4.3309 C   0  0  0  0  0  0  0  0  0  0  0  0
   -5.9737    1.6154   -4.8066 H   0  0  0  0  0  0  0  0  0  0  0  0
   -6.6587   -0.0232   -4.9007 H   0  0  0  0  0  0  0  0  0  0  0  0
   -6.3849    0.7350   -3.3153 H   0  0  0  0  0  0  0  0  0  0  0  0
   -3.6031    0.7414   -3.6221 N   0  0  0  0  0  0  0  0  0  0  0  0
   -2.3048    0.1669   -3.2442 C   0  0  2  0  0  0  0  0  0  0  0  0
   -2.0874    0.2266   -1.7144 C   0  0  0  0  0  0  0  0  0  0  0  0
   -2.9912    0.6254   -0.9879 O   0  0  0  0  0  0  0  0  0  0  0  0
   -1.2207    0.9544   -3.9853 C   0  0  0  0  0  0  0  0  0  0  0  0
   -3.9216    1.5088   -3.0315 H   0  0  0  0  0  0  0  0  0  0  0  0
   -2.2463   -0.8849   -3.5412 H   0  0  0  0  0  0  0  0  0  0  0  0
   -1.2562    2.0128   -3.7048 H   0  0  0  0  0  0  0  0  0  0  0  0
   -0.2251    0.5694   -3.7452 H   0  0  0  0  0  0  0  0  0  0  0  0
   -1.3680    0.8761   -5.0664 H   0  0  0  0  0  0  0  0  0  0  0  0
   -0.9770   -0.3689   -1.1425 N   0  0  0  0  0  0  0  0  0  0  0  0
   -0.1408    0.2733   -0.1017 C   0  0  2  0  0  0  0  0  0  0  0  0
   -0.1415   -0.5667    1.1965 C   0  0  0  0  0  0  0  0  0  0  0  0
   -0.4279   -0.1043    2.2960 O   0  0  0  0  0  0  0  0  0  0  0  0
   -0.3583    1.7977    0.0913 C   0  0  0  0  0  0  0  0  0  0  0  0
    0.1402    2.6013   -1.1106 C   0  0  0  0  0  0  0  0  0  0  0  0
    1.0934    2.1297   -1.7853 O   0  5  0  0  0  0  0  0  0  0  0  0
   -0.4560    3.6693   -1.3840 O   0  0  0  0  0  0  0  0  0  0  0  0
   -0.4072   -0.7966   -1.8643 H   0  0  0  0  0  0  0  0  0  0  0  0
    0.8947    0.1710   -0.4398 H   0  0  0  0  0  0  0  0  0  0  0  0
    0.2223    2.1287    0.9559 H   0  0  0  0  0  0  0  0  0  0  0  0
   -1.4038    2.0313    0.3020 H   0  0  0  0  0  0  0  0  0  0  0  0
    0.3272   -1.8688    1.1524 N   0  0  0  0  0  0  0  0  0  0  0  0
    0.4803   -2.7491    2.3164 C   0  0  2  0  0  0  0  0  0  0  0  0
    1.5415   -3.8441    2.0813 C   0  0  0  0  0  0  0  0  0  0  0  0
    1.9064   -4.1306    0.9454 O   0  0  0  0  0  0  0  0  0  0  0  0
   -0.8783   -3.3857    2.6267 C   0  0  0  0  0  0  0  0  0  0  0  0
    0.6379   -2.2250    0.2514 H   0  0  0  0  0  0  0  0  0  0  0  0
    0.8065   -2.1567    3.1777 H   0  0  0  0  0  0  0  0  0  0  0  0
   -1.2264   -3.9779    1.7743 H   0  0  0  0  0  0  0  0  0  0  0  0
   -0.8057   -4.0392    3.5008 H   0  0  0  0  0  0  0  0  0  0  0  0
   -1.6216   -2.6102    2.8376 H   0  0  0  0  0  0  0  0  0  0  0  0
    2.0881   -4.5204    3.1574 N   0  0  0  0  0  0  0  0  0  0  0  0
    3.1112   -5.5491    3.0251 C   0  0  0  0  0  0  0  0  0  0  0  0
    1.7801   -4.2471    4.0859 H   0  0  0  0  0  0  0  0  0  0  0  0
    2.7297   -6.3969    2.4467 H   0  0  0  0  0  0  0  0  0  0  0  0
    3.9963   -5.1469    2.5212 H   0  0  0  0  0  0  0  0  0  0  0  0
    3.4112   -5.9115    4.0128 H   0  0  0  0  0  0  0  0  0  0  0  0
  1  2  2  0  0  0  0
  1  3  1  0  0  0  0
  1  7  1  0  0  0  0
  3  4  1  0  0  0  0
  3  5  1  0  0  0  0
  3  6  1  0  0  0  0
  7  8  1  0  0  0  0
  7 12  1  0  0  0  0
  8  9  1  0  0  0  0
  8 11  1  0  0  0  0
  8 13  1  0  0  0  0
  9 10  2  0  0  0  0
  9 17  1  0  0  0  0
 11 14  1  0  0  0  0
 11 15  1  0  0  0  0
 11 16  1  0  0  0  0
 17 18  1  0  0  0  0
 17 25  1  0  0  0  0
 18 19  1  0  0  0  0
 18 21  1  0  0  0  0
 18 26  1  0  0  0  0
 19 20  2  0  0  0  0
 19 29  1  0  0  0  0
 21 22  1  0  0  0  0
 21 27  1  0  0  0  0
 21 28  1  0  0  0  0
 22 23  1  0  0  0  0
 22 24  2  0  0  0  0
 29 30  1  0  0  0  0
 29 34  1  0  0  0  0
 30 31  1  0  0  0  0
 30 33  1  0  0  0  0
 30 35  1  0  0  0  0
 31 32  2  0  0  0  0
 31 39  1  0  0  0  0
 33 36  1  0  0  0  0
 33 37  1  0  0  0  0
 33 38  1  0  0  0  0
 39 40  1  0  0  0  0
 39 41  1  0  0  0  0
 40 42  1  0  0  0  0
 40 43  1  0  0  0  0
 40 44  1  0  0  0  0
M  CHG  1  23  -1
M  END
$$$$

  -OEChem-05262215553D

 44 43  0     1  0  0  0  0  0999 V2000
   -4.5806    0.0347   -4.2905 C   0  0  0  0  0  0  0  0  0  0  0  0
   -4.3293   -1.0116   -4.8718 O   0  0  0  0  0  0  0  0  0  0  0  0
   -5.9878    0.6016   -4.3309 C   0  0  0  0  0  0  0  0  0  0  0  0
   -5.9747    1.5967   -4.7824 H   0  0  0  0  0  0  0  0  0  0  0  0
   -6.6419   -0.0465   -4.9204 H   0  0  0  0  0  0  0  0  0  0  0  0
   -6.3864    0.6765   -3.3160 H   0  0  0  0  0  0  0  0  0  0  0  0
   -3.6062    0.7124   -3.5921 N   0  0  0  0  0  0  0  0  0  0  0  0
   -2.3077    0.1379   -3.2166 C   0  0  2  0  0  0  0  0  0  0  0  0
   -2.0815    0.2187   -1.6895 C   0  0  0  0  0  0  0  0  0  0  0  0
   -2.9723    0.6548   -0.9686 O   0  0  0  0  0  0  0  0  0  0  0  0
   -1.2216    0.9090   -3.9715 C   0  0  0  0  0  0  0  0  0  0  0  0
   -3.9377    1.4574   -2.9796 H   0  0  0  0  0  0  0  0  0  0  0  0
   -2.2566   -0.9182   -3.4987 H   0  0  0  0  0  0  0  0  0  0  0  0
   -1.2436    1.9695   -3.6970 H   0  0  0  0  0  0  0  0  0  0  0  0
   -0.2289    0.5144   -3.7348 H   0  0  0  0  0  0  0  0  0  0  0  0
   -1.3771    0.8251   -5.0513 H   0  0  0  0  0  0  0  0  0  0  0  0
   -0.9748   -0.3851   -1.1189 N   0  0  0  0  0  0  0  0  0  0  0  0
   -0.1237    0.2490   -0.0861 C   0  0  2  0  0  0  0  0  0  0  0  0
   -0.1233   -0.5818    1.2169 C   0  0  0  0  0  0  0  0  0  0  0  0
   -0.6604   -0.2033    2.2523 O   0  0  0  0  0  0  0  0  0  0  0  0
   -0.3214    1.7736    0.1163 C   0  0  0  0  0  0  0  0  0  0  0  0
    0.1730    2.5793   -1.0860 C   0  0  0  0  0  0  0  0  0  0  0  0
    1.1137    2.0993   -1.7722 O   0  5  0  0  0  0  0  0  0  0  0  0
   -0.3983    3.6665   -1.3360 O   0  0  0  0  0  0  0  0  0  0  0  0
   -0.4194   -0.8405   -1.8348 H   0  0  0  0  0  0  0  0  0  0  0  0
    0.9065    0.1393   -0.4373 H   0  0  0  0  0  0  0  0  0  0  0  0
    0.2696    2.0911    0.9788 H   0  0  0  0  0  0  0  0  0  0  0  0
   -1.3626    2.0163    0.3374 H   0  0  0  0  0  0  0  0  0  0  0  0
    0.6034   -1.7592    1.2658 N   0  0  0  0  0  0  0  0  0  0  0  0
    0.7763   -2.5877    2.4646 C   0  0  2  0  0  0  0  0  0  0  0  0
    2.0665   -3.4314    2.4045 C   0  0  0  0  0  0  0  0  0  0  0  0
    2.6193   -3.6546    1.3321 O   0  0  0  0  0  0  0  0  0  0  0  0
   -0.4458   -3.5006    2.6085 C   0  0  0  0  0  0  0  0  0  0  0  0
    1.1392   -2.0162    0.4394 H   0  0  0  0  0  0  0  0  0  0  0  0
    0.8498   -1.9403    3.3449 H   0  0  0  0  0  0  0  0  0  0  0  0
   -0.5434   -4.1482    1.7313 H   0  0  0  0  0  0  0  0  0  0  0  0
   -0.3527   -4.1287    3.4991 H   0  0  0  0  0  0  0  0  0  0  0  0
   -1.3578   -2.9025    2.7029 H   0  0  0  0  0  0  0  0  0  0  0  0
    2.6090   -3.9517    3.5658 N   0  0  0  0  0  0  0  0  0  0  0  0
    3.8442   -4.7230    3.5979 C   0  0  0  0  0  0  0  0  0  0  0  0
    2.1502   -3.7166    4.4408 H   0  0  0  0  0  0  0  0  0  0  0  0
    3.7509   -5.6211    2.9785 H   0  0  0  0  0  0  0  0  0  0  0  0
    4.6800   -4.1217    3.2255 H   0  0  0  0  0  0  0  0  0  0  0  0
    4.0692   -5.0320    4.6230 H   0  0  0  0  0  0  0  0  0  0  0  0
  1  2  2  0  0  0  0
  1  3  1  0  0  0  0
  1  7  1  0  0  0  0
  3  4  1  0  0  0  0
  3  5  1  0  0  0  0
  3  6  1  0  0  0  0
  7  8  1  0  0  0  0
  7 12  1  0  0  0  0
  8  9  1  0  0  0  0
  8 11  1  0  0  0  0
  8 13  1  0  0  0  0
  9 10  2  0  0  0  0
  9 17  1  0  0  0  0
 11 14  1  0  0  0  0
 11 15  1  0  0  0  0
 11 16  1  0  0  0  0
 17 18  1  0  0  0  0
 17 25  1  0  0  0  0
 18 19  1  0  0  0  0
 18 21  1  0  0  0  0
 18 26  1  0  0  0  0
 19 20  2  0  0  0  0
 19 29  1  0  0  0  0
 21 22  1  0  0  0  0
 21 27  1  0  0  0  0
 21 28  1  0  0  0  0
 22 23  1  0  0  0  0
 22 24  2  0  0  0  0
 29 30  1  0  0  0  0
 29 34  1  0  0  0  0
 30 31  1  0  0  0  0
 30 33  1  0  0  0  0
 30 35  1  0  0  0  0
 31 32  2  0  0  0  0
 31 39  1  0  0  0  0
 33 36  1  0  0  0  0
 33 37  1  0  0  0  0
 33 38  1  0  0  0  0
 39 40  1  0  0  0  0
 39 41  1  0  0  0  0
 40 42  1  0  0  0  0
 40 43  1  0  0  0  0
 40 44  1  0  0  0  0
M  CHG  1  23  -1
M  END
$$$$

  -OEChem-05262215553D

 44 43  0     1  0  0  0  0  0999 V2000
   -4.5753    0.0163   -4.2720 C   0  0  0  0  0  0  0  0  0  0  0  0
   -4.3213   -1.0308   -4.8507 O   0  0  0  0  0  0  0  0  0  0  0  0
   -5.9843    0.5793   -4.3145 C   0  0  0  0  0  0  0  0  0  0  0  0
   -5.9739    1.5761   -4.7626 H   0  0  0  0  0  0  0  0  0  0  0  0
   -6.6340   -0.0689   -4.9089 H   0  0  0  0  0  0  0  0  0  0  0  0
   -6.3864    0.6489   -3.3005 H   0  0  0  0  0  0  0  0  0  0  0  0
   -3.6021    0.6964   -3.5738 N   0  0  0  0  0  0  0  0  0  0  0  0
   -2.3052    0.1217   -3.1925 C   0  0  2  0  0  0  0  0  0  0  0  0
   -2.0756    0.2204   -1.6675 C   0  0  0  0  0  0  0  0  0  0  0  0
   -2.9505    0.7023   -0.9566 O   0  0  0  0  0  0  0  0  0  0  0  0
   -1.2145    0.8783   -3.9552 C   0  0  0  0  0  0  0  0  0  0  0  0
   -3.9334    1.4453   -2.9655 H   0  0  0  0  0  0  0  0  0  0  0  0
   -2.2590   -0.9377   -3.4624 H   0  0  0  0  0  0  0  0  0  0  0  0
   -1.2289    1.9414   -3.6907 H   0  0  0  0  0  0  0  0  0  0  0  0
   -0.2245    0.4790   -3.7143 H   0  0  0  0  0  0  0  0  0  0  0  0
   -1.3710    0.7850   -5.0340 H   0  0  0  0  0  0  0  0  0  0  0  0
   -0.9736   -0.3924   -1.0971 N   0  0  0  0  0  0  0  0  0  0  0  0
   -0.1096    0.2292   -0.0687 C   0  0  2  0  0  0  0  0  0  0  0  0
   -0.1075   -0.5949    1.2382 C   0  0  0  0  0  0  0  0  0  0  0  0
   -0.8709   -0.3678    2.1701 O   0  0  0  0  0  0  0  0  0  0  0  0
   -0.2853    1.7544    0.1437 C   0  0  0  0  0  0  0  0  0  0  0  0
    0.2115    2.5618   -1.0569 C   0  0  0  0  0  0  0  0  0  0  0  0
    1.1411    2.0739   -1.7527 O   0  5  0  0  0  0  0  0  0  0  0  0
   -0.3364    3.6653   -1.2867 O   0  0  0  0  0  0  0  0  0  0  0  0
   -0.4325   -0.8759   -1.8051 H   0  0  0  0  0  0  0  0  0  0  0  0
    0.9148    0.1092   -0.4326 H   0  0  0  0  0  0  0  0  0  0  0  0
    0.3145    2.0577    1.0052 H   0  0  0  0  0  0  0  0  0  0  0  0
   -1.3218    2.0099    0.3725 H   0  0  0  0  0  0  0  0  0  0  0  0
    0.8338   -1.5964    1.4074 N   0  0  0  0  0  0  0  0  0  0  0  0
    1.0097   -2.3759    2.6382 C   0  0  2  0  0  0  0  0  0  0  0  0
    2.4539   -2.8946    2.7947 C   0  0  0  0  0  0  0  0  0  0  0  0
    3.2012   -2.9681    1.8244 O   0  0  0  0  0  0  0  0  0  0  0  0
    0.0265   -3.5502    2.6155 C   0  0  0  0  0  0  0  0  0  0  0  0
    1.5462   -1.6983    0.6866 H   0  0  0  0  0  0  0  0  0  0  0  0
    0.7947   -1.7409    3.5042 H   0  0  0  0  0  0  0  0  0  0  0  0
    0.2266   -4.1983    1.7564 H   0  0  0  0  0  0  0  0  0  0  0  0
    0.1155   -4.1438    3.5300 H   0  0  0  0  0  0  0  0  0  0  0  0
   -1.0022   -3.1830    2.5423 H   0  0  0  0  0  0  0  0  0  0  0  0
    2.9164   -3.2928    4.0363 N   0  0  0  0  0  0  0  0  0  0  0  0
    4.2778   -3.7534    4.2734 C   0  0  0  0  0  0  0  0  0  0  0  0
    2.2874   -3.1827    4.8263 H   0  0  0  0  0  0  0  0  0  0  0  0
    4.4940   -4.6380    3.6657 H   0  0  0  0  0  0  0  0  0  0  0  0
    4.9968   -2.9670    4.0217 H   0  0  0  0  0  0  0  0  0  0  0  0
    4.4082   -4.0180    5.3268 H   0  0  0  0  0  0  0  0  0  0  0  0
  1  2  2  0  0  0  0
  1  3  1  0  0  0  0
  1  7  1  0  0  0  0
  3  4  1  0  0  0  0
  3  5  1  0  0  0  0
  3  6  1  0  0  0  0
  7  8  1  0  0  0  0
  7 12  1  0  0  0  0
  8  9  1  0  0  0  0
  8 11  1  0  0  0  0
  8 13  1  0  0  0  0
  9 10  2  0  0  0  0
  9 17  1  0  0  0  0
 11 14  1  0  0  0  0
 11 15  1  0  0  0  0
 11 16  1  0  0  0  0
 17 18  1  0  0  0  0
 17 25  1  0  0  0  0
 18 19  1  0  0  0  0
 18 21  1  0  0  0  0
 18 26  1  0  0  0  0
 19 20  2  0  0  0  0
 19 29  1  0  0  0  0
 21 22  1  0  0  0  0
 21 27  1  0  0  0  0
 21 28  1  0  0  0  0
 22 23  1  0  0  0  0
 22 24  2  0  0  0  0
 29 30  1  0  0  0  0
 29 34  1  0  0  0  0
 30 31  1  0  0  0  0
 30 33  1  0  0  0  0
 30 35  1  0  0  0  0
 31 32  2  0  0  0  0
 31 39  1  0  0  0  0
 33 36  1  0  0  0  0
 33 37  1  0  0  0  0
 33 38  1  0  0  0  0
 39 40  1  0  0  0  0
 39 41  1  0  0  0  0
 40 42  1  0  0  0  0
 40 43  1  0  0  0  0
 40 44  1  0  0  0  0
M  CHG  1  23  -1
M  END
$$$$

  -OEChem-05262215553D

 44 43  0     1  0  0  0  0  0999 V2000
   -4.5675    0.0124   -4.2730 C   0  0  0  0  0  0  0  0  0  0  0  0
   -4.2930   -1.0117   -4.8826 O   0  0  0  0  0  0  0  0  0  0  0  0
   -5.9781    0.5699   -4.3310 C   0  0  0  0  0  0  0  0  0  0  0  0
   -5.9617    1.5808   -4.7457 H   0  0  0  0  0  0  0  0  0  0  0  0
   -6.6097   -0.0610   -4.9623 H   0  0  0  0  0  0  0  0  0  0  0  0
   -6.4052    0.6042   -3.3254 H   0  0  0  0  0  0  0  0  0  0  0  0
   -3.6170    0.6668   -3.5219 N   0  0  0  0  0  0  0  0  0  0  0  0
   -2.3174    0.0945   -3.1485 C   0  0  2  0  0  0  0  0  0  0  0  0
   -2.0661    0.2226   -1.6294 C   0  0  0  0  0  0  0  0  0  0  0  0
   -2.9220    0.7429   -0.9222 O   0  0  0  0  0  0  0  0  0  0  0  0
   -1.2337    0.8311   -3.9405 C   0  0  0  0  0  0  0  0  0  0  0  0
   -3.9626    1.3917   -2.8928 H   0  0  0  0  0  0  0  0  0  0  0  0
   -2.2828   -0.9706   -3.3966 H   0  0  0  0  0  0  0  0  0  0  0  0
   -1.2236    1.8944   -3.6772 H   0  0  0  0  0  0  0  0  0  0  0  0
   -0.2448    0.4152   -3.7243 H   0  0  0  0  0  0  0  0  0  0  0  0
   -1.4208    0.7397   -5.0145 H   0  0  0  0  0  0  0  0  0  0  0  0
   -0.9637   -0.3940   -1.0636 N   0  0  0  0  0  0  0  0  0  0  0  0
   -0.0900    0.2211   -0.0405 C   0  0  2  0  0  0  0  0  0  0  0  0
   -0.0750   -0.5939    1.2713 C   0  0  0  0  0  0  0  0  0  0  0  0
   -1.0125   -0.5939    2.0608 O   0  0  0  0  0  0  0  0  0  0  0  0
   -0.2498    1.7453    0.1838 C   0  0  0  0  0  0  0  0  0  0  0  0
    0.2442    2.5569   -1.0151 C   0  0  0  0  0  0  0  0  0  0  0  0
    1.1637    2.0659   -1.7220 O   0  5  0  0  0  0  0  0  0  0  0  0
   -0.2878    3.6719   -1.2247 O   0  0  0  0  0  0  0  0  0  0  0  0
   -0.4350   -0.8980   -1.7661 H   0  0  0  0  0  0  0  0  0  0  0  0
    0.9274    0.0930   -0.4202 H   0  0  0  0  0  0  0  0  0  0  0  0
    0.3600    2.0372    1.0422 H   0  0  0  0  0  0  0  0  0  0  0  0
   -1.2820    2.0083    0.4229 H   0  0  0  0  0  0  0  0  0  0  0  0
    1.0291   -1.3695    1.5832 N   0  0  0  0  0  0  0  0  0  0  0  0
    1.1829   -2.1322    2.8280 C   0  0  2  0  0  0  0  0  0  0  0  0
    2.6631   -2.3107    3.2219 C   0  0  0  0  0  0  0  0  0  0  0  0
    3.5482   -2.2367    2.3761 O   0  0  0  0  0  0  0  0  0  0  0  0
    0.5158   -3.4993    2.6477 C   0  0  0  0  0  0  0  0  0  0  0  0
    1.8513   -1.2766    0.9882 H   0  0  0  0  0  0  0  0  0  0  0  0
    0.6900   -1.5953    3.6452 H   0  0  0  0  0  0  0  0  0  0  0  0
    0.9966   -4.0542    1.8359 H   0  0  0  0  0  0  0  0  0  0  0  0
    0.5921   -4.0871    3.5671 H   0  0  0  0  0  0  0  0  0  0  0  0
   -0.5446   -3.3756    2.4052 H   0  0  0  0  0  0  0  0  0  0  0  0
    3.0033   -2.5695    4.5376 N   0  0  0  0  0  0  0  0  0  0  0  0
    4.3798   -2.6916    4.9979 C   0  0  0  0  0  0  0  0  0  0  0  0
    2.2531   -2.5637    5.2225 H   0  0  0  0  0  0  0  0  0  0  0  0
    4.8967   -3.4876    4.4521 H   0  0  0  0  0  0  0  0  0  0  0  0
    4.9183   -1.7504    4.8460 H   0  0  0  0  0  0  0  0  0  0  0  0
    4.4007   -2.9351    6.0643 H   0  0  0  0  0  0  0  0  0  0  0  0
  1  2  2  0  0  0  0
  1  3  1  0  0  0  0
  1  7  1  0  0  0  0
  3  4  1  0  0  0  0
  3  5  1  0  0  0  0
  3  6  1  0  0  0  0
  7  8  1  0  0  0  0
  7 12  1  0  0  0  0
  8  9  1  0  0  0  0
  8 11  1  0  0  0  0
  8 13  1  0  0  0  0
  9 10  2  0  0  0  0
  9 17  1  0  0  0  0
 11 14  1  0  0  0  0
 11 15  1  0  0  0  0
 11 16  1  0  0  0  0
 17 18  1  0  0  0  0
 17 25  1  0  0  0  0
 18 19  1  0  0  0  0
 18 21  1  0  0  0  0
 18 26  1  0  0  0  0
 19 20  2  0  0  0  0
 19 29  1  0  0  0  0
 21 22  1  0  0  0  0
 21 27  1  0  0  0  0
 21 28  1  0  0  0  0
 22 23  1  0  0  0  0
 22 24  2  0  0  0  0
 29 30  1  0  0  0  0
 29 34  1  0  0  0  0
 30 31  1  0  0  0  0
 30 33  1  0  0  0  0
 30 35  1  0  0  0  0
 31 32  2  0  0  0  0
 31 39  1  0  0  0  0
 33 36  1  0  0  0  0
 33 37  1  0  0  0  0
 33 38  1  0  0  0  0
 39 40  1  0  0  0  0
 39 41  1  0  0  0  0
 40 42  1  0  0  0  0
 40 43  1  0  0  0  0
 40 44  1  0  0  0  0
M  CHG  1  23  -1
M  END
$$$$

  -OEChem-05262215553D

 44 43  0     1  0  0  0  0  0999 V2000
   -4.5635    0.0229   -4.2730 C   0  0  0  0  0  0  0  0  0  0  0  0
   -4.2795   -0.9835   -4.9069 O   0  0  0  0  0  0  0  0  0  0  0  0
   -5.9764    0.5754   -4.3269 C   0  0  0  0  0  0  0  0  0  0  0  0
   -5.9621    1.5960   -4.7172 H   0  0  0  0  0  0  0  0  0  0  0  0
   -6.6014   -0.0437   -4.9765 H   0  0  0  0  0  0  0  0  0  0  0  0
   -6.4099    0.5839   -3.3235 H   0  0  0  0  0  0  0  0  0  0  0  0
   -3.6211    0.6622   -3.4989 N   0  0  0  0  0  0  0  0  0  0  0  0
   -2.3198    0.0897   -3.1312 C   0  0  2  0  0  0  0  0  0  0  0  0
   -2.0693    0.2093   -1.6112 C   0  0  0  0  0  0  0  0  0  0  0  0
   -2.9109    0.7580   -0.9081 O   0  0  0  0  0  0  0  0  0  0  0  0
   -1.2387    0.8383   -3.9161 C   0  0  0  0  0  0  0  0  0  0  0  0
   -3.9718    1.3750   -2.8587 H   0  0  0  0  0  0  0  0  0  0  0  0
   -2.2822   -0.9736   -3.3882 H   0  0  0  0  0  0  0  0  0  0  0  0
   -1.2359    1.9004   -3.6470 H   0  0  0  0  0  0  0  0  0  0  0  0
   -0.2474    0.4286   -3.6995 H   0  0  0  0  0  0  0  0  0  0  0  0
   -1.4218    0.7506   -4.9912 H   0  0  0  0  0  0  0  0  0  0  0  0
   -0.9729   -0.4189   -1.0467 N   0  0  0  0  0  0  0  0  0  0  0  0
   -0.0946    0.1833   -0.0195 C   0  0  2  0  0  0  0  0  0  0  0  0
   -0.0710   -0.6211    1.2993 C   0  0  0  0  0  0  0  0  0  0  0  0
   -1.0895   -0.8920    1.9256 O   0  0  0  0  0  0  0  0  0  0  0  0
   -0.2319    1.7085    0.2115 C   0  0  0  0  0  0  0  0  0  0  0  0
    0.2765    2.5203   -0.9812 C   0  0  0  0  0  0  0  0  0  0  0  0
    1.1901    2.0206   -1.6892 O   0  5  0  0  0  0  0  0  0  0  0  0
   -0.2278    3.6509   -1.1744 O   0  0  0  0  0  0  0  0  0  0  0  0
   -0.4529   -0.9385   -1.7440 H   0  0  0  0  0  0  0  0  0  0  0  0
    0.9176    0.0394   -0.4078 H   0  0  0  0  0  0  0  0  0  0  0  0
    0.3810    1.9883    1.0718 H   0  0  0  0  0  0  0  0  0  0  0  0
   -1.2603    1.9854    0.4502 H   0  0  0  0  0  0  0  0  0  0  0  0
    1.1267   -1.1386    1.7639 N   0  0  0  0  0  0  0  0  0  0  0  0
    1.2779   -1.8572    3.0355 C   0  0  2  0  0  0  0  0  0  0  0  0
    2.6763   -1.6615    3.6562 C   0  0  0  0  0  0  0  0  0  0  0  0
    3.6362   -1.3627    2.9542 O   0  0  0  0  0  0  0  0  0  0  0  0
    1.0116   -3.3449    2.7877 C   0  0  0  0  0  0  0  0  0  0  0  0
    1.9797   -0.8232    1.3028 H   0  0  0  0  0  0  0  0  0  0  0  0
    0.5475   -1.4760    3.7571 H   0  0  0  0  0  0  0  0  0  0  0  0
    1.7328   -3.7473    2.0693 H   0  0  0  0  0  0  0  0  0  0  0  0
    1.0946   -3.9095    3.7210 H   0  0  0  0  0  0  0  0  0  0  0  0
    0.0030   -3.4876    2.3866 H   0  0  0  0  0  0  0  0  0  0  0  0
    2.8609   -1.8361    5.0161 N   0  0  0  0  0  0  0  0  0  0  0  0
    4.1360   -1.6152    5.6846 C   0  0  0  0  0  0  0  0  0  0  0  0
    2.0353   -2.0219    5.5777 H   0  0  0  0  0  0  0  0  0  0  0  0
    4.9103   -2.2599    5.2559 H   0  0  0  0  0  0  0  0  0  0  0  0
    4.4469   -0.5707    5.5782 H   0  0  0  0  0  0  0  0  0  0  0  0
    4.0478   -1.8450    6.7506 H   0  0  0  0  0  0  0  0  0  0  0  0
  1  2  2  0  0  0  0
  1  3  1  0  0  0  0
  1  7  1  0  0  0  0
  3  4  1  0  0  0  0
  3  5  1  0  0  0  0
  3  6  1  0  0  0  0
  7  8  1  0  0  0  0
  7 12  1  0  0  0  0
  8  9  1  0  0  0  0
  8 11  1  0  0  0  0
  8 13  1  0  0  0  0
  9 10  2  0  0  0  0
  9 17  1  0  0  0  0
 11 14  1  0  0  0  0
 11 15  1  0  0  0  0
 11 16  1  0  0  0  0
 17 18  1  0  0  0  0
 17 25  1  0  0  0  0
 18 19  1  0  0  0  0
 18 21  1  0  0  0  0
 18 26  1  0  0  0  0
 19 20  2  0  0  0  0
 19 29  1  0  0  0  0
 21 22  1  0  0  0  0
 21 27  1  0  0  0  0
 21 28  1  0  0  0  0
 22 23  1  0  0  0  0
 22 24  2  0  0  0  0
 29 30  1  0  0  0  0
 29 34  1  0  0  0  0
 30 31  1  0  0  0  0
 30 33  1  0  0  0  0
 30 35  1  0  0  0  0
 31 32  2  0  0  0  0
 31 39  1  0  0  0  0
 33 36  1  0  0  0  0
 33 37  1  0  0  0  0
 33 38  1  0  0  0  0
 39 40  1  0  0  0  0
 39 41  1  0  0  0  0
 40 42  1  0  0  0  0
 40 43  1  0  0  0  0
 40 44  1  0  0  0  0
M  CHG  1  23  -1
M  END
$$$$

  -OEChem-05262215553D

 44 43  0     1  0  0  0  0  0999 V2000
   -4.5691    0.0214   -4.2589 C   0  0  0  0  0  0  0  0  0  0  0  0
   -4.2910   -0.9895   -4.8882 O   0  0  0  0  0  0  0  0  0  0  0  0
   -5.9733    0.5935   -4.3302 C   0  0  0  0  0  0  0  0  0  0  0  0
   -5.9395    1.6203   -4.7032 H   0  0  0  0  0  0  0  0  0  0  0  0
   -6.5942   -0.0066   -5.0012 H   0  0  0  0  0  0  0  0  0  0  0  0
   -6.4249    0.5909   -3.3349 H   0  0  0  0  0  0  0  0  0  0  0  0
   -3.6274    0.6469   -3.4730 N   0  0  0  0  0  0  0  0  0  0  0  0
   -2.3340    0.0622   -3.0978 C   0  0  2  0  0  0  0  0  0  0  0  0
   -2.0731    0.2107   -1.5821 C   0  0  0  0  0  0  0  0  0  0  0  0
   -2.8998    0.7919   -0.8867 O   0  0  0  0  0  0  0  0  0  0  0  0
   -1.2425    0.7754   -3.9021 C   0  0  0  0  0  0  0  0  0  0  0  0
   -3.9723    1.3688   -2.8401 H   0  0  0  0  0  0  0  0  0  0  0  0
   -2.3156   -1.0071   -3.3306 H   0  0  0  0  0  0  0  0  0  0  0  0
   -1.2196    1.8419   -3.6529 H   0  0  0  0  0  0  0  0  0  0  0  0
   -0.2575    0.3527   -3.6812 H   0  0  0  0  0  0  0  0  0  0  0  0
   -1.4312    0.6708   -4.9747 H   0  0  0  0  0  0  0  0  0  0  0  0
   -0.9766   -0.4152   -1.0154 N   0  0  0  0  0  0  0  0  0  0  0  0
   -0.0964    0.1828    0.0124 C   0  0  2  0  0  0  0  0  0  0  0  0
   -0.0647   -0.6154    1.3348 C   0  0  0  0  0  0  0  0  0  0  0  0
   -1.0570   -1.1691    1.7965 O   0  0  0  0  0  0  0  0  0  0  0  0
   -0.2263    1.7083    0.2465 C   0  0  0  0  0  0  0  0  0  0  0  0
    0.2855    2.5206   -0.9440 C   0  0  0  0  0  0  0  0  0  0  0  0
    1.1964    2.0188   -1.6536 O   0  5  0  0  0  0  0  0  0  0  0  0
   -0.2063    3.6585   -1.1262 O   0  0  0  0  0  0  0  0  0  0  0  0
   -0.4649   -0.9572   -1.7014 H   0  0  0  0  0  0  0  0  0  0  0  0
    0.9142    0.0314   -0.3775 H   0  0  0  0  0  0  0  0  0  0  0  0
    0.3886    1.9849    1.1064 H   0  0  0  0  0  0  0  0  0  0  0  0
   -1.2530    1.9903    0.4869 H   0  0  0  0  0  0  0  0  0  0  0  0
    1.1504   -0.8568    1.9530 N   0  0  0  0  0  0  0  0  0  0  0  0
    1.3001   -1.5596    3.2337 C   0  0  2  0  0  0  0  0  0  0  0  0
    2.4824   -1.0208    4.0639 C   0  0  0  0  0  0  0  0  0  0  0  0
    3.4321   -0.4707    3.5177 O   0  0  0  0  0  0  0  0  0  0  0  0
    1.4915   -3.0519    2.9491 C   0  0  0  0  0  0  0  0  0  0  0  0
    1.9535   -0.3259    1.6157 H   0  0  0  0  0  0  0  0  0  0  0  0
    0.3946   -1.4210    3.8336 H   0  0  0  0  0  0  0  0  0  0  0  0
    2.3935   -3.2137    2.3501 H   0  0  0  0  0  0  0  0  0  0  0  0
    1.5877   -3.6114    3.8844 H   0  0  0  0  0  0  0  0  0  0  0  0
    0.6313   -3.4453    2.3983 H   0  0  0  0  0  0  0  0  0  0  0  0
    2.4889   -1.1763    5.4385 N   0  0  0  0  0  0  0  0  0  0  0  0
    3.5412   -0.6489    6.2965 C   0  0  0  0  0  0  0  0  0  0  0  0
    1.6594   -1.5784    5.8650 H   0  0  0  0  0  0  0  0  0  0  0  0
    4.5150   -1.0531    6.0009 H   0  0  0  0  0  0  0  0  0  0  0  0
    3.5764    0.4435    6.2294 H   0  0  0  0  0  0  0  0  0  0  0  0
    3.3546   -0.9276    7.3379 H   0  0  0  0  0  0  0  0  0  0  0  0
  1  2  2  0  0  0  0
  1  3  1  0  0  0  0
  1  7  1  0  0  0  0
  3  4  1  0  0  0  0
  3  5  1  0  0  0  0
  3  6  1  0  0  0  0
  7  8  1  0  0  0  0
  7 12  1  0  0  0  0
  8  9  1  0  0  0  0
  8 11  1  0  0  0  0
  8 13  1  0  0  0  0
  9 10  2  0  0  0  0
  9 17  1  0  0  0  0
 11 14  1  0  0  0  0
 11 15  1  0  0  0  0
 11 16  1  0  0  0  0
 17 18  1  0  0  0  0
 17 25  1  0  0  0  0
 18 19  1  0  0  0  0
 18 21  1  0  0  0  0
 18 26  1  0  0  0  0
 19 20  2  0  0  0  0
 19 29  1  0  0  0  0
 21 22  1  0  0  0  0
 21 27  1  0  0  0  0
 21 28  1  0  0  0  0
 22 23  1  0  0  0  0
 22 24  2  0  0  0  0
 29 30  1  0  0  0  0
 29 34  1  0  0  0  0
 30 31  1  0  0  0  0
 30 33  1  0  0  0  0
 30 35  1  0  0  0  0
 31 32  2  0  0  0  0
 31 39  1  0  0  0  0
 33 36  1  0  0  0  0
 33 37  1  0  0  0  0
 33 38  1  0  0  0  0
 39 40  1  0  0  0  0
 39 41  1  0  0  0  0
 40 42  1  0  0  0  0
 40 43  1  0  0  0  0
 40 44  1  0  0  0  0
M  CHG  1  23  -1
M  END
$$$$

  -OEChem-05262215553D

 44 43  0     1  0  0  0  0  0999 V2000
   -4.5724    0.0115   -4.2369 C   0  0  0  0  0  0  0  0  0  0  0  0
   -4.3050   -1.0089   -4.8555 O   0  0  0  0  0  0  0  0  0  0  0  0
   -5.9647    0.6085   -4.3306 C   0  0  0  0  0  0  0  0  0  0  0  0
   -5.9068    1.6265   -4.7238 H   0  0  0  0  0  0  0  0  0  0  0  0
   -6.5908    0.0066   -4.9950 H   0  0  0  0  0  0  0  0  0  0  0  0
   -6.4245    0.6352   -3.3397 H   0  0  0  0  0  0  0  0  0  0  0  0
   -3.6272    0.6299   -3.4495 N   0  0  0  0  0  0  0  0  0  0  0  0
   -2.3415    0.0325   -3.0675 C   0  0  2  0  0  0  0  0  0  0  0  0
   -2.0750    0.2012   -1.5554 C   0  0  0  0  0  0  0  0  0  0  0  0
   -2.8998    0.7891   -0.8628 O   0  0  0  0  0  0  0  0  0  0  0  0
   -1.2415    0.7158   -3.8858 C   0  0  0  0  0  0  0  0  0  0  0  0
   -3.9647    1.3623   -2.8246 H   0  0  0  0  0  0  0  0  0  0  0  0
   -2.3406   -1.0408   -3.2826 H   0  0  0  0  0  0  0  0  0  0  0  0
   -1.2006    1.7858   -3.6534 H   0  0  0  0  0  0  0  0  0  0  0  0
   -0.2633    0.2795   -3.6618 H   0  0  0  0  0  0  0  0  0  0  0  0
   -1.4349    0.5971   -4.9560 H   0  0  0  0  0  0  0  0  0  0  0  0
   -0.9760   -0.4141   -0.9835 N   0  0  0  0  0  0  0  0  0  0  0  0
   -0.0953    0.1956    0.0373 C   0  0  2  0  0  0  0  0  0  0  0  0
   -0.0592   -0.5899    1.3672 C   0  0  0  0  0  0  0  0  0  0  0  0
   -0.9355   -1.3874    1.6872 O   0  0  0  0  0  0  0  0  0  0  0  0
   -0.2332    1.7242    0.2550 C   0  0  0  0  0  0  0  0  0  0  0  0
    0.2721    2.5273   -0.9444 C   0  0  0  0  0  0  0  0  0  0  0  0
    1.1847    2.0238   -1.6502 O   0  5  0  0  0  0  0  0  0  0  0  0
   -0.2271    3.6602   -1.1370 O   0  0  0  0  0  0  0  0  0  0  0  0
   -0.4698   -0.9790   -1.6547 H   0  0  0  0  0  0  0  0  0  0  0  0
    0.9166    0.0427   -0.3496 H   0  0  0  0  0  0  0  0  0  0  0  0
    0.3804    2.0170    1.1102 H   0  0  0  0  0  0  0  0  0  0  0  0
   -1.2608    2.0029    0.4938 H   0  0  0  0  0  0  0  0  0  0  0  0
    1.0885   -0.5568    2.1401 N   0  0  0  0  0  0  0  0  0  0  0  0
    1.2365   -1.2444    3.4288 C   0  0  2  0  0  0  0  0  0  0  0  0
    2.1025   -0.4466    4.4247 C   0  0  0  0  0  0  0  0  0  0  0  0
    2.9503    0.3433    4.0247 O   0  0  0  0  0  0  0  0  0  0  0  0
    1.8547   -2.6211    3.1704 C   0  0  0  0  0  0  0  0  0  0  0  0
    1.7801    0.1566    1.9079 H   0  0  0  0  0  0  0  0  0  0  0  0
    0.2516   -1.3729    3.8900 H   0  0  0  0  0  0  0  0  0  0  0  0
    2.8430   -2.5154    2.7118 H   0  0  0  0  0  0  0  0  0  0  0  0
    1.9610   -3.1750    4.1076 H   0  0  0  0  0  0  0  0  0  0  0  0
    1.2176   -3.2016    2.4957 H   0  0  0  0  0  0  0  0  0  0  0  0
    1.9410   -0.6335    5.7860 N   0  0  0  0  0  0  0  0  0  0  0  0
    2.6756    0.1270    6.7882 C   0  0  0  0  0  0  0  0  0  0  0  0
    1.1831   -1.2398    6.0851 H   0  0  0  0  0  0  0  0  0  0  0  0
    3.7544   -0.0098    6.6595 H   0  0  0  0  0  0  0  0  0  0  0  0
    2.4426    1.1935    6.7041 H   0  0  0  0  0  0  0  0  0  0  0  0
    2.4024   -0.2105    7.7924 H   0  0  0  0  0  0  0  0  0  0  0  0
  1  2  2  0  0  0  0
  1  3  1  0  0  0  0
  1  7  1  0  0  0  0
  3  4  1  0  0  0  0
  3  5  1  0  0  0  0
  3  6  1  0  0  0  0
  7  8  1  0  0  0  0
  7 12  1  0  0  0  0
  8  9  1  0  0  0  0
  8 11  1  0  0  0  0
  8 13  1  0  0  0  0
  9 10  2  0  0  0  0
  9 17  1  0  0  0  0
 11 14  1  0  0  0  0
 11 15  1  0  0  0  0
 11 16  1  0  0  0  0
 17 18  1  0  0  0  0
 17 25  1  0  0  0  0
 18 19  1  0  0  0  0
 18 21  1  0  0  0  0
 18 26  1  0  0  0  0
 19 20  2  0  0  0  0
 19 29  1  0  0  0  0
 21 22  1  0  0  0  0
 21 27  1  0  0  0  0
 21 28  1  0  0  0  0
 22 23  1  0  0  0  0
 22 24  2  0  0  0  0
 29 30  1  0  0  0  0
 29 34  1  0  0  0  0
 30 31  1  0  0  0  0
 30 33  1  0  0  0  0
 30 35  1  0  0  0  0
 31 32  2  0  0  0  0
 31 39  1  0  0  0  0
 33 36  1  0  0  0  0
 33 37  1  0  0  0  0
 33 38  1  0  0  0  0
 39 40  1  0  0  0  0
 39 41  1  0  0  0  0
 40 42  1  0  0  0  0
 40 43  1  0  0  0  0
 40 44  1  0  0  0  0
M  CHG  1  23  -1
M  END
$$$$

  -OEChem-05262215553D

 44 43  0     1  0  0  0  0  0999 V2000
   -4.5805   -0.0120   -4.2190 C   0  0  0  0  0  0  0  0  0  0  0  0
   -4.3254   -1.0486   -4.8154 O   0  0  0  0  0  0  0  0  0  0  0  0
   -5.9605    0.6087   -4.3396 C   0  0  0  0  0  0  0  0  0  0  0  0
   -5.8800    1.6119   -4.7654 H   0  0  0  0  0  0  0  0  0  0  0  0
   -6.5954   -0.0007   -4.9885 H   0  0  0  0  0  0  0  0  0  0  0  0
   -6.4254    0.6770   -3.3528 H   0  0  0  0  0  0  0  0  0  0  0  0
   -3.6312    0.6062   -3.4365 N   0  0  0  0  0  0  0  0  0  0  0  0
   -2.3516    0.0039   -3.0418 C   0  0  2  0  0  0  0  0  0  0  0  0
   -2.0800    0.2007   -1.5338 C   0  0  0  0  0  0  0  0  0  0  0  0
   -2.9060    0.7920   -0.8452 O   0  0  0  0  0  0  0  0  0  0  0  0
   -1.2460    0.6593   -3.8748 C   0  0  0  0  0  0  0  0  0  0  0  0
   -3.9585    1.3613   -2.8341 H   0  0  0  0  0  0  0  0  0  0  0  0
   -2.3605   -1.0735   -3.2349 H   0  0  0  0  0  0  0  0  0  0  0  0
   -1.2062    1.7363   -3.6784 H   0  0  0  0  0  0  0  0  0  0  0  0
   -0.2693    0.2310   -3.6295 H   0  0  0  0  0  0  0  0  0  0  0  0
   -1.4329    0.5053   -4.9416 H   0  0  0  0  0  0  0  0  0  0  0  0
   -0.9781   -0.3996   -0.9520 N   0  0  0  0  0  0  0  0  0  0  0  0
   -0.0940    0.2294    0.0546 C   0  0  2  0  0  0  0  0  0  0  0  0
   -0.0581   -0.5368    1.3971 C   0  0  0  0  0  0  0  0  0  0  0  0
   -0.7586   -1.5236    1.6059 O   0  0  0  0  0  0  0  0  0  0  0  0
   -0.2351    1.7646    0.2310 C   0  0  0  0  0  0  0  0  0  0  0  0
    0.2696    2.5317   -0.9924 C   0  0  0  0  0  0  0  0  0  0  0  0
    1.1824    2.0094   -1.6838 O   0  5  0  0  0  0  0  0  0  0  0  0
   -0.2350    3.6554   -1.2207 O   0  0  0  0  0  0  0  0  0  0  0  0
   -0.4728   -0.9801   -1.6106 H   0  0  0  0  0  0  0  0  0  0  0  0
    0.9200    0.0677   -0.3238 H   0  0  0  0  0  0  0  0  0  0  0  0
    0.3773    2.0882    1.0754 H   0  0  0  0  0  0  0  0  0  0  0  0
   -1.2632    2.0489    0.4612 H   0  0  0  0  0  0  0  0  0  0  0  0
    0.9403   -0.2590    2.3148 N   0  0  0  0  0  0  0  0  0  0  0  0
    1.0840   -0.9303    3.6129 C   0  0  2  0  0  0  0  0  0  0  0  0
    1.5664    0.0247    4.7235 C   0  0  0  0  0  0  0  0  0  0  0  0
    2.2672    0.9939    4.4560 O   0  0  0  0  0  0  0  0  0  0  0  0
    2.0701   -2.0886    3.4440 C   0  0  0  0  0  0  0  0  0  0  0  0
    1.4794    0.5936    2.1632 H   0  0  0  0  0  0  0  0  0  0  0  0
    0.1146   -1.3285    3.9294 H   0  0  0  0  0  0  0  0  0  0  0  0
    3.0483   -1.7143    3.1249 H   0  0  0  0  0  0  0  0  0  0  0  0
    2.1926   -2.6276    4.3882 H   0  0  0  0  0  0  0  0  0  0  0  0
    1.7020   -2.7904    2.6890 H   0  0  0  0  0  0  0  0  0  0  0  0
    1.2348   -0.2270    6.0430 N   0  0  0  0  0  0  0  0  0  0  0  0
    1.6087    0.6521    7.1429 C   0  0  0  0  0  0  0  0  0  0  0  0
    0.5959   -0.9956    6.2227 H   0  0  0  0  0  0  0  0  0  0  0  0
    2.6943    0.7937    7.1690 H   0  0  0  0  0  0  0  0  0  0  0  0
    1.1272    1.6294    7.0320 H   0  0  0  0  0  0  0  0  0  0  0  0
    1.2961    0.2165    8.0966 H   0  0  0  0  0  0  0  0  0  0  0  0
  1  2  2  0  0  0  0
  1  3  1  0  0  0  0
  1  7  1  0  0  0  0
  3  4  1  0  0  0  0
  3  5  1  0  0  0  0
  3  6  1  0  0  0  0
  7  8  1  0  0  0  0
  7 12  1  0  0  0  0
  8  9  1  0  0  0  0
  8 11  1  0  0  0  0
  8 13  1  0  0  0  0
  9 10  2  0  0  0  0
  9 17  1  0  0  0  0
 11 14  1  0  0  0  0
 11 15  1  0  0  0  0
 11 16  1  0  0  0  0
 17 18  1  0  0  0  0
 17 25  1  0  0  0  0
 18 19  1  0  0  0  0
 18 21  1  0  0  0  0
 18 26  1  0  0  0  0
 19 20  2  0  0  0  0
 19 29  1  0  0  0  0
 21 22  1  0  0  0  0
 21 27  1  0  0  0  0
 21 28  1  0  0  0  0
 22 23  1  0  0  0  0
 22 24  2  0  0  0  0
 29 30  1  0  0  0  0
 29 34  1  0  0  0  0
 30 31  1  0  0  0  0
 30 33  1  0  0  0  0
 30 35  1  0  0  0  0
 31 32  2  0  0  0  0
 31 39  1  0  0  0  0
 33 36  1  0  0  0  0
 33 37  1  0  0  0  0
 33 38  1  0  0  0  0
 39 40  1  0  0  0  0
 39 41  1  0  0  0  0
 40 42  1  0  0  0  0
 40 43  1  0  0  0  0
 40 44  1  0  0  0  0
M  CHG  1  23  -1
M  END
$$$$

  -OEChem-05262215553D

 44 43  0     1  0  0  0  0  0999 V2000
   -4.5860   -0.0547   -4.1989 C   0  0  0  0  0  0  0  0  0  0  0  0
   -4.3368   -1.1001   -4.7826 O   0  0  0  0  0  0  0  0  0  0  0  0
   -5.9620    0.5734   -4.3246 C   0  0  0  0  0  0  0  0  0  0  0  0
   -5.8753    1.5756   -4.7516 H   0  0  0  0  0  0  0  0  0  0  0  0
   -6.5988   -0.0342   -4.9732 H   0  0  0  0  0  0  0  0  0  0  0  0
   -6.4282    0.6454   -3.3387 H   0  0  0  0  0  0  0  0  0  0  0  0
   -3.6348    0.5623   -3.4183 N   0  0  0  0  0  0  0  0  0  0  0  0
   -2.3688   -0.0534   -3.0029 C   0  0  2  0  0  0  0  0  0  0  0  0
   -2.0913    0.2078   -1.5063 C   0  0  0  0  0  0  0  0  0  0  0  0
   -2.9275    0.8046   -0.8365 O   0  0  0  0  0  0  0  0  0  0  0  0
   -1.2508    0.5350   -3.8687 C   0  0  0  0  0  0  0  0  0  0  0  0
   -3.9570    1.3284   -2.8256 H   0  0  0  0  0  0  0  0  0  0  0  0
   -2.4066   -1.1379   -3.1457 H   0  0  0  0  0  0  0  0  0  0  0  0
   -1.1727    1.6158   -3.7080 H   0  0  0  0  0  0  0  0  0  0  0  0
   -0.2869    0.0817   -3.6186 H   0  0  0  0  0  0  0  0  0  0  0  0
   -1.4556    0.3530   -4.9280 H   0  0  0  0  0  0  0  0  0  0  0  0
   -0.9897   -0.3670   -0.8998 N   0  0  0  0  0  0  0  0  0  0  0  0
   -0.0710    0.2962    0.0543 C   0  0  2  0  0  0  0  0  0  0  0  0
    0.2328   -0.6105    1.2711 C   0  0  0  0  0  0  0  0  0  0  0  0
   -0.0858   -1.7975    1.2748 O   0  0  0  0  0  0  0  0  0  0  0  0
   -0.4092    1.7582    0.4563 C   0  0  0  0  0  0  0  0  0  0  0  0
   -0.2207    2.7400   -0.7028 C   0  0  0  0  0  0  0  0  0  0  0  0
    0.6429    2.4590   -1.5750 O   0  5  0  0  0  0  0  0  0  0  0  0
   -0.8605    3.8169   -0.6630 O   0  0  0  0  0  0  0  0  0  0  0  0
   -0.5222   -1.0385   -1.4969 H   0  0  0  0  0  0  0  0  0  0  0  0
    0.8955    0.3469   -0.4564 H   0  0  0  0  0  0  0  0  0  0  0  0
    0.2651    2.0890    1.2483 H   0  0  0  0  0  0  0  0  0  0  0  0
   -1.4250    1.8268    0.8518 H   0  0  0  0  0  0  0  0  0  0  0  0
    1.0720   -0.1740    2.2815 N   0  0  0  0  0  0  0  0  0  0  0  0
    1.4376   -0.9676    3.4614 C   0  0  2  0  0  0  0  0  0  0  0  0
    1.5085   -0.1189    4.7470 C   0  0  0  0  0  0  0  0  0  0  0  0
    1.8108    1.0678    4.6996 O   0  0  0  0  0  0  0  0  0  0  0  0
    2.7898   -1.6303    3.1876 C   0  0  0  0  0  0  0  0  0  0  0  0
    1.2832    0.8237    2.3020 H   0  0  0  0  0  0  0  0  0  0  0  0
    0.6858   -1.7452    3.6305 H   0  0  0  0  0  0  0  0  0  0  0  0
    3.5601   -0.8706    3.0203 H   0  0  0  0  0  0  0  0  0  0  0  0
    3.0902   -2.2522    4.0361 H   0  0  0  0  0  0  0  0  0  0  0  0
    2.7269   -2.2648    2.2979 H   0  0  0  0  0  0  0  0  0  0  0  0
    1.2620   -0.7063    5.9752 N   0  0  0  0  0  0  0  0  0  0  0  0
    1.2530    0.0366    7.2283 C   0  0  0  0  0  0  0  0  0  0  0  0
    0.9417   -1.6700    5.9724 H   0  0  0  0  0  0  0  0  0  0  0  0
    2.2097    0.5481    7.3780 H   0  0  0  0  0  0  0  0  0  0  0  0
    0.4502    0.7812    7.2258 H   0  0  0  0  0  0  0  0  0  0  0  0
    1.0918   -0.6448    8.0690 H   0  0  0  0  0  0  0  0  0  0  0  0
  1  2  2  0  0  0  0
  1  3  1  0  0  0  0
  1  7  1  0  0  0  0
  3  4  1  0  0  0  0
  3  5  1  0  0  0  0
  3  6  1  0  0  0  0
  7  8  1  0  0  0  0
  7 12  1  0  0  0  0
  8  9  1  0  0  0  0
  8 11  1  0  0  0  0
  8 13  1  0  0  0  0
  9 10  2  0  0  0  0
  9 17  1  0  0  0  0
 11 14  1  0  0  0  0
 11 15  1  0  0  0  0
 11 16  1  0  0  0  0
 17 18  1  0  0  0  0
 17 25  1  0  0  0  0
 18 19  1  0  0  0  0
 18 21  1  0  0  0  0
 18 26  1  0  0  0  0
 19 20  2  0  0  0  0
 19 29  1  0  0  0  0
 21 22  1  0  0  0  0
 21 27  1  0  0  0  0
 21 28  1  0  0  0  0
 22 23  1  0  0  0  0
 22 24  2  0  0  0  0
 29 30  1  0  0  0  0
 29 34  1  0  0  0  0
 30 31  1  0  0  0  0
 30 33  1  0  0  0  0
 30 35  1  0  0  0  0
 31 32  2  0  0  0  0
 31 39  1  0  0  0  0
 33 36  1  0  0  0  0
 33 37  1  0  0  0  0
 33 38  1  0  0  0  0
 39 40  1  0  0  0  0
 39 41  1  0  0  0  0
 40 42  1  0  0  0  0
 40 43  1  0  0  0  0
 40 44  1  0  0  0  0
M  CHG  1  23  -1
M  END
$$$$

  -OEChem-05262215553D

 44 43  0     1  0  0  0  0  0999 V2000
   -4.5863   -0.0928   -4.1836 C   0  0  0  0  0  0  0  0  0  0  0  0
   -4.3549   -1.1711   -4.7121 O   0  0  0  0  0  0  0  0  0  0  0  0
   -5.9525    0.5492   -4.3447 C   0  0  0  0  0  0  0  0  0  0  0  0
   -5.8501    1.5262   -4.8235 H   0  0  0  0  0  0  0  0  0  0  0  0
   -6.5972   -0.0810   -4.9635 H   0  0  0  0  0  0  0  0  0  0  0  0
   -6.4196    0.6795   -3.3650 H   0  0  0  0  0  0  0  0  0  0  0  0
   -3.6226    0.5517   -3.4407 N   0  0  0  0  0  0  0  0  0  0  0  0
   -2.3619   -0.0589   -3.0010 C   0  0  2  0  0  0  0  0  0  0  0  0
   -2.0929    0.2245   -1.5070 C   0  0  0  0  0  0  0  0  0  0  0  0
   -2.9356    0.8223   -0.8466 O   0  0  0  0  0  0  0  0  0  0  0  0
   -1.2366    0.5144   -3.8668 C   0  0  0  0  0  0  0  0  0  0  0  0
   -3.9329    1.3507   -2.8870 H   0  0  0  0  0  0  0  0  0  0  0  0
   -2.3985   -1.1453   -3.1263 H   0  0  0  0  0  0  0  0  0  0  0  0
   -1.1661    1.5992   -3.7302 H   0  0  0  0  0  0  0  0  0  0  0  0
   -0.2735    0.0721   -3.5950 H   0  0  0  0  0  0  0  0  0  0  0  0
   -1.4275    0.3063   -4.9239 H   0  0  0  0  0  0  0  0  0  0  0  0
   -0.9891   -0.3337   -0.8886 N   0  0  0  0  0  0  0  0  0  0  0  0
   -0.0743    0.3471    0.0566 C   0  0  2  0  0  0  0  0  0  0  0  0
    0.2173   -0.5580    1.2784 C   0  0  0  0  0  0  0  0  0  0  0  0
    0.1137   -1.7796    1.1865 O   0  0  0  0  0  0  0  0  0  0  0  0
   -0.4207    1.8147    0.4321 C   0  0  0  0  0  0  0  0  0  0  0  0
   -0.2336    2.7767   -0.7438 C   0  0  0  0  0  0  0  0  0  0  0  0
    0.6328    2.4868   -1.6100 O   0  5  0  0  0  0  0  0  0  0  0  0
   -0.8806    3.8498   -0.7234 O   0  0  0  0  0  0  0  0  0  0  0  0
   -0.5152   -1.0119   -1.4738 H   0  0  0  0  0  0  0  0  0  0  0  0
    0.8958    0.3949   -0.4476 H   0  0  0  0  0  0  0  0  0  0  0  0
    0.2544    2.1662    1.2142 H   0  0  0  0  0  0  0  0  0  0  0  0
   -1.4367    1.8869    0.8264 H   0  0  0  0  0  0  0  0  0  0  0  0
    0.7837   -0.0515    2.4353 N   0  0  0  0  0  0  0  0  0  0  0  0
    1.0899   -0.8472    3.6306 C   0  0  2  0  0  0  0  0  0  0  0  0
    0.7968   -0.0843    4.9384 C   0  0  0  0  0  0  0  0  0  0  0  0
    0.9333    1.1320    4.9987 O   0  0  0  0  0  0  0  0  0  0  0  0
    2.5647   -1.2516    3.5682 C   0  0  0  0  0  0  0  0  0  0  0  0
    0.8046    0.9640    2.5277 H   0  0  0  0  0  0  0  0  0  0  0  0
    0.4719   -1.7507    3.6408 H   0  0  0  0  0  0  0  0  0  0  0  0
    3.2042   -0.3630    3.5607 H   0  0  0  0  0  0  0  0  0  0  0  0
    2.8301   -1.8663    4.4333 H   0  0  0  0  0  0  0  0  0  0  0  0
    2.7599   -1.8293    2.6592 H   0  0  0  0  0  0  0  0  0  0  0  0
    0.4049   -0.7786    6.0692 N   0  0  0  0  0  0  0  0  0  0  0  0
    0.0531   -0.1282    7.3242 C   0  0  0  0  0  0  0  0  0  0  0  0
    0.2319   -1.7739    5.9656 H   0  0  0  0  0  0  0  0  0  0  0  0
    0.8843    0.4871    7.6836 H   0  0  0  0  0  0  0  0  0  0  0  0
   -0.8270    0.5094    7.1912 H   0  0  0  0  0  0  0  0  0  0  0  0
   -0.1737   -0.8793    8.0865 H   0  0  0  0  0  0  0  0  0  0  0  0
  1  2  2  0  0  0  0
  1  3  1  0  0  0  0
  1  7  1  0  0  0  0
  3  4  1  0  0  0  0
  3  5  1  0  0  0  0
  3  6  1  0  0  0  0
  7  8  1  0  0  0  0
  7 12  1  0  0  0  0
  8  9  1  0  0  0  0
  8 11  1  0  0  0  0
  8 13  1  0  0  0  0
  9 10  2  0  0  0  0
  9 17  1  0  0  0  0
 11 14  1  0  0  0  0
 11 15  1  0  0  0  0
 11 16  1  0  0  0  0
 17 18  1  0  0  0  0
 17 25  1  0  0  0  0
 18 19  1  0  0  0  0
 18 21  1  0  0  0  0
 18 26  1  0  0  0  0
 19 20  2  0  0  0  0
 19 29  1  0  0  0  0
 21 22  1  0  0  0  0
 21 27  1  0  0  0  0
 21 28  1  0  0  0  0
 22 23  1  0  0  0  0
 22 24  2  0  0  0  0
 29 30  1  0  0  0  0
 29 34  1  0  0  0  0
 30 31  1  0  0  0  0
 30 33  1  0  0  0  0
 30 35  1  0  0  0  0
 31 32  2  0  0  0  0
 31 39  1  0  0  0  0
 33 36  1  0  0  0  0
 33 37  1  0  0  0  0
 33 38  1  0  0  0  0
 39 40  1  0  0  0  0
 39 41  1  0  0  0  0
 40 42  1  0  0  0  0
 40 43  1  0  0  0  0
 40 44  1  0  0  0  0
M  CHG  1  23  -1
M  END
$$$$

  -OEChem-05262215553D

 44 43  0     1  0  0  0  0  0999 V2000
   -4.5868   -0.1032   -4.1844 C   0  0  0  0  0  0  0  0  0  0  0  0
   -4.3691   -1.2022   -4.6746 O   0  0  0  0  0  0  0  0  0  0  0  0
   -5.9454    0.5485   -4.3659 C   0  0  0  0  0  0  0  0  0  0  0  0
   -5.8377    1.4809   -4.9256 H   0  0  0  0  0  0  0  0  0  0  0  0
   -6.6158   -0.1187   -4.9142 H   0  0  0  0  0  0  0  0  0  0  0  0
   -6.3858    0.7676   -3.3901 H   0  0  0  0  0  0  0  0  0  0  0  0
   -3.6127    0.5591   -3.4713 N   0  0  0  0  0  0  0  0  0  0  0  0
   -2.3549   -0.0467   -3.0165 C   0  0  2  0  0  0  0  0  0  0  0  0
   -2.1005    0.2420   -1.5205 C   0  0  0  0  0  0  0  0  0  0  0  0
   -2.9398    0.8574   -0.8722 O   0  0  0  0  0  0  0  0  0  0  0  0
   -1.2249    0.5285   -3.8749 C   0  0  0  0  0  0  0  0  0  0  0  0
   -3.9142    1.3785   -2.9435 H   0  0  0  0  0  0  0  0  0  0  0  0
   -2.3850   -1.1336   -3.1400 H   0  0  0  0  0  0  0  0  0  0  0  0
   -1.1702    1.6160   -3.7547 H   0  0  0  0  0  0  0  0  0  0  0  0
   -0.2604    0.1029   -3.5822 H   0  0  0  0  0  0  0  0  0  0  0  0
   -1.3980    0.3025   -4.9314 H   0  0  0  0  0  0  0  0  0  0  0  0
   -1.0194   -0.3346   -0.8798 N   0  0  0  0  0  0  0  0  0  0  0  0
   -0.0957    0.3483    0.0537 C   0  0  2  0  0  0  0  0  0  0  0  0
    0.1500   -0.5403    1.2962 C   0  0  0  0  0  0  0  0  0  0  0  0
    0.2383   -1.7597    1.1666 O   0  0  0  0  0  0  0  0  0  0  0  0
   -0.4043    1.8345    0.3878 C   0  0  0  0  0  0  0  0  0  0  0  0
   -0.1826    2.7595   -0.8113 C   0  0  0  0  0  0  0  0  0  0  0  0
    0.6814    2.4244   -1.6632 O   0  5  0  0  0  0  0  0  0  0  0  0
   -0.8106    3.8438   -0.8306 O   0  0  0  0  0  0  0  0  0  0  0  0
   -0.5506   -1.0277   -1.4520 H   0  0  0  0  0  0  0  0  0  0  0  0
    0.8819    0.3574   -0.4387 H   0  0  0  0  0  0  0  0  0  0  0  0
    0.2783    2.1853    1.1644 H   0  0  0  0  0  0  0  0  0  0  0  0
   -1.4203    1.9456    0.7729 H   0  0  0  0  0  0  0  0  0  0  0  0
    0.4243   -0.0019    2.5416 N   0  0  0  0  0  0  0  0  0  0  0  0
    0.6947   -0.7876    3.7525 C   0  0  2  0  0  0  0  0  0  0  0  0
    0.0412   -0.1832    5.0117 C   0  0  0  0  0  0  0  0  0  0  0  0
   -0.0399    1.0311    5.1546 O   0  0  0  0  0  0  0  0  0  0  0  0
    2.2123   -0.8731    3.9319 C   0  0  0  0  0  0  0  0  0  0  0  0
    0.2670    1.0000    2.6505 H   0  0  0  0  0  0  0  0  0  0  0  0
    0.2926   -1.7989    3.6351 H   0  0  0  0  0  0  0  0  0  0  0  0
    2.6394    0.1278    4.0545 H   0  0  0  0  0  0  0  0  0  0  0  0
    2.4597   -1.4694    4.8152 H   0  0  0  0  0  0  0  0  0  0  0  0
    2.6705   -1.3435    3.0560 H   0  0  0  0  0  0  0  0  0  0  0  0
   -0.4184   -1.0156    6.0169 N   0  0  0  0  0  0  0  0  0  0  0  0
   -1.0906   -0.5276    7.2138 C   0  0  0  0  0  0  0  0  0  0  0  0
   -0.4072   -2.0141    5.8325 H   0  0  0  0  0  0  0  0  0  0  0  0
   -0.4585    0.1937    7.7426 H   0  0  0  0  0  0  0  0  0  0  0  0
   -2.0364   -0.0427    6.9499 H   0  0  0  0  0  0  0  0  0  0  0  0
   -1.3030   -1.3593    7.8924 H   0  0  0  0  0  0  0  0  0  0  0  0
  1  2  2  0  0  0  0
  1  3  1  0  0  0  0
  1  7  1  0  0  0  0
  3  4  1  0  0  0  0
  3  5  1  0  0  0  0
  3  6  1  0  0  0  0
  7  8  1  0  0  0  0
  7 12  1  0  0  0  0
  8  9  1  0  0  0  0
  8 11  1  0  0  0  0
  8 13  1  0  0  0  0
  9 10  2  0  0  0  0
  9 17  1  0  0  0  0
 11 14  1  0  0  0  0
 11 15  1  0  0  0  0
 11 16  1  0  0  0  0
 17 18  1  0  0  0  0
 17 25  1  0  0  0  0
 18 19  1  0  0  0  0
 18 21  1  0  0  0  0
 18 26  1  0  0  0  0
 19 20  2  0  0  0  0
 19 29  1  0  0  0  0
 21 22  1  0  0  0  0
 21 27  1  0  0  0  0
 21 28  1  0  0  0  0
 22 23  1  0  0  0  0
 22 24  2  0  0  0  0
 29 30  1  0  0  0  0
 29 34  1  0  0  0  0
 30 31  1  0  0  0  0
 30 33  1  0  0  0  0
 30 35  1  0  0  0  0
 31 32  2  0  0  0  0
 31 39  1  0  0  0  0
 33 36  1  0  0  0  0
 33 37  1  0  0  0  0
 33 38  1  0  0  0  0
 39 40  1  0  0  0  0
 39 41  1  0  0  0  0
 40 42  1  0  0  0  0
 40 43  1  0  0  0  0
 40 44  1  0  0  0  0
M  CHG  1  23  -1
M  END
$$$$

  -OEChem-05262215553D

 44 43  0     1  0  0  0  0  0999 V2000
   -4.5656   -0.0939   -4.1970 C   0  0  0  0  0  0  0  0  0  0  0  0
   -4.3478   -1.1852   -4.7042 O   0  0  0  0  0  0  0  0  0  0  0  0
   -5.9269    0.5572   -4.3617 C   0  0  0  0  0  0  0  0  0  0  0  0
   -5.8249    1.4983   -4.9079 H   0  0  0  0  0  0  0  0  0  0  0  0
   -6.5984   -0.1036   -4.9165 H   0  0  0  0  0  0  0  0  0  0  0  0
   -6.3628    0.7603   -3.3802 H   0  0  0  0  0  0  0  0  0  0  0  0
   -3.5908    0.5602   -3.4774 N   0  0  0  0  0  0  0  0  0  0  0  0
   -2.3335   -0.0511   -3.0284 C   0  0  2  0  0  0  0  0  0  0  0  0
   -2.0979    0.1947   -1.5212 C   0  0  0  0  0  0  0  0  0  0  0  0
   -2.9631    0.7522   -0.8544 O   0  0  0  0  0  0  0  0  0  0  0  0
   -1.2006    0.5588   -3.8586 C   0  0  0  0  0  0  0  0  0  0  0  0
   -3.8954    1.3697   -2.9365 H   0  0  0  0  0  0  0  0  0  0  0  0
   -2.3539   -1.1342   -3.1844 H   0  0  0  0  0  0  0  0  0  0  0  0
   -1.1596    1.6434   -3.7091 H   0  0  0  0  0  0  0  0  0  0  0  0
   -0.2342    0.1360   -3.5682 H   0  0  0  0  0  0  0  0  0  0  0  0
   -1.3597    0.3594   -4.9224 H   0  0  0  0  0  0  0  0  0  0  0  0
   -1.0056   -0.3665   -0.8863 N   0  0  0  0  0  0  0  0  0  0  0  0
   -0.0992    0.3412    0.0449 C   0  0  2  0  0  0  0  0  0  0  0  0
    0.1639   -0.5414    1.2851 C   0  0  0  0  0  0  0  0  0  0  0  0
    0.4780   -1.7202    1.1369 O   0  0  0  0  0  0  0  0  0  0  0  0
   -0.4445    1.8169    0.3855 C   0  0  0  0  0  0  0  0  0  0  0  0
   -0.2523    2.7532   -0.8090 C   0  0  0  0  0  0  0  0  0  0  0  0
    0.6162    2.4455   -1.6660 O   0  5  0  0  0  0  0  0  0  0  0  0
   -0.9158    3.8160   -0.8250 O   0  0  0  0  0  0  0  0  0  0  0  0
   -0.5094   -1.0217   -1.4801 H   0  0  0  0  0  0  0  0  0  0  0  0
    0.8776    0.3760   -0.4485 H   0  0  0  0  0  0  0  0  0  0  0  0
    0.2340    2.1765    1.1625 H   0  0  0  0  0  0  0  0  0  0  0  0
   -1.4623    1.9015    0.7734 H   0  0  0  0  0  0  0  0  0  0  0  0
    0.1221   -0.0312    2.5706 N   0  0  0  0  0  0  0  0  0  0  0  0
    0.3116   -0.8242    3.7912 C   0  0  2  0  0  0  0  0  0  0  0  0
   -0.6315   -0.3834    4.9291 C   0  0  0  0  0  0  0  0  0  0  0  0
   -0.8681    0.8035    5.1208 O   0  0  0  0  0  0  0  0  0  0  0  0
    1.7734   -0.6889    4.2248 C   0  0  0  0  0  0  0  0  0  0  0  0
   -0.2336    0.9199    2.6710 H   0  0  0  0  0  0  0  0  0  0  0  0
    0.0984   -1.8777    3.5843 H   0  0  0  0  0  0  0  0  0  0  0  0
    2.0136    0.3578    4.4381 H   0  0  0  0  0  0  0  0  0  0  0  0
    1.9609   -1.2811    5.1255 H   0  0  0  0  0  0  0  0  0  0  0  0
    2.4379   -1.0441    3.4308 H   0  0  0  0  0  0  0  0  0  0  0  0
   -1.1917   -1.3287    5.7701 N   0  0  0  0  0  0  0  0  0  0  0  0
   -2.1455   -0.9947    6.8198 C   0  0  0  0  0  0  0  0  0  0  0  0
   -1.0454   -2.3049    5.5315 H   0  0  0  0  0  0  0  0  0  0  0  0
   -1.7000   -0.2950    7.5345 H   0  0  0  0  0  0  0  0  0  0  0  0
   -3.0426   -0.5369    6.3902 H   0  0  0  0  0  0  0  0  0  0  0  0
   -2.4423   -1.8980    7.3609 H   0  0  0  0  0  0  0  0  0  0  0  0
  1  2  2  0  0  0  0
  1  3  1  0  0  0  0
  1  7  1  0  0  0  0
  3  4  1  0  0  0  0
  3  5  1  0  0  0  0
  3  6  1  0  0  0  0
  7  8  1  0  0  0  0
  7 12  1  0  0  0  0
  8  9  1  0  0  0  0
  8 11  1  0  0  0  0
  8 13  1  0  0  0  0
  9 10  2  0  0  0  0
  9 17  1  0  0  0  0
 11 14  1  0  0  0  0
 11 15  1  0  0  0  0
 11 16  1  0  0  0  0
 17 18  1  0  0  0  0
 17 25  1  0  0  0  0
 18 19  1  0  0  0  0
 18 21  1  0  0  0  0
 18 26  1  0  0  0  0
 19 20  2  0  0  0  0
 19 29  1  0  0  0  0
 21 22  1  0  0  0  0
 21 27  1  0  0  0  0
 21 28  1  0  0  0  0
 22 23  1  0  0  0  0
 22 24  2  0  0  0  0
 29 30  1  0  0  0  0
 29 34  1  0  0  0  0
 30 31  1  0  0  0  0
 30 33  1  0  0  0  0
 30 35  1  0  0  0  0
 31 32  2  0  0  0  0
 31 39  1  0  0  0  0
 33 36  1  0  0  0  0
 33 37  1  0  0  0  0
 33 38  1  0  0  0  0
 39 40  1  0  0  0  0
 39 41  1  0  0  0  0
 40 42  1  0  0  0  0
 40 43  1  0  0  0  0
 40 44  1  0  0  0  0
M  CHG  1  23  -1
M  END
$$$$

  -OEChem-05262215553D

 44 43  0     1  0  0  0  0  0999 V2000
   -4.5519   -0.0971   -4.2022 C   0  0  0  0  0  0  0  0  0  0  0  0
   -4.3398   -1.1912   -4.7059 O   0  0  0  0  0  0  0  0  0  0  0  0
   -5.9101    0.5605   -4.3665 C   0  0  0  0  0  0  0  0  0  0  0  0
   -5.8047    1.4965   -4.9205 H   0  0  0  0  0  0  0  0  0  0  0  0
   -6.5890   -0.0996   -4.9129 H   0  0  0  0  0  0  0  0  0  0  0  0
   -6.3401    0.7746   -3.3848 H   0  0  0  0  0  0  0  0  0  0  0  0
   -3.5733    0.5559   -3.4869 N   0  0  0  0  0  0  0  0  0  0  0  0
   -2.3192   -0.0595   -3.0350 C   0  0  2  0  0  0  0  0  0  0  0  0
   -2.0887    0.1848   -1.5269 C   0  0  0  0  0  0  0  0  0  0  0  0
   -2.9648    0.7209   -0.8572 O   0  0  0  0  0  0  0  0  0  0  0  0
   -1.1823    0.5440   -3.8645 C   0  0  0  0  0  0  0  0  0  0  0  0
   -3.8747    1.3689   -2.9491 H   0  0  0  0  0  0  0  0  0  0  0  0
   -2.3426   -1.1425   -3.1908 H   0  0  0  0  0  0  0  0  0  0  0  0
   -1.1364    1.6287   -3.7187 H   0  0  0  0  0  0  0  0  0  0  0  0
   -0.2181    0.1185   -3.5711 H   0  0  0  0  0  0  0  0  0  0  0  0
   -1.3410    0.3422   -4.9279 H   0  0  0  0  0  0  0  0  0  0  0  0
   -0.9919   -0.3636   -0.8890 N   0  0  0  0  0  0  0  0  0  0  0  0
   -0.0969    0.3619    0.0386 C   0  0  2  0  0  0  0  0  0  0  0  0
    0.1686   -0.5141    1.2797 C   0  0  0  0  0  0  0  0  0  0  0  0
    0.6730   -1.6257    1.1410 O   0  0  0  0  0  0  0  0  0  0  0  0
   -0.4693    1.8281    0.3891 C   0  0  0  0  0  0  0  0  0  0  0  0
   -0.3050    2.7748   -0.8010 C   0  0  0  0  0  0  0  0  0  0  0  0
    0.5635    2.4895   -1.6657 O   0  5  0  0  0  0  0  0  0  0  0  0
   -0.9936    3.8217   -0.8086 O   0  0  0  0  0  0  0  0  0  0  0  0
   -0.4804   -1.0005   -1.4901 H   0  0  0  0  0  0  0  0  0  0  0  0
    0.8798    0.4153   -0.4533 H   0  0  0  0  0  0  0  0  0  0  0  0
    0.2066    2.1913    1.1673 H   0  0  0  0  0  0  0  0  0  0  0  0
   -1.4866    1.8913    0.7826 H   0  0  0  0  0  0  0  0  0  0  0  0
   -0.1749   -0.0963    2.5529 N   0  0  0  0  0  0  0  0  0  0  0  0
   -0.0699   -0.9261    3.7586 C   0  0  2  0  0  0  0  0  0  0  0  0
   -1.2494   -0.7033    4.7266 C   0  0  0  0  0  0  0  0  0  0  0  0
   -1.6659    0.4259    4.9563 O   0  0  0  0  0  0  0  0  0  0  0  0
    1.2596   -0.6061    4.4458 C   0  0  0  0  0  0  0  0  0  0  0  0
   -0.6886    0.7831    2.6200 H   0  0  0  0  0  0  0  0  0  0  0  0
   -0.0772   -1.9843    3.4793 H   0  0  0  0  0  0  0  0  0  0  0  0
    1.2958    0.4486    4.7368 H   0  0  0  0  0  0  0  0  0  0  0  0
    1.3839   -1.2206    5.3422 H   0  0  0  0  0  0  0  0  0  0  0  0
    2.0938   -0.8095    3.7672 H   0  0  0  0  0  0  0  0  0  0  0  0
   -1.8277   -1.7816    5.3727 N   0  0  0  0  0  0  0  0  0  0  0  0
   -2.9971   -1.6575    6.2330 C   0  0  0  0  0  0  0  0  0  0  0  0
   -1.5274   -2.7075    5.0832 H   0  0  0  0  0  0  0  0  0  0  0  0
   -2.7981   -0.9597    7.0531 H   0  0  0  0  0  0  0  0  0  0  0  0
   -3.8559   -1.2929    5.6597 H   0  0  0  0  0  0  0  0  0  0  0  0
   -3.2534   -2.6300    6.6637 H   0  0  0  0  0  0  0  0  0  0  0  0
  1  2  2  0  0  0  0
  1  3  1  0  0  0  0
  1  7  1  0  0  0  0
  3  4  1  0  0  0  0
  3  5  1  0  0  0  0
  3  6  1  0  0  0  0
  7  8  1  0  0  0  0
  7 12  1  0  0  0  0
  8  9  1  0  0  0  0
  8 11  1  0  0  0  0
  8 13  1  0  0  0  0
  9 10  2  0  0  0  0
  9 17  1  0  0  0  0
 11 14  1  0  0  0  0
 11 15  1  0  0  0  0
 11 16  1  0  0  0  0
 17 18  1  0  0  0  0
 17 25  1  0  0  0  0
 18 19  1  0  0  0  0
 18 21  1  0  0  0  0
 18 26  1  0  0  0  0
 19 20  2  0  0  0  0
 19 29  1  0  0  0  0
 21 22  1  0  0  0  0
 21 27  1  0  0  0  0
 21 28  1  0  0  0  0
 22 23  1  0  0  0  0
 22 24  2  0  0  0  0
 29 30  1  0  0  0  0
 29 34  1  0  0  0  0
 30 31  1  0  0  0  0
 30 33  1  0  0  0  0
 30 35  1  0  0  0  0
 31 32  2  0  0  0  0
 31 39  1  0  0  0  0
 33 36  1  0  0  0  0
 33 37  1  0  0  0  0
 33 38  1  0  0  0  0
 39 40  1  0  0  0  0
 39 41  1  0  0  0  0
 40 42  1  0  0  0  0
 40 43  1  0  0  0  0
 40 44  1  0  0  0  0
M  CHG  1  23  -1
M  END
$$$$

  -OEChem-05262215553D

 44 43  0     1  0  0  0  0  0999 V2000
   -4.5418   -0.0878   -4.2059 C   0  0  0  0  0  0  0  0  0  0  0  0
   -4.3355   -1.1874   -4.6996 O   0  0  0  0  0  0  0  0  0  0  0  0
   -5.9074    0.5592   -4.3483 C   0  0  0  0  0  0  0  0  0  0  0  0
   -5.8178    1.4982   -4.9000 H   0  0  0  0  0  0  0  0  0  0  0  0
   -6.5877   -0.1050   -4.8884 H   0  0  0  0  0  0  0  0  0  0  0  0
   -6.3254    0.7652   -3.3596 H   0  0  0  0  0  0  0  0  0  0  0  0
   -3.5508    0.5775   -3.5194 N   0  0  0  0  0  0  0  0  0  0  0  0
   -2.2970   -0.0392   -3.0679 C   0  0  2  0  0  0  0  0  0  0  0  0
   -2.0782    0.1900   -1.5559 C   0  0  0  0  0  0  0  0  0  0  0  0
   -2.9621    0.7127   -0.8861 O   0  0  0  0  0  0  0  0  0  0  0  0
   -1.1575    0.5774   -3.8828 C   0  0  0  0  0  0  0  0  0  0  0  0
   -3.8488    1.3906   -2.9800 H   0  0  0  0  0  0  0  0  0  0  0  0
   -2.3146   -1.1205   -3.2354 H   0  0  0  0  0  0  0  0  0  0  0  0
   -1.1207    1.6611   -3.7266 H   0  0  0  0  0  0  0  0  0  0  0  0
   -0.1932    0.1550   -3.5850 H   0  0  0  0  0  0  0  0  0  0  0  0
   -1.3060    0.3834   -4.9491 H   0  0  0  0  0  0  0  0  0  0  0  0
   -0.9961   -0.3747   -0.9076 N   0  0  0  0  0  0  0  0  0  0  0  0
   -0.1055    0.3476    0.0260 C   0  0  2  0  0  0  0  0  0  0  0  0
    0.1372   -0.5215    1.2741 C   0  0  0  0  0  0  0  0  0  0  0  0
    0.8243   -1.5356    1.1870 O   0  0  0  0  0  0  0  0  0  0  0  0
   -0.4676    1.8165    0.3710 C   0  0  0  0  0  0  0  0  0  0  0  0
   -0.2842    2.7618   -0.8178 C   0  0  0  0  0  0  0  0  0  0  0  0
    0.5897    2.4690   -1.6745 O   0  5  0  0  0  0  0  0  0  0  0  0
   -0.9707    3.8101   -0.8369 O   0  0  0  0  0  0  0  0  0  0  0  0
   -0.4783   -1.0009   -1.5146 H   0  0  0  0  0  0  0  0  0  0  0  0
    0.8764    0.3920   -0.4569 H   0  0  0  0  0  0  0  0  0  0  0  0
    0.1997    2.1691    1.1614 H   0  0  0  0  0  0  0  0  0  0  0  0
   -1.4897    1.8895    0.7494 H   0  0  0  0  0  0  0  0  0  0  0  0
   -0.4823   -0.2351    2.4769 N   0  0  0  0  0  0  0  0  0  0  0  0
   -0.4316   -1.0909    3.6682 C   0  0  2  0  0  0  0  0  0  0  0  0
   -1.7802   -1.1343    4.4153 C   0  0  0  0  0  0  0  0  0  0  0  0
   -2.4096   -0.1054    4.6312 O   0  0  0  0  0  0  0  0  0  0  0  0
    0.6766   -0.5688    4.5862 C   0  0  0  0  0  0  0  0  0  0  0  0
   -1.1406    0.5449    2.4732 H   0  0  0  0  0  0  0  0  0  0  0  0
   -0.1911   -2.1177    3.3754 H   0  0  0  0  0  0  0  0  0  0  0  0
    0.4664    0.4611    4.8923 H   0  0  0  0  0  0  0  0  0  0  0  0
    0.7545   -1.1905    5.4832 H   0  0  0  0  0  0  0  0  0  0  0  0
    1.6391   -0.5881    4.0652 H   0  0  0  0  0  0  0  0  0  0  0  0
   -2.2744   -2.3387    4.8842 N   0  0  0  0  0  0  0  0  0  0  0  0
   -3.5800   -2.4677    5.5177 C   0  0  0  0  0  0  0  0  0  0  0  0
   -1.7761   -3.1804    4.6115 H   0  0  0  0  0  0  0  0  0  0  0  0
   -3.6329   -1.8445    6.4164 H   0  0  0  0  0  0  0  0  0  0  0  0
   -4.3719   -2.1600    4.8269 H   0  0  0  0  0  0  0  0  0  0  0  0
   -3.7580   -3.5073    5.8082 H   0  0  0  0  0  0  0  0  0  0  0  0
  1  2  2  0  0  0  0
  1  3  1  0  0  0  0
  1  7  1  0  0  0  0
  3  4  1  0  0  0  0
  3  5  1  0  0  0  0
  3  6  1  0  0  0  0
  7  8  1  0  0  0  0
  7 12  1  0  0  0  0
  8  9  1  0  0  0  0
  8 11  1  0  0  0  0
  8 13  1  0  0  0  0
  9 10  2  0  0  0  0
  9 17  1  0  0  0  0
 11 14  1  0  0  0  0
 11 15  1  0  0  0  0
 11 16  1  0  0  0  0
 17 18  1  0  0  0  0
 17 25  1  0  0  0  0
 18 19  1  0  0  0  0
 18 21  1  0  0  0  0
 18 26  1  0  0  0  0
 19 20  2  0  0  0  0
 19 29  1  0  0  0  0
 21 22  1  0  0  0  0
 21 27  1  0  0  0  0
 21 28  1  0  0  0  0
 22 23  1  0  0  0  0
 22 24  2  0  0  0  0
 29 30  1  0  0  0  0
 29 34  1  0  0  0  0
 30 31  1  0  0  0  0
 30 33  1  0  0  0  0
 30 35  1  0  0  0  0
 31 32  2  0  0  0  0
 31 39  1  0  0  0  0
 33 36  1  0  0  0  0
 33 37  1  0  0  0  0
 33 38  1  0  0  0  0
 39 40  1  0  0  0  0
 39 41  1  0  0  0  0
 40 42  1  0  0  0  0
 40 43  1  0  0  0  0
 40 44  1  0  0  0  0
M  CHG  1  23  -1
M  END
$$$$

  -OEChem-05262215553D

 44 43  0     1  0  0  0  0  0999 V2000
   -4.5342   -0.0685   -4.2322 C   0  0  0  0  0  0  0  0  0  0  0  0
   -4.3191   -1.1702   -4.7178 O   0  0  0  0  0  0  0  0  0  0  0  0
   -5.9112    0.5562   -4.3612 C   0  0  0  0  0  0  0  0  0  0  0  0
   -5.8378    1.5157   -4.8792 H   0  0  0  0  0  0  0  0  0  0  0  0
   -6.5734   -0.1030   -4.9289 H   0  0  0  0  0  0  0  0  0  0  0  0
   -6.3401    0.7183   -3.3689 H   0  0  0  0  0  0  0  0  0  0  0  0
   -3.5447    0.6164   -3.5629 N   0  0  0  0  0  0  0  0  0  0  0  0
   -2.2864    0.0119   -3.1071 C   0  0  2  0  0  0  0  0  0  0  0  0
   -2.0791    0.2280   -1.5918 C   0  0  0  0  0  0  0  0  0  0  0  0
   -2.9515    0.7776   -0.9284 O   0  0  0  0  0  0  0  0  0  0  0  0
   -1.1478    0.6480   -3.9081 C   0  0  0  0  0  0  0  0  0  0  0  0
   -3.8478    1.4321   -3.0304 H   0  0  0  0  0  0  0  0  0  0  0  0
   -2.2889   -1.0680   -3.2849 H   0  0  0  0  0  0  0  0  0  0  0  0
   -1.1279    1.7320   -3.7512 H   0  0  0  0  0  0  0  0  0  0  0  0
   -0.1806    0.2397   -3.5992 H   0  0  0  0  0  0  0  0  0  0  0  0
   -1.2819    0.4528   -4.9762 H   0  0  0  0  0  0  0  0  0  0  0  0
   -1.0319   -0.3873   -0.9328 N   0  0  0  0  0  0  0  0  0  0  0  0
   -0.1175    0.2990    0.0038 C   0  0  2  0  0  0  0  0  0  0  0  0
    0.0709   -0.5732    1.2570 C   0  0  0  0  0  0  0  0  0  0  0  0
    0.9020   -1.4767    1.2579 O   0  0  0  0  0  0  0  0  0  0  0  0
   -0.4228    1.7785    0.3546 C   0  0  0  0  0  0  0  0  0  0  0  0
   -0.2024    2.7209   -0.8294 C   0  0  0  0  0  0  0  0  0  0  0  0
    0.6601    2.3981   -1.6866 O   0  5  0  0  0  0  0  0  0  0  0  0
   -0.8494    3.7939   -0.8458 O   0  0  0  0  0  0  0  0  0  0  0  0
   -0.5315   -1.0227   -1.5450 H   0  0  0  0  0  0  0  0  0  0  0  0
    0.8691    0.3042   -0.4717 H   0  0  0  0  0  0  0  0  0  0  0  0
    0.2570    2.0990    1.1481 H   0  0  0  0  0  0  0  0  0  0  0  0
   -1.4417    1.8895    0.7327 H   0  0  0  0  0  0  0  0  0  0  0  0
   -0.7716   -0.4352    2.3445 N   0  0  0  0  0  0  0  0  0  0  0  0
   -0.7509   -1.2955    3.5339 C   0  0  2  0  0  0  0  0  0  0  0  0
   -2.1671   -1.6538    4.0293 C   0  0  0  0  0  0  0  0  0  0  0  0
   -3.0003   -0.7790    4.2333 O   0  0  0  0  0  0  0  0  0  0  0  0
    0.0380   -0.5726    4.6282 C   0  0  0  0  0  0  0  0  0  0  0  0
   -1.5271    0.2448    2.2497 H   0  0  0  0  0  0  0  0  0  0  0  0
   -0.2434   -2.2373    3.3031 H   0  0  0  0  0  0  0  0  0  0  0  0
   -0.4430    0.3772    4.8835 H   0  0  0  0  0  0  0  0  0  0  0  0
    0.0928   -1.1900    5.5298 H   0  0  0  0  0  0  0  0  0  0  0  0
    1.0568   -0.3661    4.2858 H   0  0  0  0  0  0  0  0  0  0  0  0
   -2.4904   -2.9702    4.3079 N   0  0  0  0  0  0  0  0  0  0  0  0
   -3.8169   -3.3894    4.7405 C   0  0  0  0  0  0  0  0  0  0  0  0
   -1.8089   -3.6784    4.0517 H   0  0  0  0  0  0  0  0  0  0  0  0
   -4.0834   -2.9009    5.6836 H   0  0  0  0  0  0  0  0  0  0  0  0
   -4.5654   -3.1303    3.9846 H   0  0  0  0  0  0  0  0  0  0  0  0
   -3.8396   -4.4722    4.8941 H   0  0  0  0  0  0  0  0  0  0  0  0
  1  2  2  0  0  0  0
  1  3  1  0  0  0  0
  1  7  1  0  0  0  0
  3  4  1  0  0  0  0
  3  5  1  0  0  0  0
  3  6  1  0  0  0  0
  7  8  1  0  0  0  0
  7 12  1  0  0  0  0
  8  9  1  0  0  0  0
  8 11  1  0  0  0  0
  8 13  1  0  0  0  0
  9 10  2  0  0  0  0
  9 17  1  0  0  0  0
 11 14  1  0  0  0  0
 11 15  1  0  0  0  0
 11 16  1  0  0  0  0
 17 18  1  0  0  0  0
 17 25  1  0  0  0  0
 18 19  1  0  0  0  0
 18 21  1  0  0  0  0
 18 26  1  0  0  0  0
 19 20  2  0  0  0  0
 19 29  1  0  0  0  0
 21 22  1  0  0  0  0
 21 27  1  0  0  0  0
 21 28  1  0  0  0  0
 22 23  1  0  0  0  0
 22 24  2  0  0  0  0
 29 30  1  0  0  0  0
 29 34  1  0  0  0  0
 30 31  1  0  0  0  0
 30 33  1  0  0  0  0
 30 35  1  0  0  0  0
 31 32  2  0  0  0  0
 31 39  1  0  0  0  0
 33 36  1  0  0  0  0
 33 37  1  0  0  0  0
 33 38  1  0  0  0  0
 39 40  1  0  0  0  0
 39 41  1  0  0  0  0
 40 42  1  0  0  0  0
 40 43  1  0  0  0  0
 40 44  1  0  0  0  0
M  CHG  1  23  -1
M  END
$$$$

  -OEChem-05262215553D

 44 43  0     1  0  0  0  0  0999 V2000
   -4.7469    0.2023   -3.8217 C   0  0  0  0  0  0  0  0  0  0  0  0
   -4.8915   -0.9939   -4.0296 O   0  0  0  0  0  0  0  0  0  0  0  0
   -5.9316    1.1401   -3.9607 C   0  0  0  0  0  0  0  0  0  0  0  0
   -5.7142    1.9053   -4.7098 H   0  0  0  0  0  0  0  0  0  0  0  0
   -6.8208    0.5839   -4.2705 H   0  0  0  0  0  0  0  0  0  0  0  0
   -6.1342    1.6258   -3.0026 H   0  0  0  0  0  0  0  0  0  0  0  0
   -3.5224    0.7168   -3.4556 N   0  0  0  0  0  0  0  0  0  0  0  0
   -2.4094   -0.1029   -2.9584 C   0  0  2  0  0  0  0  0  0  0  0  0
   -2.0910    0.2213   -1.4822 C   0  0  0  0  0  0  0  0  0  0  0  0
   -2.7073    1.1070   -0.8981 O   0  0  0  0  0  0  0  0  0  0  0  0
   -1.1954    0.1749   -3.8464 C   0  0  0  0  0  0  0  0  0  0  0  0
   -3.5375    1.6746   -3.1070 H   0  0  0  0  0  0  0  0  0  0  0  0
   -2.6532   -1.1678   -3.0192 H   0  0  0  0  0  0  0  0  0  0  0  0
   -0.9110    1.2312   -3.7878 H   0  0  0  0  0  0  0  0  0  0  0  0
   -0.3397   -0.4286   -3.5288 H   0  0  0  0  0  0  0  0  0  0  0  0
   -1.4227   -0.0680   -4.8885 H   0  0  0  0  0  0  0  0  0  0  0  0
   -1.3156   -0.6280   -0.7173 N   0  0  0  0  0  0  0  0  0  0  0  0
   -0.1742   -0.1760    0.1064 C   0  0  2  0  0  0  0  0  0  0  0  0
   -0.2706   -0.8464    1.4850 C   0  0  0  0  0  0  0  0  0  0  0  0
    0.3655   -1.8620    1.7501 O   0  0  0  0  0  0  0  0  0  0  0  0
    0.0730    1.3489    0.2304 C   0  0  0  0  0  0  0  0  0  0  0  0
    0.5476    1.9773   -1.0794 C   0  0  0  0  0  0  0  0  0  0  0  0
    1.1992    1.2546   -1.8762 O   0  5  0  0  0  0  0  0  0  0  0  0
    0.2988    3.1911   -1.2646 O   0  0  0  0  0  0  0  0  0  0  0  0
   -1.0957   -1.4772   -1.2271 H   0  0  0  0  0  0  0  0  0  0  0  0
    0.7307   -0.5938   -0.3489 H   0  0  0  0  0  0  0  0  0  0  0  0
    0.8595    1.5188    0.9697 H   0  0  0  0  0  0  0  0  0  0  0  0
   -0.8234    1.8630    0.5842 H   0  0  0  0  0  0  0  0  0  0  0  0
   -1.2115   -0.3892    2.3877 N   0  0  0  0  0  0  0  0  0  0  0  0
   -1.4280   -0.9348    3.7359 C   0  0  2  0  0  0  0  0  0  0  0  0
   -2.2595   -2.2429    3.7422 C   0  0  0  0  0  0  0  0  0  0  0  0
   -3.2107   -2.4041    4.5007 O   0  0  0  0  0  0  0  0  0  0  0  0
   -2.0671    0.1804    4.5726 C   0  0  0  0  0  0  0  0  0  0  0  0
   -1.8100    0.3663    2.0550 H   0  0  0  0  0  0  0  0  0  0  0  0
   -0.4568   -1.1735    4.1811 H   0  0  0  0  0  0  0  0  0  0  0  0
   -3.0573    0.4350    4.1811 H   0  0  0  0  0  0  0  0  0  0  0  0
   -2.1768   -0.1401    5.6134 H   0  0  0  0  0  0  0  0  0  0  0  0
   -1.4414    1.0780    4.5527 H   0  0  0  0  0  0  0  0  0  0  0  0
   -1.8913   -3.2792    2.9071 N   0  0  0  0  0  0  0  0  0  0  0  0
   -2.5694   -4.5646    2.8418 C   0  0  0  0  0  0  0  0  0  0  0  0
   -1.0596   -3.1151    2.3332 H   0  0  0  0  0  0  0  0  0  0  0  0
   -2.5020   -5.0815    3.8042 H   0  0  0  0  0  0  0  0  0  0  0  0
   -3.6251   -4.4280    2.5860 H   0  0  0  0  0  0  0  0  0  0  0  0
   -2.1061   -5.1937    2.0761 H   0  0  0  0  0  0  0  0  0  0  0  0
  1  2  2  0  0  0  0
  1  3  1  0  0  0  0
  1  7  1  0  0  0  0
  3  4  1  0  0  0  0
  3  5  1  0  0  0  0
  3  6  1  0  0  0  0
  7  8  1  0  0  0  0
  7 12  1  0  0  0  0
  8  9  1  0  0  0  0
  8 11  1  0  0  0  0
  8 13  1  0  0  0  0
  9 10  2  0  0  0  0
  9 17  1  0  0  0  0
 11 14  1  0  0  0  0
 11 15  1  0  0  0  0
 11 16  1  0  0  0  0
 17 18  1  0  0  0  0
 17 25  1  0  0  0  0
 18 19  1  0  0  0  0
 18 21  1  0  0  0  0
 18 26  1  0  0  0  0
 19 20  2  0  0  0  0
 19 29  1  0  0  0  0
 21 22  1  0  0  0  0
 21 27  1  0  0  0  0
 21 28  1  0  0  0  0
 22 23  1  0  0  0  0
 22 24  2  0  0  0  0
 29 30  1  0  0  0  0
 29 34  1  0  0  0  0
 30 31  1  0  0  0  0
 30 33  1  0  0  0  0
 30 35  1  0  0  0  0
 31 32  2  0  0  0  0
 31 39  1  0  0  0  0
 33 36  1  0  0  0  0
 33 37  1  0  0  0  0
 33 38  1  0  0  0  0
 39 40  1  0  0  0  0
 39 41  1  0  0  0  0
 40 42  1  0  0  0  0
 40 43  1  0  0  0  0
 40 44  1  0  0  0  0
M  CHG  1  23  -1
M  END
$$$$

  -OEChem-05262215553D

 44 43  0     1  0  0  0  0  0999 V2000
   -4.6702    0.4141   -4.0656 C   0  0  0  0  0  0  0  0  0  0  0  0
   -4.8149   -0.7559   -4.3903 O   0  0  0  0  0  0  0  0  0  0  0  0
   -5.8214    1.3896   -4.2279 C   0  0  0  0  0  0  0  0  0  0  0  0
   -5.5439    2.1795   -4.9303 H   0  0  0  0  0  0  0  0  0  0  0  0
   -6.7065    0.8723   -4.6081 H   0  0  0  0  0  0  0  0  0  0  0  0
   -6.0644    1.8399   -3.2621 H   0  0  0  0  0  0  0  0  0  0  0  0
   -3.4750    0.8651   -3.5494 N   0  0  0  0  0  0  0  0  0  0  0  0
   -2.4098   -0.0155   -3.0511 C   0  0  2  0  0  0  0  0  0  0  0  0
   -2.1361    0.2279   -1.5501 C   0  0  0  0  0  0  0  0  0  0  0  0
   -2.8106    1.0376   -0.9223 O   0  0  0  0  0  0  0  0  0  0  0  0
   -1.1562    0.2563   -3.8843 C   0  0  0  0  0  0  0  0  0  0  0  0
   -3.4984    1.7937   -3.1287 H   0  0  0  0  0  0  0  0  0  0  0  0
   -2.6894   -1.0670   -3.1669 H   0  0  0  0  0  0  0  0  0  0  0  0
   -0.8479    1.3024   -3.7808 H   0  0  0  0  0  0  0  0  0  0  0  0
   -0.3276   -0.3793   -3.5567 H   0  0  0  0  0  0  0  0  0  0  0  0
   -1.3524    0.0533   -4.9413 H   0  0  0  0  0  0  0  0  0  0  0  0
   -1.3617   -0.6464   -0.8132 N   0  0  0  0  0  0  0  0  0  0  0  0
   -0.2519   -0.2136    0.0651 C   0  0  2  0  0  0  0  0  0  0  0  0
   -0.3692   -0.9615    1.4014 C   0  0  0  0  0  0  0  0  0  0  0  0
    0.4658   -1.7856    1.7605 O   0  0  0  0  0  0  0  0  0  0  0  0
   -0.0586    1.3066    0.2893 C   0  0  0  0  0  0  0  0  0  0  0  0
    0.4228    2.0283   -0.9690 C   0  0  0  0  0  0  0  0  0  0  0  0
    1.1145    1.3752   -1.7918 O   0  5  0  0  0  0  0  0  0  0  0  0
    0.1288    3.2398   -1.0942 O   0  0  0  0  0  0  0  0  0  0  0  0
   -1.1017   -1.4523   -1.3716 H   0  0  0  0  0  0  0  0  0  0  0  0
    0.6764   -0.5777   -0.3892 H   0  0  0  0  0  0  0  0  0  0  0  0
    0.7061    1.4535    1.0563 H   0  0  0  0  0  0  0  0  0  0  0  0
   -0.9797    1.7675    0.6539 H   0  0  0  0  0  0  0  0  0  0  0  0
   -1.5176   -0.7945    2.1509 N   0  0  0  0  0  0  0  0  0  0  0  0
   -1.7773   -1.4148    3.4583 C   0  0  2  0  0  0  0  0  0  0  0  0
   -2.2142   -2.8988    3.3594 C   0  0  0  0  0  0  0  0  0  0  0  0
   -3.1912   -3.3301    3.9639 O   0  0  0  0  0  0  0  0  0  0  0  0
   -2.8151   -0.5365    4.1682 C   0  0  0  0  0  0  0  0  0  0  0  0
   -2.2126   -0.1629    1.7526 H   0  0  0  0  0  0  0  0  0  0  0  0
   -0.8565   -1.3934    4.0505 H   0  0  0  0  0  0  0  0  0  0  0  0
   -3.7613   -0.5394    3.6174 H   0  0  0  0  0  0  0  0  0  0  0  0
   -3.0006   -0.9090    5.1805 H   0  0  0  0  0  0  0  0  0  0  0  0
   -2.4557    0.4947    4.2415 H   0  0  0  0  0  0  0  0  0  0  0  0
   -1.4526   -3.7779    2.6149 N   0  0  0  0  0  0  0  0  0  0  0  0
   -1.7197   -5.2034    2.5005 C   0  0  0  0  0  0  0  0  0  0  0  0
   -0.6094   -3.3844    2.1869 H   0  0  0  0  0  0  0  0  0  0  0  0
   -1.6299   -5.6872    3.4783 H   0  0  0  0  0  0  0  0  0  0  0  0
   -2.7288   -5.3739    2.1116 H   0  0  0  0  0  0  0  0  0  0  0  0
   -1.0023   -5.6657    1.8159 H   0  0  0  0  0  0  0  0  0  0  0  0
  1  2  2  0  0  0  0
  1  3  1  0  0  0  0
  1  7  1  0  0  0  0
  3  4  1  0  0  0  0
  3  5  1  0  0  0  0
  3  6  1  0  0  0  0
  7  8  1  0  0  0  0
  7 12  1  0  0  0  0
  8  9  1  0  0  0  0
  8 11  1  0  0  0  0
  8 13  1  0  0  0  0
  9 10  2  0  0  0  0
  9 17  1  0  0  0  0
 11 14  1  0  0  0  0
 11 15  1  0  0  0  0
 11 16  1  0  0  0  0
 17 18  1  0  0  0  0
 17 25  1  0  0  0  0
 18 19  1  0  0  0  0
 18 21  1  0  0  0  0
 18 26  1  0  0  0  0
 19 20  2  0  0  0  0
 19 29  1  0  0  0  0
 21 22  1  0  0  0  0
 21 27  1  0  0  0  0
 21 28  1  0  0  0  0
 22 23  1  0  0  0  0
 22 24  2  0  0  0  0
 29 30  1  0  0  0  0
 29 34  1  0  0  0  0
 30 31  1  0  0  0  0
 30 33  1  0  0  0  0
 30 35  1  0  0  0  0
 31 32  2  0  0  0  0
 31 39  1  0  0  0  0
 33 36  1  0  0  0  0
 33 37  1  0  0  0  0
 33 38  1  0  0  0  0
 39 40  1  0  0  0  0
 39 41  1  0  0  0  0
 40 42  1  0  0  0  0
 40 43  1  0  0  0  0
 40 44  1  0  0  0  0
M  CHG  1  23  -1
M  END
$$$$

  -OEChem-05262215553D

 44 43  0     1  0  0  0  0  0999 V2000
   -4.6436    0.7151   -4.2077 C   0  0  0  0  0  0  0  0  0  0  0  0
   -4.8127   -0.4166   -4.6391 O   0  0  0  0  0  0  0  0  0  0  0  0
   -5.7665    1.7327   -4.2967 C   0  0  0  0  0  0  0  0  0  0  0  0
   -5.4649    2.5643   -4.9382 H   0  0  0  0  0  0  0  0  0  0  0  0
   -6.6653    1.2706   -4.7139 H   0  0  0  0  0  0  0  0  0  0  0  0
   -5.9989    2.1175   -3.3004 H   0  0  0  0  0  0  0  0  0  0  0  0
   -3.4456    1.0850   -3.6368 N   0  0  0  0  0  0  0  0  0  0  0  0
   -2.4192    0.1323   -3.1927 C   0  0  2  0  0  0  0  0  0  0  0  0
   -2.1965    0.2239   -1.6658 C   0  0  0  0  0  0  0  0  0  0  0  0
   -2.9345    0.9182   -0.9746 O   0  0  0  0  0  0  0  0  0  0  0  0
   -1.1351    0.4484   -3.9613 C   0  0  0  0  0  0  0  0  0  0  0  0
   -3.4550    1.9724   -3.1351 H   0  0  0  0  0  0  0  0  0  0  0  0
   -2.7186   -0.8958   -3.4177 H   0  0  0  0  0  0  0  0  0  0  0  0
   -0.8135    1.4762   -3.7624 H   0  0  0  0  0  0  0  0  0  0  0  0
   -0.3280   -0.2278   -3.6642 H   0  0  0  0  0  0  0  0  0  0  0  0
   -1.3007    0.3388   -5.0372 H   0  0  0  0  0  0  0  0  0  0  0  0
   -1.4142   -0.6948   -0.9941 N   0  0  0  0  0  0  0  0  0  0  0  0
   -0.3371   -0.3113   -0.0511 C   0  0  2  0  0  0  0  0  0  0  0  0
   -0.4505   -1.1752    1.2153 C   0  0  0  0  0  0  0  0  0  0  0  0
    0.5165   -1.7556    1.6976 O   0  0  0  0  0  0  0  0  0  0  0  0
   -0.2035    1.1888    0.3080 C   0  0  0  0  0  0  0  0  0  0  0  0
    0.2809    2.0316   -0.8710 C   0  0  0  0  0  0  0  0  0  0  0  0
    1.0144    1.4750   -1.7280 O   0  5  0  0  0  0  0  0  0  0  0  0
   -0.0700    3.2337   -0.9120 O   0  0  0  0  0  0  0  0  0  0  0  0
   -1.1062   -1.4244   -1.6281 H   0  0  0  0  0  0  0  0  0  0  0  0
    0.6121   -0.6057   -0.5124 H   0  0  0  0  0  0  0  0  0  0  0  0
    0.5368    1.2952    1.1053 H   0  0  0  0  0  0  0  0  0  0  0  0
   -1.1494    1.5838    0.6866 H   0  0  0  0  0  0  0  0  0  0  0  0
   -1.6980   -1.3610    1.7799 N   0  0  0  0  0  0  0  0  0  0  0  0
   -1.9452   -2.0036    3.0792 C   0  0  2  0  0  0  0  0  0  0  0  0
   -1.9240   -3.5527    3.0166 C   0  0  0  0  0  0  0  0  0  0  0  0
   -2.8077   -4.2355    3.5258 O   0  0  0  0  0  0  0  0  0  0  0  0
   -3.2752   -1.4481    3.6030 C   0  0  0  0  0  0  0  0  0  0  0  0
   -2.4524   -0.8357    1.3372 H   0  0  0  0  0  0  0  0  0  0  0  0
   -1.1582   -1.7025    3.7784 H   0  0  0  0  0  0  0  0  0  0  0  0
   -4.1012   -1.7523    2.9517 H   0  0  0  0  0  0  0  0  0  0  0  0
   -3.4723   -1.8221    4.6127 H   0  0  0  0  0  0  0  0  0  0  0  0
   -3.2436   -0.3546    3.6412 H   0  0  0  0  0  0  0  0  0  0  0  0
   -0.8548   -4.1892    2.4174 N   0  0  0  0  0  0  0  0  0  0  0  0
   -0.6826   -5.6327    2.3572 C   0  0  0  0  0  0  0  0  0  0  0  0
   -0.1122   -3.5762    2.0680 H   0  0  0  0  0  0  0  0  0  0  0  0
   -0.5853   -6.0482    3.3654 H   0  0  0  0  0  0  0  0  0  0  0  0
   -1.5395   -6.1005    1.8614 H   0  0  0  0  0  0  0  0  0  0  0  0
    0.2206   -5.8789    1.7907 H   0  0  0  0  0  0  0  0  0  0  0  0
  1  2  2  0  0  0  0
  1  3  1  0  0  0  0
  1  7  1  0  0  0  0
  3  4  1  0  0  0  0
  3  5  1  0  0  0  0
  3  6  1  0  0  0  0
  7  8  1  0  0  0  0
  7 12  1  0  0  0  0
  8  9  1  0  0  0  0
  8 11  1  0  0  0  0
  8 13  1  0  0  0  0
  9 10  2  0  0  0  0
  9 17  1  0  0  0  0
 11 14  1  0  0  0  0
 11 15  1  0  0  0  0
 11 16  1  0  0  0  0
 17 18  1  0  0  0  0
 17 25  1  0  0  0  0
 18 19  1  0  0  0  0
 18 21  1  0  0  0  0
 18 26  1  0  0  0  0
 19 20  2  0  0  0  0
 19 29  1  0  0  0  0
 21 22  1  0  0  0  0
 21 27  1  0  0  0  0
 21 28  1  0  0  0  0
 22 23  1  0  0  0  0
 22 24  2  0  0  0  0
 29 30  1  0  0  0  0
 29 34  1  0  0  0  0
 30 31  1  0  0  0  0
 30 33  1  0  0  0  0
 30 35  1  0  0  0  0
 31 32  2  0  0  0  0
 31 39  1  0  0  0  0
 33 36  1  0  0  0  0
 33 37  1  0  0  0  0
 33 38  1  0  0  0  0
 39 40  1  0  0  0  0
 39 41  1  0  0  0  0
 40 42  1  0  0  0  0
 40 43  1  0  0  0  0
 40 44  1  0  0  0  0
M  CHG  1  23  -1
M  END
$$$$

  -OEChem-05262215553D

 44 43  0     1  0  0  0  0  0999 V2000
   -4.7462    0.8512   -4.1810 C   0  0  0  0  0  0  0  0  0  0  0  0
   -4.9267   -0.2608   -4.6569 O   0  0  0  0  0  0  0  0  0  0  0  0
   -5.8652    1.8764   -4.2121 C   0  0  0  0  0  0  0  0  0  0  0  0
   -5.5608    2.7408   -4.8071 H   0  0  0  0  0  0  0  0  0  0  0  0
   -6.7660    1.4412   -4.6536 H   0  0  0  0  0  0  0  0  0  0  0  0
   -6.0946    2.2069   -3.1958 H   0  0  0  0  0  0  0  0  0  0  0  0
   -3.5373    1.1936   -3.6160 N   0  0  0  0  0  0  0  0  0  0  0  0
   -2.4968    0.2244   -3.2465 C   0  0  2  0  0  0  0  0  0  0  0  0
   -2.2392    0.2258   -1.7218 C   0  0  0  0  0  0  0  0  0  0  0  0
   -2.9719    0.8629   -0.9730 O   0  0  0  0  0  0  0  0  0  0  0  0
   -1.2325    0.5969   -4.0228 C   0  0  0  0  0  0  0  0  0  0  0  0
   -3.5317    2.0603   -3.0795 H   0  0  0  0  0  0  0  0  0  0  0  0
   -2.7955   -0.7909   -3.5253 H   0  0  0  0  0  0  0  0  0  0  0  0
   -0.9165    1.6154   -3.7728 H   0  0  0  0  0  0  0  0  0  0  0  0
   -0.4128   -0.0866   -3.7817 H   0  0  0  0  0  0  0  0  0  0  0  0
   -1.4198    0.5465   -5.0993 H   0  0  0  0  0  0  0  0  0  0  0  0
   -1.4372   -0.7276   -1.1247 N   0  0  0  0  0  0  0  0  0  0  0  0
   -0.3292   -0.3969   -0.1938 C   0  0  2  0  0  0  0  0  0  0  0  0
   -0.3880   -1.3211    1.0365 C   0  0  0  0  0  0  0  0  0  0  0  0
    0.6270   -1.7035    1.6095 O   0  0  0  0  0  0  0  0  0  0  0  0
   -0.1799    1.0863    0.2249 C   0  0  0  0  0  0  0  0  0  0  0  0
    0.2767    1.9773   -0.9301 C   0  0  0  0  0  0  0  0  0  0  0  0
    0.9853    1.4551   -1.8291 O   0  5  0  0  0  0  0  0  0  0  0  0
   -0.0827    3.1777   -0.9200 O   0  0  0  0  0  0  0  0  0  0  0  0
   -1.1440   -1.4139   -1.8123 H   0  0  0  0  0  0  0  0  0  0  0  0
    0.6024   -0.6707   -0.7009 H   0  0  0  0  0  0  0  0  0  0  0  0
    0.5813    1.1579    1.0059 H   0  0  0  0  0  0  0  0  0  0  0  0
   -1.1144    1.4664    0.6446 H   0  0  0  0  0  0  0  0  0  0  0  0
   -1.6133   -1.7992    1.4614 N   0  0  0  0  0  0  0  0  0  0  0  0
   -1.8350   -2.5284    2.7189 C   0  0  2  0  0  0  0  0  0  0  0  0
   -1.4716   -4.0329    2.6292 C   0  0  0  0  0  0  0  0  0  0  0  0
   -2.2524   -4.9129    2.9797 O   0  0  0  0  0  0  0  0  0  0  0  0
   -3.2963   -2.2915    3.1183 C   0  0  0  0  0  0  0  0  0  0  0  0
   -2.4162   -1.3877    0.9866 H   0  0  0  0  0  0  0  0  0  0  0  0
   -1.2008   -2.0941    3.4988 H   0  0  0  0  0  0  0  0  0  0  0  0
   -3.9729   -2.7236    2.3741 H   0  0  0  0  0  0  0  0  0  0  0  0
   -3.5057   -2.7532    4.0882 H   0  0  0  0  0  0  0  0  0  0  0  0
   -3.5007   -1.2192    3.1971 H   0  0  0  0  0  0  0  0  0  0  0  0
   -0.2147   -4.3964    2.1875 N   0  0  0  0  0  0  0  0  0  0  0  0
    0.2660   -5.7670    2.1057 C   0  0  0  0  0  0  0  0  0  0  0  0
    0.4124   -3.6239    1.9422 H   0  0  0  0  0  0  0  0  0  0  0  0
   -0.4002   -6.3699    1.4801 H   0  0  0  0  0  0  0  0  0  0  0  0
    1.2670   -5.7873    1.6646 H   0  0  0  0  0  0  0  0  0  0  0  0
    0.3160   -6.2144    3.1036 H   0  0  0  0  0  0  0  0  0  0  0  0
  1  2  2  0  0  0  0
  1  3  1  0  0  0  0
  1  7  1  0  0  0  0
  3  4  1  0  0  0  0
  3  5  1  0  0  0  0
  3  6  1  0  0  0  0
  7  8  1  0  0  0  0
  7 12  1  0  0  0  0
  8  9  1  0  0  0  0
  8 11  1  0  0  0  0
  8 13  1  0  0  0  0
  9 10  2  0  0  0  0
  9 17  1  0  0  0  0
 11 14  1  0  0  0  0
 11 15  1  0  0  0  0
 11 16  1  0  0  0  0
 17 18  1  0  0  0  0
 17 25  1  0  0  0  0
 18 19  1  0  0  0  0
 18 21  1  0  0  0  0
 18 26  1  0  0  0  0
 19 20  2  0  0  0  0
 19 29  1  0  0  0  0
 21 22  1  0  0  0  0
 21 27  1  0  0  0  0
 21 28  1  0  0  0  0
 22 23  1  0  0  0  0
 22 24  2  0  0  0  0
 29 30  1  0  0  0  0
 29 34  1  0  0  0  0
 30 31  1  0  0  0  0
 30 33  1  0  0  0  0
 30 35  1  0  0  0  0
 31 32  2  0  0  0  0
 31 39  1  0  0  0  0
 33 36  1  0  0  0  0
 33 37  1  0  0  0  0
 33 38  1  0  0  0  0
 39 40  1  0  0  0  0
 39 41  1  0  0  0  0
 40 42  1  0  0  0  0
 40 43  1  0  0  0  0
 40 44  1  0  0  0  0
M  CHG  1  23  -1
M  END
$$$$

  -OEChem-05262215553D

 44 43  0     1  0  0  0  0  0999 V2000
   -4.8053    1.0416   -4.0689 C   0  0  0  0  0  0  0  0  0  0  0  0
   -5.1912   -0.0479   -4.4699 O   0  0  0  0  0  0  0  0  0  0  0  0
   -5.7563    2.2244   -4.0600 C   0  0  0  0  0  0  0  0  0  0  0  0
   -5.3944    2.9984   -4.7412 H   0  0  0  0  0  0  0  0  0  0  0  0
   -6.7550    1.9116   -4.3764 H   0  0  0  0  0  0  0  0  0  0  0  0
   -5.8200    2.6399   -3.0509 H   0  0  0  0  0  0  0  0  0  0  0  0
   -3.5112    1.2202   -3.6317 N   0  0  0  0  0  0  0  0  0  0  0  0
   -2.6158    0.1161   -3.2621 C   0  0  2  0  0  0  0  0  0  0  0  0
   -2.3281    0.1174   -1.7428 C   0  0  0  0  0  0  0  0  0  0  0  0
   -3.0707    0.7215   -0.9781 O   0  0  0  0  0  0  0  0  0  0  0  0
   -1.3376    0.2764   -4.0887 C   0  0  0  0  0  0  0  0  0  0  0  0
   -3.3328    2.1020   -3.1516 H   0  0  0  0  0  0  0  0  0  0  0  0
   -3.0667   -0.8512   -3.5035 H   0  0  0  0  0  0  0  0  0  0  0  0
   -0.8880    1.2591   -3.9121 H   0  0  0  0  0  0  0  0  0  0  0  0
   -0.6031   -0.4912   -3.8283 H   0  0  0  0  0  0  0  0  0  0  0  0
   -1.5655    0.1892   -5.1553 H   0  0  0  0  0  0  0  0  0  0  0  0
   -1.4718   -0.8007   -1.1651 N   0  0  0  0  0  0  0  0  0  0  0  0
   -0.3620   -0.4177   -0.2542 C   0  0  2  0  0  0  0  0  0  0  0  0
   -0.3433   -1.3406    0.9808 C   0  0  0  0  0  0  0  0  0  0  0  0
    0.6691   -1.4962    1.6558 O   0  0  0  0  0  0  0  0  0  0  0  0
   -0.2685    1.0790    0.1362 C   0  0  0  0  0  0  0  0  0  0  0  0
    0.1362    1.9603   -1.0461 C   0  0  0  0  0  0  0  0  0  0  0  0
    0.8532    1.4453   -1.9427 O   0  5  0  0  0  0  0  0  0  0  0  0
   -0.2981    3.1353   -1.0774 O   0  0  0  0  0  0  0  0  0  0  0  0
   -1.1542   -1.4628   -1.8654 H   0  0  0  0  0  0  0  0  0  0  0  0
    0.5698   -0.6580   -0.7771 H   0  0  0  0  0  0  0  0  0  0  0  0
    0.5008    1.1981    0.9033 H   0  0  0  0  0  0  0  0  0  0  0  0
   -1.2098    1.4307    0.5649 H   0  0  0  0  0  0  0  0  0  0  0  0
   -1.4469   -2.1256    1.2600 N   0  0  0  0  0  0  0  0  0  0  0  0
   -1.5810   -3.0035    2.4312 C   0  0  2  0  0  0  0  0  0  0  0  0
   -0.8479   -4.3577    2.2546 C   0  0  0  0  0  0  0  0  0  0  0  0
   -1.4250   -5.4332    2.3836 O   0  0  0  0  0  0  0  0  0  0  0  0
   -3.0819   -3.1675    2.7000 C   0  0  0  0  0  0  0  0  0  0  0  0
   -2.2797   -1.8985    0.7195 H   0  0  0  0  0  0  0  0  0  0  0  0
   -1.1376   -2.5094    3.3019 H   0  0  0  0  0  0  0  0  0  0  0  0
   -3.5714   -3.6671    1.8577 H   0  0  0  0  0  0  0  0  0  0  0  0
   -3.2424   -3.7675    3.6012 H   0  0  0  0  0  0  0  0  0  0  0  0
   -3.5513   -2.1901    2.8485 H   0  0  0  0  0  0  0  0  0  0  0  0
    0.5019   -4.3554    1.9638 N   0  0  0  0  0  0  0  0  0  0  0  0
    1.2995   -5.5505    1.7379 C   0  0  0  0  0  0  0  0  0  0  0  0
    0.9312   -3.4320    1.8498 H   0  0  0  0  0  0  0  0  0  0  0  0
    1.2526   -6.2134    2.6080 H   0  0  0  0  0  0  0  0  0  0  0  0
    0.9351   -6.0916    0.8588 H   0  0  0  0  0  0  0  0  0  0  0  0
    2.3452   -5.2763    1.5686 H   0  0  0  0  0  0  0  0  0  0  0  0
  1  2  2  0  0  0  0
  1  3  1  0  0  0  0
  1  7  1  0  0  0  0
  3  4  1  0  0  0  0
  3  5  1  0  0  0  0
  3  6  1  0  0  0  0
  7  8  1  0  0  0  0
  7 12  1  0  0  0  0
  8  9  1  0  0  0  0
  8 11  1  0  0  0  0
  8 13  1  0  0  0  0
  9 10  2  0  0  0  0
  9 17  1  0  0  0  0
 11 14  1  0  0  0  0
 11 15  1  0  0  0  0
 11 16  1  0  0  0  0
 17 18  1  0  0  0  0
 17 25  1  0  0  0  0
 18 19  1  0  0  0  0
 18 21  1  0  0  0  0
 18 26  1  0  0  0  0
 19 20  2  0  0  0  0
 19 29  1  0  0  0  0
 21 22  1  0  0  0  0
 21 27  1  0  0  0  0
 21 28  1  0  0  0  0
 22 23  1  0  0  0  0
 22 24  2  0  0  0  0
 29 30  1  0  0  0  0
 29 34  1  0  0  0  0
 30 31  1  0  0  0  0
 30 33  1  0  0  0  0
 30 35  1  0  0  0  0
 31 32  2  0  0  0  0
 31 39  1  0  0  0  0
 33 36  1  0  0  0  0
 33 37  1  0  0  0  0
 33 38  1  0  0  0  0
 39 40  1  0  0  0  0
 39 41  1  0  0  0  0
 40 42  1  0  0  0  0
 40 43  1  0  0  0  0
 40 44  1  0  0  0  0
M  CHG  1  23  -1
M  END
$$$$

  -OEChem-05262215553D

 44 43  0     1  0  0  0  0  0999 V2000
   -4.6381    0.3102   -4.3950 C   0  0  0  0  0  0  0  0  0  0  0  0
   -4.3980   -0.7067   -5.0302 O   0  0  0  0  0  0  0  0  0  0  0  0
   -6.0265    0.9210   -4.4442 C   0  0  0  0  0  0  0  0  0  0  0  0
   -5.9727    1.9320   -4.8552 H   0  0  0  0  0  0  0  0  0  0  0  0
   -6.6847    0.3166   -5.0741 H   0  0  0  0  0  0  0  0  0  0  0  0
   -6.4469    0.9672   -3.4365 H   0  0  0  0  0  0  0  0  0  0  0  0
   -3.6656    0.9133   -3.6290 N   0  0  0  0  0  0  0  0  0  0  0  0
   -2.3879    0.2862   -3.2671 C   0  0  2  0  0  0  0  0  0  0  0  0
   -2.1646    0.3075   -1.7375 C   0  0  0  0  0  0  0  0  0  0  0  0
   -3.0586    0.7034   -0.9979 O   0  0  0  0  0  0  0  0  0  0  0  0
   -1.2789    1.0459   -3.9971 C   0  0  0  0  0  0  0  0  0  0  0  0
   -3.9843    1.6443   -2.9930 H   0  0  0  0  0  0  0  0  0  0  0  0
   -2.3700   -0.7614   -3.5830 H   0  0  0  0  0  0  0  0  0  0  0  0
   -1.2848    2.1022   -3.7067 H   0  0  0  0  0  0  0  0  0  0  0  0
   -0.2972    0.6282   -3.7542 H   0  0  0  0  0  0  0  0  0  0  0  0
   -1.4250    0.9823   -5.0795 H   0  0  0  0  0  0  0  0  0  0  0  0
   -1.1122   -0.3842   -1.1656 N   0  0  0  0  0  0  0  0  0  0  0  0
   -0.1727    0.2056   -0.1763 C   0  0  2  0  0  0  0  0  0  0  0  0
    0.0587   -0.7612    1.0081 C   0  0  0  0  0  0  0  0  0  0  0  0
    0.9024   -0.5373    1.8694 O   0  0  0  0  0  0  0  0  0  0  0  0
   -0.4744    1.6549    0.2866 C   0  0  0  0  0  0  0  0  0  0  0  0
   -0.2542    2.6815   -0.8256 C   0  0  0  0  0  0  0  0  0  0  0  0
    0.6065    2.4201   -1.7064 O   0  5  0  0  0  0  0  0  0  0  0  0
   -0.9374    3.7321   -0.7959 O   0  0  0  0  0  0  0  0  0  0  0  0
   -0.6120   -0.9028   -1.8801 H   0  0  0  0  0  0  0  0  0  0  0  0
    0.8056    0.2430   -0.6663 H   0  0  0  0  0  0  0  0  0  0  0  0
    0.2064    1.9188    1.0997 H   0  0  0  0  0  0  0  0  0  0  0  0
   -1.4909    1.7336    0.6784 H   0  0  0  0  0  0  0  0  0  0  0  0
   -0.5835   -1.9857    1.0318 N   0  0  0  0  0  0  0  0  0  0  0  0
   -0.3165   -3.0737    1.9793 C   0  0  2  0  0  0  0  0  0  0  0  0
   -0.2884   -4.4559    1.2940 C   0  0  0  0  0  0  0  0  0  0  0  0
   -0.8546   -4.6410    0.2217 O   0  0  0  0  0  0  0  0  0  0  0  0
   -1.3973   -3.0308    3.0620 C   0  0  0  0  0  0  0  0  0  0  0  0
   -1.2567   -2.1527    0.2857 H   0  0  0  0  0  0  0  0  0  0  0  0
    0.6618   -2.9275    2.4486 H   0  0  0  0  0  0  0  0  0  0  0  0
   -2.3877   -3.1816    2.6206 H   0  0  0  0  0  0  0  0  0  0  0  0
   -1.2242   -3.8114    3.8087 H   0  0  0  0  0  0  0  0  0  0  0  0
   -1.3853   -2.0598    3.5674 H   0  0  0  0  0  0  0  0  0  0  0  0
    0.3764   -5.5099    1.8949 N   0  0  0  0  0  0  0  0  0  0  0  0
    0.4774   -6.8366    1.3020 C   0  0  0  0  0  0  0  0  0  0  0  0
    0.8727   -5.3160    2.7594 H   0  0  0  0  0  0  0  0  0  0  0  0
   -0.5180   -7.2735    1.1712 H   0  0  0  0  0  0  0  0  0  0  0  0
    0.9719   -6.7837    0.3265 H   0  0  0  0  0  0  0  0  0  0  0  0
    1.0622   -7.4956    1.9505 H   0  0  0  0  0  0  0  0  0  0  0  0
  1  2  2  0  0  0  0
  1  3  1  0  0  0  0
  1  7  1  0  0  0  0
  3  4  1  0  0  0  0
  3  5  1  0  0  0  0
  3  6  1  0  0  0  0
  7  8  1  0  0  0  0
  7 12  1  0  0  0  0
  8  9  1  0  0  0  0
  8 11  1  0  0  0  0
  8 13  1  0  0  0  0
  9 10  2  0  0  0  0
  9 17  1  0  0  0  0
 11 14  1  0  0  0  0
 11 15  1  0  0  0  0
 11 16  1  0  0  0  0
 17 18  1  0  0  0  0
 17 25  1  0  0  0  0
 18 19  1  0  0  0  0
 18 21  1  0  0  0  0
 18 26  1  0  0  0  0
 19 20  2  0  0  0  0
 19 29  1  0  0  0  0
 21 22  1  0  0  0  0
 21 27  1  0  0  0  0
 21 28  1  0  0  0  0
 22 23  1  0  0  0  0
 22 24  2  0  0  0  0
 29 30  1  0  0  0  0
 29 34  1  0  0  0  0
 30 31  1  0  0  0  0
 30 33  1  0  0  0  0
 30 35  1  0  0  0  0
 31 32  2  0  0  0  0
 31 39  1  0  0  0  0
 33 36  1  0  0  0  0
 33 37  1  0  0  0  0
 33 38  1  0  0  0  0
 39 40  1  0  0  0  0
 39 41  1  0  0  0  0
 40 42  1  0  0  0  0
 40 43  1  0  0  0  0
 40 44  1  0  0  0  0
M  CHG  1  23  -1
M  END
$$$$

  -OEChem-05262215553D

 44 43  0     1  0  0  0  0  0999 V2000
   -4.6344    0.2434   -4.3584 C   0  0  0  0  0  0  0  0  0  0  0  0
   -4.3917   -0.7780   -4.9860 O   0  0  0  0  0  0  0  0  0  0  0  0
   -6.0312    0.8362   -4.3928 C   0  0  0  0  0  0  0  0  0  0  0  0
   -5.9991    1.8360   -4.8328 H   0  0  0  0  0  0  0  0  0  0  0  0
   -6.6960    0.2066   -4.9905 H   0  0  0  0  0  0  0  0  0  0  0  0
   -6.4303    0.9061   -3.3775 H   0  0  0  0  0  0  0  0  0  0  0  0
   -3.6562    0.8724   -3.6205 N   0  0  0  0  0  0  0  0  0  0  0  0
   -2.3656    0.2655   -3.2689 C   0  0  2  0  0  0  0  0  0  0  0  0
   -2.1510    0.2484   -1.7376 C   0  0  0  0  0  0  0  0  0  0  0  0
   -3.0744    0.5531   -0.9913 O   0  0  0  0  0  0  0  0  0  0  0  0
   -1.2734    1.0707   -3.9766 C   0  0  0  0  0  0  0  0  0  0  0  0
   -3.9776    1.6026   -2.9850 H   0  0  0  0  0  0  0  0  0  0  0  0
   -2.3202   -0.7723   -3.6131 H   0  0  0  0  0  0  0  0  0  0  0  0
   -1.3117    2.1212   -3.6683 H   0  0  0  0  0  0  0  0  0  0  0  0
   -0.2811    0.6778   -3.7358 H   0  0  0  0  0  0  0  0  0  0  0  0
   -1.4111    1.0216   -5.0609 H   0  0  0  0  0  0  0  0  0  0  0  0
   -1.0498   -0.3813   -1.1849 N   0  0  0  0  0  0  0  0  0  0  0  0
   -0.1636    0.2425   -0.1676 C   0  0  2  0  0  0  0  0  0  0  0  0
    0.1359   -0.7507    0.9814 C   0  0  0  0  0  0  0  0  0  0  0  0
    0.7467   -0.4211    1.9925 O   0  0  0  0  0  0  0  0  0  0  0  0
   -0.5704    1.6578    0.3244 C   0  0  0  0  0  0  0  0  0  0  0  0
   -0.4037    2.7198   -0.7642 C   0  0  0  0  0  0  0  0  0  0  0  0
    0.4857    2.5345   -1.6361 O   0  5  0  0  0  0  0  0  0  0  0  0
   -1.1658    3.7147   -0.7349 O   0  0  0  0  0  0  0  0  0  0  0  0
   -0.5052   -0.8181   -1.9213 H   0  0  0  0  0  0  0  0  0  0  0  0
    0.8133    0.3624   -0.6464 H   0  0  0  0  0  0  0  0  0  0  0  0
    0.0820    1.9513    1.1504 H   0  0  0  0  0  0  0  0  0  0  0  0
   -1.5938    1.6602    0.7060 H   0  0  0  0  0  0  0  0  0  0  0  0
   -0.1399   -2.0954    0.8117 N   0  0  0  0  0  0  0  0  0  0  0  0
    0.1800   -3.1582    1.7703 C   0  0  2  0  0  0  0  0  0  0  0  0
    0.4389   -4.5111    1.0752 C   0  0  0  0  0  0  0  0  0  0  0  0
    0.0031   -4.7355   -0.0495 O   0  0  0  0  0  0  0  0  0  0  0  0
   -0.9824   -3.2786    2.7601 C   0  0  0  0  0  0  0  0  0  0  0  0
   -0.6713   -2.3476   -0.0188 H   0  0  0  0  0  0  0  0  0  0  0  0
    1.0913   -2.8946    2.3169 H   0  0  0  0  0  0  0  0  0  0  0  0
   -1.9071   -3.5367    2.2344 H   0  0  0  0  0  0  0  0  0  0  0  0
   -0.7748   -4.0536    3.5035 H   0  0  0  0  0  0  0  0  0  0  0  0
   -1.1339   -2.3293    3.2840 H   0  0  0  0  0  0  0  0  0  0  0  0
    1.1671   -5.4927    1.7238 N   0  0  0  0  0  0  0  0  0  0  0  0
    1.4754   -6.7867    1.1299 C   0  0  0  0  0  0  0  0  0  0  0  0
    1.5456   -5.2659    2.6387 H   0  0  0  0  0  0  0  0  0  0  0  0
    0.5539   -7.3354    0.9090 H   0  0  0  0  0  0  0  0  0  0  0  0
    2.0409   -6.6569    0.2011 H   0  0  0  0  0  0  0  0  0  0  0  0
    2.0773   -7.3850    1.8205 H   0  0  0  0  0  0  0  0  0  0  0  0
  1  2  2  0  0  0  0
  1  3  1  0  0  0  0
  1  7  1  0  0  0  0
  3  4  1  0  0  0  0
  3  5  1  0  0  0  0
  3  6  1  0  0  0  0
  7  8  1  0  0  0  0
  7 12  1  0  0  0  0
  8  9  1  0  0  0  0
  8 11  1  0  0  0  0
  8 13  1  0  0  0  0
  9 10  2  0  0  0  0
  9 17  1  0  0  0  0
 11 14  1  0  0  0  0
 11 15  1  0  0  0  0
 11 16  1  0  0  0  0
 17 18  1  0  0  0  0
 17 25  1  0  0  0  0
 18 19  1  0  0  0  0
 18 21  1  0  0  0  0
 18 26  1  0  0  0  0
 19 20  2  0  0  0  0
 19 29  1  0  0  0  0
 21 22  1  0  0  0  0
 21 27  1  0  0  0  0
 21 28  1  0  0  0  0
 22 23  1  0  0  0  0
 22 24  2  0  0  0  0
 29 30  1  0  0  0  0
 29 34  1  0  0  0  0
 30 31  1  0  0  0  0
 30 33  1  0  0  0  0
 30 35  1  0  0  0  0
 31 32  2  0  0  0  0
 31 39  1  0  0  0  0
 33 36  1  0  0  0  0
 33 37  1  0  0  0  0
 33 38  1  0  0  0  0
 39 40  1  0  0  0  0
 39 41  1  0  0  0  0
 40 42  1  0  0  0  0
 40 43  1  0  0  0  0
 40 44  1  0  0  0  0
M  CHG  1  23  -1
M  END
$$$$

  -OEChem-05262215553D

 44 43  0     1  0  0  0  0  0999 V2000
   -4.6388    0.1741   -4.3070 C   0  0  0  0  0  0  0  0  0  0  0  0
   -4.4137   -0.8708   -4.9015 O   0  0  0  0  0  0  0  0  0  0  0  0
   -6.0347    0.7693   -4.3297 C   0  0  0  0  0  0  0  0  0  0  0  0
   -6.0111    1.7527   -4.8054 H   0  0  0  0  0  0  0  0  0  0  0  0
   -6.7148    0.1210   -4.8889 H   0  0  0  0  0  0  0  0  0  0  0  0
   -6.4089    0.8765   -3.3084 H   0  0  0  0  0  0  0  0  0  0  0  0
   -3.6413    0.8307   -3.6210 N   0  0  0  0  0  0  0  0  0  0  0  0
   -2.3522    0.2256   -3.2614 C   0  0  2  0  0  0  0  0  0  0  0  0
   -2.1488    0.2084   -1.7282 C   0  0  0  0  0  0  0  0  0  0  0  0
   -3.0840    0.4954   -0.9896 O   0  0  0  0  0  0  0  0  0  0  0  0
   -1.2588    1.0337   -3.9636 C   0  0  0  0  0  0  0  0  0  0  0  0
   -3.9509    1.5814   -3.0040 H   0  0  0  0  0  0  0  0  0  0  0  0
   -2.3006   -0.8114   -3.6066 H   0  0  0  0  0  0  0  0  0  0  0  0
   -1.2984    2.0830   -3.6518 H   0  0  0  0  0  0  0  0  0  0  0  0
   -0.2671    0.6400   -3.7221 H   0  0  0  0  0  0  0  0  0  0  0  0
   -1.3939    0.9893   -5.0484 H   0  0  0  0  0  0  0  0  0  0  0  0
   -1.0364   -0.3950   -1.1682 N   0  0  0  0  0  0  0  0  0  0  0  0
   -0.1763    0.2517   -0.1433 C   0  0  2  0  0  0  0  0  0  0  0  0
    0.1386   -0.7355    1.0082 C   0  0  0  0  0  0  0  0  0  0  0  0
    0.4846   -0.3664    2.1256 O   0  0  0  0  0  0  0  0  0  0  0  0
   -0.6086    1.6690    0.3239 C   0  0  0  0  0  0  0  0  0  0  0  0
   -0.4344    2.7190   -0.7752 C   0  0  0  0  0  0  0  0  0  0  0  0
    0.4733    2.5321   -1.6281 O   0  5  0  0  0  0  0  0  0  0  0  0
   -1.2145    3.7004   -0.7798 O   0  0  0  0  0  0  0  0  0  0  0  0
   -0.4754   -0.8091   -1.9046 H   0  0  0  0  0  0  0  0  0  0  0  0
    0.8035    0.3846   -0.6125 H   0  0  0  0  0  0  0  0  0  0  0  0
    0.0259    1.9821    1.1564 H   0  0  0  0  0  0  0  0  0  0  0  0
   -1.6379    1.6642    0.6891 H   0  0  0  0  0  0  0  0  0  0  0  0
    0.2000   -2.0924    0.7425 N   0  0  0  0  0  0  0  0  0  0  0  0
    0.6151   -3.1280    1.6953 C   0  0  2  0  0  0  0  0  0  0  0  0
    1.2053   -4.3651    0.9864 C   0  0  0  0  0  0  0  0  0  0  0  0
    1.0077   -4.5584   -0.2093 O   0  0  0  0  0  0  0  0  0  0  0  0
   -0.5989   -3.5267    2.5406 C   0  0  0  0  0  0  0  0  0  0  0  0
   -0.0867   -2.3942   -0.1853 H   0  0  0  0  0  0  0  0  0  0  0  0
    1.3940   -2.7258    2.3512 H   0  0  0  0  0  0  0  0  0  0  0  0
   -1.3884   -3.9394    1.9043 H   0  0  0  0  0  0  0  0  0  0  0  0
   -0.3193   -4.2791    3.2839 H   0  0  0  0  0  0  0  0  0  0  0  0
   -0.9976   -2.6536    3.0674 H   0  0  0  0  0  0  0  0  0  0  0  0
    1.9651   -5.2744    1.7004 N   0  0  0  0  0  0  0  0  0  0  0  0
    2.5758   -6.4543    1.1029 C   0  0  0  0  0  0  0  0  0  0  0  0
    2.1398   -5.0692    2.6796 H   0  0  0  0  0  0  0  0  0  0  0  0
    1.8104   -7.0963    0.6549 H   0  0  0  0  0  0  0  0  0  0  0  0
    3.2917   -6.1639    0.3271 H   0  0  0  0  0  0  0  0  0  0  0  0
    3.1066   -7.0311    1.8659 H   0  0  0  0  0  0  0  0  0  0  0  0
  1  2  2  0  0  0  0
  1  3  1  0  0  0  0
  1  7  1  0  0  0  0
  3  4  1  0  0  0  0
  3  5  1  0  0  0  0
  3  6  1  0  0  0  0
  7  8  1  0  0  0  0
  7 12  1  0  0  0  0
  8  9  1  0  0  0  0
  8 11  1  0  0  0  0
  8 13  1  0  0  0  0
  9 10  2  0  0  0  0
  9 17  1  0  0  0  0
 11 14  1  0  0  0  0
 11 15  1  0  0  0  0
 11 16  1  0  0  0  0
 17 18  1  0  0  0  0
 17 25  1  0  0  0  0
 18 19  1  0  0  0  0
 18 21  1  0  0  0  0
 18 26  1  0  0  0  0
 19 20  2  0  0  0  0
 19 29  1  0  0  0  0
 21 22  1  0  0  0  0
 21 27  1  0  0  0  0
 21 28  1  0  0  0  0
 22 23  1  0  0  0  0
 22 24  2  0  0  0  0
 29 30  1  0  0  0  0
 29 34  1  0  0  0  0
 30 31  1  0  0  0  0
 30 33  1  0  0  0  0
 30 35  1  0  0  0  0
 31 32  2  0  0  0  0
 31 39  1  0  0  0  0
 33 36  1  0  0  0  0
 33 37  1  0  0  0  0
 33 38  1  0  0  0  0
 39 40  1  0  0  0  0
 39 41  1  0  0  0  0
 40 42  1  0  0  0  0
 40 43  1  0  0  0  0
 40 44  1  0  0  0  0
M  CHG  1  23  -1
M  END
$$$$

  -OEChem-05262215553D

 44 43  0     1  0  0  0  0  0999 V2000
   -4.6448    0.1387   -4.2908 C   0  0  0  0  0  0  0  0  0  0  0  0
   -4.4108   -0.8898   -4.9102 O   0  0  0  0  0  0  0  0  0  0  0  0
   -6.0399    0.7362   -4.3176 C   0  0  0  0  0  0  0  0  0  0  0  0
   -6.0090    1.7333   -4.7638 H   0  0  0  0  0  0  0  0  0  0  0  0
   -6.7114    0.1057   -4.9066 H   0  0  0  0  0  0  0  0  0  0  0  0
   -6.4306    0.8133   -3.2996 H   0  0  0  0  0  0  0  0  0  0  0  0
   -3.6574    0.7726   -3.5700 N   0  0  0  0  0  0  0  0  0  0  0  0
   -2.3683    0.1620   -3.2179 C   0  0  2  0  0  0  0  0  0  0  0  0
   -2.1447    0.1673   -1.6877 C   0  0  0  0  0  0  0  0  0  0  0  0
   -3.0708    0.4660   -0.9425 O   0  0  0  0  0  0  0  0  0  0  0  0
   -1.2746    0.9489   -3.9442 C   0  0  0  0  0  0  0  0  0  0  0  0
   -3.9724    1.5104   -2.9400 H   0  0  0  0  0  0  0  0  0  0  0  0
   -2.3319   -0.8814   -3.5458 H   0  0  0  0  0  0  0  0  0  0  0  0
   -1.3055    2.0035   -3.6508 H   0  0  0  0  0  0  0  0  0  0  0  0
   -0.2832    0.5540   -3.7035 H   0  0  0  0  0  0  0  0  0  0  0  0
   -1.4184    0.8863   -5.0268 H   0  0  0  0  0  0  0  0  0  0  0  0
   -1.0156   -0.4143   -1.1378 N   0  0  0  0  0  0  0  0  0  0  0  0
   -0.1536    0.2520   -0.1286 C   0  0  2  0  0  0  0  0  0  0  0  0
    0.1894   -0.7254    1.0221 C   0  0  0  0  0  0  0  0  0  0  0  0
    0.2441   -0.3854    2.1995 O   0  0  0  0  0  0  0  0  0  0  0  0
   -0.5916    1.6697    0.3307 C   0  0  0  0  0  0  0  0  0  0  0  0
   -0.4372    2.7116   -0.7791 C   0  0  0  0  0  0  0  0  0  0  0  0
    0.4632    2.5232   -1.6396 O   0  5  0  0  0  0  0  0  0  0  0  0
   -1.2153    3.6944   -0.7775 O   0  0  0  0  0  0  0  0  0  0  0  0
   -0.4623   -0.8347   -1.8758 H   0  0  0  0  0  0  0  0  0  0  0  0
    0.8187    0.3932   -0.6103 H   0  0  0  0  0  0  0  0  0  0  0  0
    0.0514    1.9932    1.1527 H   0  0  0  0  0  0  0  0  0  0  0  0
   -1.6164    1.6613    0.7087 H   0  0  0  0  0  0  0  0  0  0  0  0
    0.5746   -2.0200    0.7182 N   0  0  0  0  0  0  0  0  0  0  0  0
    1.0163   -3.0216    1.6949 C   0  0  2  0  0  0  0  0  0  0  0  0
    1.9345   -4.0864    1.0593 C   0  0  0  0  0  0  0  0  0  0  0  0
    1.9914   -4.2183   -0.1595 O   0  0  0  0  0  0  0  0  0  0  0  0
   -0.2237   -3.6835    2.3045 C   0  0  0  0  0  0  0  0  0  0  0  0
    0.5836   -2.2879   -0.2623 H   0  0  0  0  0  0  0  0  0  0  0  0
    1.5884   -2.5279    2.4873 H   0  0  0  0  0  0  0  0  0  0  0  0
   -0.8094   -4.1861    1.5281 H   0  0  0  0  0  0  0  0  0  0  0  0
    0.0652   -4.4212    3.0586 H   0  0  0  0  0  0  0  0  0  0  0  0
   -0.8573   -2.9311    2.7850 H   0  0  0  0  0  0  0  0  0  0  0  0
    2.7026   -4.9078    1.8654 N   0  0  0  0  0  0  0  0  0  0  0  0
    3.6252   -5.9087    1.3461 C   0  0  0  0  0  0  0  0  0  0  0  0
    2.6627   -4.7461    2.8674 H   0  0  0  0  0  0  0  0  0  0  0  0
    3.1084   -6.5911    0.6633 H   0  0  0  0  0  0  0  0  0  0  0  0
    4.4479   -5.4265    0.8082 H   0  0  0  0  0  0  0  0  0  0  0  0
    4.0440   -6.4975    2.1678 H   0  0  0  0  0  0  0  0  0  0  0  0
  1  2  2  0  0  0  0
  1  3  1  0  0  0  0
  1  7  1  0  0  0  0
  3  4  1  0  0  0  0
  3  5  1  0  0  0  0
  3  6  1  0  0  0  0
  7  8  1  0  0  0  0
  7 12  1  0  0  0  0
  8  9  1  0  0  0  0
  8 11  1  0  0  0  0
  8 13  1  0  0  0  0
  9 10  2  0  0  0  0
  9 17  1  0  0  0  0
 11 14  1  0  0  0  0
 11 15  1  0  0  0  0
 11 16  1  0  0  0  0
 17 18  1  0  0  0  0
 17 25  1  0  0  0  0
 18 19  1  0  0  0  0
 18 21  1  0  0  0  0
 18 26  1  0  0  0  0
 19 20  2  0  0  0  0
 19 29  1  0  0  0  0
 21 22  1  0  0  0  0
 21 27  1  0  0  0  0
 21 28  1  0  0  0  0
 22 23  1  0  0  0  0
 22 24  2  0  0  0  0
 29 30  1  0  0  0  0
 29 34  1  0  0  0  0
 30 31  1  0  0  0  0
 30 33  1  0  0  0  0
 30 35  1  0  0  0  0
 31 32  2  0  0  0  0
 31 39  1  0  0  0  0
 33 36  1  0  0  0  0
 33 37  1  0  0  0  0
 33 38  1  0  0  0  0
 39 40  1  0  0  0  0
 39 41  1  0  0  0  0
 40 42  1  0  0  0  0
 40 43  1  0  0  0  0
 40 44  1  0  0  0  0
M  CHG  1  23  -1
M  END
$$$$

  -OEChem-05262215553D

 44 43  0     1  0  0  0  0  0999 V2000
   -4.6284    0.0900   -4.2725 C   0  0  0  0  0  0  0  0  0  0  0  0
   -4.3842   -0.9335   -4.8961 O   0  0  0  0  0  0  0  0  0  0  0  0
   -6.0292    0.6743   -4.2974 C   0  0  0  0  0  0  0  0  0  0  0  0
   -6.0040    1.6831   -4.7166 H   0  0  0  0  0  0  0  0  0  0  0  0
   -6.6887    0.0531   -4.9093 H   0  0  0  0  0  0  0  0  0  0  0  0
   -6.4296    0.7206   -3.2814 H   0  0  0  0  0  0  0  0  0  0  0  0
   -3.6490    0.7257   -3.5427 N   0  0  0  0  0  0  0  0  0  0  0  0
   -2.3574    0.1237   -3.1883 C   0  0  2  0  0  0  0  0  0  0  0  0
   -2.1244    0.1640   -1.6603 C   0  0  0  0  0  0  0  0  0  0  0  0
   -3.0388    0.5087   -0.9209 O   0  0  0  0  0  0  0  0  0  0  0  0
   -1.2700    0.8986   -3.9368 C   0  0  0  0  0  0  0  0  0  0  0  0
   -3.9712    1.4552   -2.9064 H   0  0  0  0  0  0  0  0  0  0  0  0
   -2.3241   -0.9266   -3.4942 H   0  0  0  0  0  0  0  0  0  0  0  0
   -1.2974    1.9584   -3.6608 H   0  0  0  0  0  0  0  0  0  0  0  0
   -0.2767    0.5070   -3.6979 H   0  0  0  0  0  0  0  0  0  0  0  0
   -1.4240    0.8181   -5.0169 H   0  0  0  0  0  0  0  0  0  0  0  0
   -0.9995   -0.4199   -1.1046 N   0  0  0  0  0  0  0  0  0  0  0  0
   -0.1263    0.2476   -0.1076 C   0  0  2  0  0  0  0  0  0  0  0  0
    0.2060   -0.7237    1.0492 C   0  0  0  0  0  0  0  0  0  0  0  0
   -0.0177   -0.4688    2.2279 O   0  0  0  0  0  0  0  0  0  0  0  0
   -0.5411    1.6735    0.3452 C   0  0  0  0  0  0  0  0  0  0  0  0
   -0.3808    2.7056   -0.7734 C   0  0  0  0  0  0  0  0  0  0  0  0
    0.5105    2.4976   -1.6392 O   0  5  0  0  0  0  0  0  0  0  0  0
   -1.1313    3.7094   -0.7628 O   0  0  0  0  0  0  0  0  0  0  0  0
   -0.4593   -0.8795   -1.8280 H   0  0  0  0  0  0  0  0  0  0  0  0
    0.8447    0.3764   -0.5956 H   0  0  0  0  0  0  0  0  0  0  0  0
    0.1116    1.9896    1.1628 H   0  0  0  0  0  0  0  0  0  0  0  0
   -1.5639    1.6810    0.7287 H   0  0  0  0  0  0  0  0  0  0  0  0
    0.8653   -1.9077    0.7655 N   0  0  0  0  0  0  0  0  0  0  0  0
    1.3316   -2.8695    1.7709 C   0  0  2  0  0  0  0  0  0  0  0  0
    2.5387   -3.6904    1.2704 C   0  0  0  0  0  0  0  0  0  0  0  0
    2.8094   -3.7384    0.0743 O   0  0  0  0  0  0  0  0  0  0  0  0
    0.1675   -3.7994    2.1290 C   0  0  0  0  0  0  0  0  0  0  0  0
    1.1528   -2.0664   -0.1972 H   0  0  0  0  0  0  0  0  0  0  0  0
    1.6531   -2.3304    2.6683 H   0  0  0  0  0  0  0  0  0  0  0  0
   -0.1650   -4.3520    1.2444 H   0  0  0  0  0  0  0  0  0  0  0  0
    0.4700   -4.5169    2.8974 H   0  0  0  0  0  0  0  0  0  0  0  0
   -0.6775   -3.2194    2.5139 H   0  0  0  0  0  0  0  0  0  0  0  0
    3.3247   -4.3875    2.1705 N   0  0  0  0  0  0  0  0  0  0  0  0
    4.4912   -5.1685    1.7815 C   0  0  0  0  0  0  0  0  0  0  0  0
    3.0918   -4.3042    3.1556 H   0  0  0  0  0  0  0  0  0  0  0  0
    4.2061   -5.9594    1.0796 H   0  0  0  0  0  0  0  0  0  0  0  0
    5.2403   -4.5267    1.3063 H   0  0  0  0  0  0  0  0  0  0  0  0
    4.9433   -5.6342    2.6621 H   0  0  0  0  0  0  0  0  0  0  0  0
  1  2  2  0  0  0  0
  1  3  1  0  0  0  0
  1  7  1  0  0  0  0
  3  4  1  0  0  0  0
  3  5  1  0  0  0  0
  3  6  1  0  0  0  0
  7  8  1  0  0  0  0
  7 12  1  0  0  0  0
  8  9  1  0  0  0  0
  8 11  1  0  0  0  0
  8 13  1  0  0  0  0
  9 10  2  0  0  0  0
  9 17  1  0  0  0  0
 11 14  1  0  0  0  0
 11 15  1  0  0  0  0
 11 16  1  0  0  0  0
 17 18  1  0  0  0  0
 17 25  1  0  0  0  0
 18 19  1  0  0  0  0
 18 21  1  0  0  0  0
 18 26  1  0  0  0  0
 19 20  2  0  0  0  0
 19 29  1  0  0  0  0
 21 22  1  0  0  0  0
 21 27  1  0  0  0  0
 21 28  1  0  0  0  0
 22 23  1  0  0  0  0
 22 24  2  0  0  0  0
 29 30  1  0  0  0  0
 29 34  1  0  0  0  0
 30 31  1  0  0  0  0
 30 33  1  0  0  0  0
 30 35  1  0  0  0  0
 31 32  2  0  0  0  0
 31 39  1  0  0  0  0
 33 36  1  0  0  0  0
 33 37  1  0  0  0  0
 33 38  1  0  0  0  0
 39 40  1  0  0  0  0
 39 41  1  0  0  0  0
 40 42  1  0  0  0  0
 40 43  1  0  0  0  0
 40 44  1  0  0  0  0
M  CHG  1  23  -1
M  END
$$$$

  -OEChem-05262215553D

 44 43  0     1  0  0  0  0  0999 V2000
   -4.6097    0.0555   -4.2681 C   0  0  0  0  0  0  0  0  0  0  0  0
   -4.3452   -0.9582   -4.8994 O   0  0  0  0  0  0  0  0  0  0  0  0
   -6.0173    0.6228   -4.3070 C   0  0  0  0  0  0  0  0  0  0  0  0
   -5.9970    1.6426   -4.6994 H   0  0  0  0  0  0  0  0  0  0  0  0
   -6.6560    0.0092   -4.9481 H   0  0  0  0  0  0  0  0  0  0  0  0
   -6.4400    0.6377   -3.2991 H   0  0  0  0  0  0  0  0  0  0  0  0
   -3.6481    0.6920   -3.5156 N   0  0  0  0  0  0  0  0  0  0  0  0
   -2.3505    0.1044   -3.1583 C   0  0  2  0  0  0  0  0  0  0  0  0
   -2.1089    0.1665   -1.6324 C   0  0  0  0  0  0  0  0  0  0  0  0
   -3.0075    0.5591   -0.8976 O   0  0  0  0  0  0  0  0  0  0  0  0
   -1.2697    0.8772   -3.9185 C   0  0  0  0  0  0  0  0  0  0  0  0
   -3.9837    1.4134   -2.8769 H   0  0  0  0  0  0  0  0  0  0  0  0
   -2.3112   -0.9493   -3.4511 H   0  0  0  0  0  0  0  0  0  0  0  0
   -1.2936    1.9372   -3.6428 H   0  0  0  0  0  0  0  0  0  0  0  0
   -0.2745    0.4855   -3.6877 H   0  0  0  0  0  0  0  0  0  0  0  0
   -1.4331    0.7946   -4.9971 H   0  0  0  0  0  0  0  0  0  0  0  0
   -0.9870   -0.4261   -1.0786 N   0  0  0  0  0  0  0  0  0  0  0  0
   -0.0956    0.2334   -0.0939 C   0  0  2  0  0  0  0  0  0  0  0  0
    0.2358   -0.7311    1.0676 C   0  0  0  0  0  0  0  0  0  0  0  0
   -0.2228   -0.6004    2.1974 O   0  0  0  0  0  0  0  0  0  0  0  0
   -0.4893    1.6608    0.3690 C   0  0  0  0  0  0  0  0  0  0  0  0
   -0.3366    2.6964   -0.7474 C   0  0  0  0  0  0  0  0  0  0  0  0
    0.5396    2.4829   -1.6274 O   0  5  0  0  0  0  0  0  0  0  0  0
   -1.0626    3.7174   -0.7090 O   0  0  0  0  0  0  0  0  0  0  0  0
   -0.4649   -0.9207   -1.7918 H   0  0  0  0  0  0  0  0  0  0  0  0
    0.8687    0.3547   -0.5966 H   0  0  0  0  0  0  0  0  0  0  0  0
    0.1764    1.9642    1.1809 H   0  0  0  0  0  0  0  0  0  0  0  0
   -1.5071    1.6752    0.7652 H   0  0  0  0  0  0  0  0  0  0  0  0
    1.1376   -1.7614    0.8569 N   0  0  0  0  0  0  0  0  0  0  0  0
    1.6063   -2.6824    1.8999 C   0  0  2  0  0  0  0  0  0  0  0  0
    3.0061   -3.2503    1.5895 C   0  0  0  0  0  0  0  0  0  0  0  0
    3.4405   -3.2503    0.4421 O   0  0  0  0  0  0  0  0  0  0  0  0
    0.5918   -3.8224    2.0362 C   0  0  0  0  0  0  0  0  0  0  0  0
    1.6142   -1.7948   -0.0422 H   0  0  0  0  0  0  0  0  0  0  0  0
    1.6767   -2.1463    2.8522 H   0  0  0  0  0  0  0  0  0  0  0  0
    0.5049   -4.3721    1.0936 H   0  0  0  0  0  0  0  0  0  0  0  0
    0.9014   -4.5192    2.8204 H   0  0  0  0  0  0  0  0  0  0  0  0
   -0.3936   -3.4244    2.2986 H   0  0  0  0  0  0  0  0  0  0  0  0
    3.7811   -3.7747    2.6084 N   0  0  0  0  0  0  0  0  0  0  0  0
    5.1247   -4.3000    2.4054 C   0  0  0  0  0  0  0  0  0  0  0  0
    3.4104   -3.7184    3.5526 H   0  0  0  0  0  0  0  0  0  0  0  0
    5.1096   -5.1234    1.6836 H   0  0  0  0  0  0  0  0  0  0  0  0
    5.7897   -3.5146    2.0317 H   0  0  0  0  0  0  0  0  0  0  0  0
    5.5291   -4.6765    3.3498 H   0  0  0  0  0  0  0  0  0  0  0  0
  1  2  2  0  0  0  0
  1  3  1  0  0  0  0
  1  7  1  0  0  0  0
  3  4  1  0  0  0  0
  3  5  1  0  0  0  0
  3  6  1  0  0  0  0
  7  8  1  0  0  0  0
  7 12  1  0  0  0  0
  8  9  1  0  0  0  0
  8 11  1  0  0  0  0
  8 13  1  0  0  0  0
  9 10  2  0  0  0  0
  9 17  1  0  0  0  0
 11 14  1  0  0  0  0
 11 15  1  0  0  0  0
 11 16  1  0  0  0  0
 17 18  1  0  0  0  0
 17 25  1  0  0  0  0
 18 19  1  0  0  0  0
 18 21  1  0  0  0  0
 18 26  1  0  0  0  0
 19 20  2  0  0  0  0
 19 29  1  0  0  0  0
 21 22  1  0  0  0  0
 21 27  1  0  0  0  0
 21 28  1  0  0  0  0
 22 23  1  0  0  0  0
 22 24  2  0  0  0  0
 29 30  1  0  0  0  0
 29 34  1  0  0  0  0
 30 31  1  0  0  0  0
 30 33  1  0  0  0  0
 30 35  1  0  0  0  0
 31 32  2  0  0  0  0
 31 39  1  0  0  0  0
 33 36  1  0  0  0  0
 33 37  1  0  0  0  0
 33 38  1  0  0  0  0
 39 40  1  0  0  0  0
 39 41  1  0  0  0  0
 40 42  1  0  0  0  0
 40 43  1  0  0  0  0
 40 44  1  0  0  0  0
M  CHG  1  23  -1
M  END
$$$$

  -OEChem-05262215553D

 44 43  0     1  0  0  0  0  0999 V2000
   -4.5942    0.0266   -4.2558 C   0  0  0  0  0  0  0  0  0  0  0  0
   -4.3209   -0.9814   -4.8924 O   0  0  0  0  0  0  0  0  0  0  0  0
   -6.0001    0.5956   -4.3046 C   0  0  0  0  0  0  0  0  0  0  0  0
   -5.9744    1.6150   -4.6971 H   0  0  0  0  0  0  0  0  0  0  0  0
   -6.6357   -0.0167   -4.9499 H   0  0  0  0  0  0  0  0  0  0  0  0
   -6.4280    0.6124   -3.2990 H   0  0  0  0  0  0  0  0  0  0  0  0
   -3.6435    0.6555   -3.4841 N   0  0  0  0  0  0  0  0  0  0  0  0
   -2.3485    0.0676   -3.1209 C   0  0  2  0  0  0  0  0  0  0  0  0
   -2.0940    0.1781   -1.6007 C   0  0  0  0  0  0  0  0  0  0  0  0
   -2.9715    0.6352   -0.8778 O   0  0  0  0  0  0  0  0  0  0  0  0
   -1.2626    0.8033   -3.9104 C   0  0  0  0  0  0  0  0  0  0  0  0
   -3.9861    1.3696   -2.8403 H   0  0  0  0  0  0  0  0  0  0  0  0
   -2.3241   -0.9953   -3.3802 H   0  0  0  0  0  0  0  0  0  0  0  0
   -1.2621    1.8688   -3.6563 H   0  0  0  0  0  0  0  0  0  0  0  0
   -0.2734    0.3954   -3.6824 H   0  0  0  0  0  0  0  0  0  0  0  0
   -1.4400    0.7018   -4.9853 H   0  0  0  0  0  0  0  0  0  0  0  0
   -0.9757   -0.4170   -1.0431 N   0  0  0  0  0  0  0  0  0  0  0  0
   -0.0719    0.2367   -0.0681 C   0  0  2  0  0  0  0  0  0  0  0  0
    0.2559   -0.7202    1.0992 C   0  0  0  0  0  0  0  0  0  0  0  0
   -0.4183   -0.7773    2.1216 O   0  0  0  0  0  0  0  0  0  0  0  0
   -0.4399    1.6665    0.4033 C   0  0  0  0  0  0  0  0  0  0  0  0
   -0.2865    2.7043   -0.7110 C   0  0  0  0  0  0  0  0  0  0  0  0
    0.5760    2.4815   -1.6021 O   0  5  0  0  0  0  0  0  0  0  0  0
   -0.9764    3.7485   -0.6432 O   0  0  0  0  0  0  0  0  0  0  0  0
   -0.4681   -0.9453   -1.7424 H   0  0  0  0  0  0  0  0  0  0  0  0
    0.8865    0.3468   -0.5834 H   0  0  0  0  0  0  0  0  0  0  0  0
    0.2378    1.9577    1.2097 H   0  0  0  0  0  0  0  0  0  0  0  0
   -1.4539    1.6931    0.8095 H   0  0  0  0  0  0  0  0  0  0  0  0
    1.3560   -1.5562    1.0048 N   0  0  0  0  0  0  0  0  0  0  0  0
    1.8105   -2.4544    2.0732 C   0  0  2  0  0  0  0  0  0  0  0  0
    3.3300   -2.7111    2.0082 C   0  0  0  0  0  0  0  0  0  0  0  0
    3.9479   -2.5416    0.9621 O   0  0  0  0  0  0  0  0  0  0  0  0
    1.0449   -3.7763    1.9565 C   0  0  0  0  0  0  0  0  0  0  0  0
    1.9854   -1.4166    0.2161 H   0  0  0  0  0  0  0  0  0  0  0  0
    1.5985   -1.9986    3.0463 H   0  0  0  0  0  0  0  0  0  0  0  0
    1.2432   -4.2481    0.9888 H   0  0  0  0  0  0  0  0  0  0  0  0
    1.3464   -4.4659    2.7504 H   0  0  0  0  0  0  0  0  0  0  0  0
   -0.0320   -3.6002    2.0440 H   0  0  0  0  0  0  0  0  0  0  0  0
    4.0075   -3.1451    3.1336 N   0  0  0  0  0  0  0  0  0  0  0  0
    5.4492   -3.3515    3.1718 C   0  0  0  0  0  0  0  0  0  0  0  0
    3.4766   -3.2182    3.9966 H   0  0  0  0  0  0  0  0  0  0  0  0
    5.7536   -4.0754    2.4087 H   0  0  0  0  0  0  0  0  0  0  0  0
    5.9760   -2.4080    2.9948 H   0  0  0  0  0  0  0  0  0  0  0  0
    5.7483   -3.7369    4.1511 H   0  0  0  0  0  0  0  0  0  0  0  0
  1  2  2  0  0  0  0
  1  3  1  0  0  0  0
  1  7  1  0  0  0  0
  3  4  1  0  0  0  0
  3  5  1  0  0  0  0
  3  6  1  0  0  0  0
  7  8  1  0  0  0  0
  7 12  1  0  0  0  0
  8  9  1  0  0  0  0
  8 11  1  0  0  0  0
  8 13  1  0  0  0  0
  9 10  2  0  0  0  0
  9 17  1  0  0  0  0
 11 14  1  0  0  0  0
 11 15  1  0  0  0  0
 11 16  1  0  0  0  0
 17 18  1  0  0  0  0
 17 25  1  0  0  0  0
 18 19  1  0  0  0  0
 18 21  1  0  0  0  0
 18 26  1  0  0  0  0
 19 20  2  0  0  0  0
 19 29  1  0  0  0  0
 21 22  1  0  0  0  0
 21 27  1  0  0  0  0
 21 28  1  0  0  0  0
 22 23  1  0  0  0  0
 22 24  2  0  0  0  0
 29 30  1  0  0  0  0
 29 34  1  0  0  0  0
 30 31  1  0  0  0  0
 30 33  1  0  0  0  0
 30 35  1  0  0  0  0
 31 32  2  0  0  0  0
 31 39  1  0  0  0  0
 33 36  1  0  0  0  0
 33 37  1  0  0  0  0
 33 38  1  0  0  0  0
 39 40  1  0  0  0  0
 39 41  1  0  0  0  0
 40 42  1  0  0  0  0
 40 43  1  0  0  0  0
 40 44  1  0  0  0  0
M  CHG  1  23  -1
M  END
$$$$

  -OEChem-05262215553D

 44 43  0     1  0  0  0  0  0999 V2000
   -4.5856    0.0196   -4.2467 C   0  0  0  0  0  0  0  0  0  0  0  0
   -4.3088   -0.9817   -4.8922 O   0  0  0  0  0  0  0  0  0  0  0  0
   -5.9908    0.5900   -4.2982 C   0  0  0  0  0  0  0  0  0  0  0  0
   -5.9595    1.6230   -4.6530 H   0  0  0  0  0  0  0  0  0  0  0  0
   -6.6150    0.0017   -4.9761 H   0  0  0  0  0  0  0  0  0  0  0  0
   -6.4353    0.5701   -3.3000 H   0  0  0  0  0  0  0  0  0  0  0  0
   -3.6394    0.6393   -3.4624 N   0  0  0  0  0  0  0  0  0  0  0  0
   -2.3430    0.0529   -3.1022 C   0  0  2  0  0  0  0  0  0  0  0  0
   -2.0849    0.1704   -1.5833 C   0  0  0  0  0  0  0  0  0  0  0  0
   -2.9476    0.6663   -0.8680 O   0  0  0  0  0  0  0  0  0  0  0  0
   -1.2600    0.7892   -3.8957 C   0  0  0  0  0  0  0  0  0  0  0  0
   -3.9842    1.3476   -2.8132 H   0  0  0  0  0  0  0  0  0  0  0  0
   -2.3190   -1.0110   -3.3581 H   0  0  0  0  0  0  0  0  0  0  0  0
   -1.2587    1.8551   -3.6425 H   0  0  0  0  0  0  0  0  0  0  0  0
   -0.2691    0.3837   -3.6707 H   0  0  0  0  0  0  0  0  0  0  0  0
   -1.4418    0.6855   -4.9696 H   0  0  0  0  0  0  0  0  0  0  0  0
   -0.9727   -0.4341   -1.0239 N   0  0  0  0  0  0  0  0  0  0  0  0
   -0.0651    0.2113   -0.0479 C   0  0  2  0  0  0  0  0  0  0  0  0
    0.2644   -0.7343    1.1274 C   0  0  0  0  0  0  0  0  0  0  0  0
   -0.5539   -1.0200    1.9943 O   0  0  0  0  0  0  0  0  0  0  0  0
   -0.4142    1.6430    0.4302 C   0  0  0  0  0  0  0  0  0  0  0  0
   -0.2499    2.6848   -0.6788 C   0  0  0  0  0  0  0  0  0  0  0  0
    0.6083    2.4559   -1.5725 O   0  5  0  0  0  0  0  0  0  0  0  0
   -0.9148    3.7440   -0.5947 O   0  0  0  0  0  0  0  0  0  0  0  0
   -0.4736   -0.9831   -1.7130 H   0  0  0  0  0  0  0  0  0  0  0  0
    0.8902    0.3110   -0.5713 H   0  0  0  0  0  0  0  0  0  0  0  0
    0.2677    1.9221    1.2369 H   0  0  0  0  0  0  0  0  0  0  0  0
   -1.4272    1.6802    0.8377 H   0  0  0  0  0  0  0  0  0  0  0  0
    1.5089   -1.3380    1.1901 N   0  0  0  0  0  0  0  0  0  0  0  0
    1.9530   -2.2055    2.2878 C   0  0  2  0  0  0  0  0  0  0  0  0
    3.4792   -2.1400    2.4985 C   0  0  0  0  0  0  0  0  0  0  0  0
    4.2223   -1.7994    1.5842 O   0  0  0  0  0  0  0  0  0  0  0  0
    1.5201   -3.6416    1.9768 C   0  0  0  0  0  0  0  0  0  0  0  0
    2.2222   -1.0055    0.5422 H   0  0  0  0  0  0  0  0  0  0  0  0
    1.4816   -1.8813    3.2216 H   0  0  0  0  0  0  0  0  0  0  0  0
    1.9787   -3.9857    1.0444 H   0  0  0  0  0  0  0  0  0  0  0  0
    1.8200   -4.3157    2.7843 H   0  0  0  0  0  0  0  0  0  0  0  0
    0.4320   -3.6948    1.8700 H   0  0  0  0  0  0  0  0  0  0  0  0
    4.0241   -2.4789    3.7239 N   0  0  0  0  0  0  0  0  0  0  0  0
    5.4481   -2.3920    4.0179 C   0  0  0  0  0  0  0  0  0  0  0  0
    3.3781   -2.7026    4.4752 H   0  0  0  0  0  0  0  0  0  0  0  0
    6.0178   -3.0421    3.3456 H   0  0  0  0  0  0  0  0  0  0  0  0
    5.8016   -1.3624    3.8990 H   0  0  0  0  0  0  0  0  0  0  0  0
    5.6401   -2.7067    5.0480 H   0  0  0  0  0  0  0  0  0  0  0  0
  1  2  2  0  0  0  0
  1  3  1  0  0  0  0
  1  7  1  0  0  0  0
  3  4  1  0  0  0  0
  3  5  1  0  0  0  0
  3  6  1  0  0  0  0
  7  8  1  0  0  0  0
  7 12  1  0  0  0  0
  8  9  1  0  0  0  0
  8 11  1  0  0  0  0
  8 13  1  0  0  0  0
  9 10  2  0  0  0  0
  9 17  1  0  0  0  0
 11 14  1  0  0  0  0
 11 15  1  0  0  0  0
 11 16  1  0  0  0  0
 17 18  1  0  0  0  0
 17 25  1  0  0  0  0
 18 19  1  0  0  0  0
 18 21  1  0  0  0  0
 18 26  1  0  0  0  0
 19 20  2  0  0  0  0
 19 29  1  0  0  0  0
 21 22  1  0  0  0  0
 21 27  1  0  0  0  0
 21 28  1  0  0  0  0
 22 23  1  0  0  0  0
 22 24  2  0  0  0  0
 29 30  1  0  0  0  0
 29 34  1  0  0  0  0
 30 31  1  0  0  0  0
 30 33  1  0  0  0  0
 30 35  1  0  0  0  0
 31 32  2  0  0  0  0
 31 39  1  0  0  0  0
 33 36  1  0  0  0  0
 33 37  1  0  0  0  0
 33 38  1  0  0  0  0
 39 40  1  0  0  0  0
 39 41  1  0  0  0  0
 40 42  1  0  0  0  0
 40 43  1  0  0  0  0
 40 44  1  0  0  0  0
M  CHG  1  23  -1
M  END
$$$$

  -OEChem-05262215553D

 44 43  0     1  0  0  0  0  0999 V2000
   -4.5917    0.0071   -4.2289 C   0  0  0  0  0  0  0  0  0  0  0  0
   -4.3181   -1.0000   -4.8666 O   0  0  0  0  0  0  0  0  0  0  0  0
   -5.9902    0.5919   -4.3008 C   0  0  0  0  0  0  0  0  0  0  0  0
   -5.9430    1.6270   -4.6484 H   0  0  0  0  0  0  0  0  0  0  0  0
   -6.6084    0.0143   -4.9935 H   0  0  0  0  0  0  0  0  0  0  0  0
   -6.4522    0.5701   -3.3104 H   0  0  0  0  0  0  0  0  0  0  0  0
   -3.6473    0.6219   -3.4387 N   0  0  0  0  0  0  0  0  0  0  0  0
   -2.3530    0.0333   -3.0754 C   0  0  2  0  0  0  0  0  0  0  0  0
   -2.0793    0.1788   -1.5619 C   0  0  0  0  0  0  0  0  0  0  0  0
   -2.9212    0.7186   -0.8534 O   0  0  0  0  0  0  0  0  0  0  0  0
   -1.2708    0.7484   -3.8889 C   0  0  0  0  0  0  0  0  0  0  0  0
   -3.9876    1.3407   -2.7990 H   0  0  0  0  0  0  0  0  0  0  0  0
   -2.3393   -1.0353   -3.3108 H   0  0  0  0  0  0  0  0  0  0  0  0
   -1.2565    1.8173   -3.6481 H   0  0  0  0  0  0  0  0  0  0  0  0
   -0.2822    0.3348   -3.6682 H   0  0  0  0  0  0  0  0  0  0  0  0
   -1.4639    0.6341   -4.9599 H   0  0  0  0  0  0  0  0  0  0  0  0
   -0.9690   -0.4301   -1.0028 N   0  0  0  0  0  0  0  0  0  0  0  0
   -0.0530    0.2048   -0.0267 C   0  0  2  0  0  0  0  0  0  0  0  0
    0.2810   -0.7364    1.1512 C   0  0  0  0  0  0  0  0  0  0  0  0
   -0.5900   -1.2772    1.8238 O   0  0  0  0  0  0  0  0  0  0  0  0
   -0.3873    1.6352    0.4637 C   0  0  0  0  0  0  0  0  0  0  0  0
   -0.2211    2.6851   -0.6372 C   0  0  0  0  0  0  0  0  0  0  0  0
    0.6301    2.4568   -1.5377 O   0  5  0  0  0  0  0  0  0  0  0  0
   -0.8666    3.7543   -0.5307 O   0  0  0  0  0  0  0  0  0  0  0  0
   -0.4829   -1.0038   -1.6809 H   0  0  0  0  0  0  0  0  0  0  0  0
    0.8982    0.2968   -0.5589 H   0  0  0  0  0  0  0  0  0  0  0  0
    0.3023    1.9035    1.2679 H   0  0  0  0  0  0  0  0  0  0  0  0
   -1.3974    1.6767    0.8777 H   0  0  0  0  0  0  0  0  0  0  0  0
    1.5960   -1.0973    1.3918 N   0  0  0  0  0  0  0  0  0  0  0  0
    2.0261   -1.9444    2.5121 C   0  0  2  0  0  0  0  0  0  0  0  0
    3.4323   -1.5719    3.0238 C   0  0  0  0  0  0  0  0  0  0  0  0
    4.2417   -1.0249    2.2830 O   0  0  0  0  0  0  0  0  0  0  0  0
    2.0006   -3.4055    2.0548 C   0  0  0  0  0  0  0  0  0  0  0  0
    2.3188   -0.5674    0.9052 H   0  0  0  0  0  0  0  0  0  0  0  0
    1.3338   -1.8185    3.3511 H   0  0  0  0  0  0  0  0  0  0  0  0
    2.6810   -3.5534    1.2103 H   0  0  0  0  0  0  0  0  0  0  0  0
    2.3061   -4.0681    2.8699 H   0  0  0  0  0  0  0  0  0  0  0  0
    0.9899   -3.6865    1.7425 H   0  0  0  0  0  0  0  0  0  0  0  0
    3.7979   -1.8711    4.3242 N   0  0  0  0  0  0  0  0  0  0  0  0
    5.0892   -1.5112    4.8942 C   0  0  0  0  0  0  0  0  0  0  0  0
    3.0846   -2.2672    4.9293 H   0  0  0  0  0  0  0  0  0  0  0  0
    5.9015   -1.9647    4.3168 H   0  0  0  0  0  0  0  0  0  0  0  0
    5.2185   -0.4239    4.8934 H   0  0  0  0  0  0  0  0  0  0  0  0
    5.1585   -1.8681    5.9261 H   0  0  0  0  0  0  0  0  0  0  0  0
  1  2  2  0  0  0  0
  1  3  1  0  0  0  0
  1  7  1  0  0  0  0
  3  4  1  0  0  0  0
  3  5  1  0  0  0  0
  3  6  1  0  0  0  0
  7  8  1  0  0  0  0
  7 12  1  0  0  0  0
  8  9  1  0  0  0  0
  8 11  1  0  0  0  0
  8 13  1  0  0  0  0
  9 10  2  0  0  0  0
  9 17  1  0  0  0  0
 11 14  1  0  0  0  0
 11 15  1  0  0  0  0
 11 16  1  0  0  0  0
 17 18  1  0  0  0  0
 17 25  1  0  0  0  0
 18 19  1  0  0  0  0
 18 21  1  0  0  0  0
 18 26  1  0  0  0  0
 19 20  2  0  0  0  0
 19 29  1  0  0  0  0
 21 22  1  0  0  0  0
 21 27  1  0  0  0  0
 21 28  1  0  0  0  0
 22 23  1  0  0  0  0
 22 24  2  0  0  0  0
 29 30  1  0  0  0  0
 29 34  1  0  0  0  0
 30 31  1  0  0  0  0
 30 33  1  0  0  0  0
 30 35  1  0  0  0  0
 31 32  2  0  0  0  0
 31 39  1  0  0  0  0
 33 36  1  0  0  0  0
 33 37  1  0  0  0  0
 33 38  1  0  0  0  0
 39 40  1  0  0  0  0
 39 41  1  0  0  0  0
 40 42  1  0  0  0  0
 40 43  1  0  0  0  0
 40 44  1  0  0  0  0
M  CHG  1  23  -1
M  END
$$$$

  -OEChem-05262215553D

 44 43  0     1  0  0  0  0  0999 V2000
   -4.5885    0.0030   -4.2186 C   0  0  0  0  0  0  0  0  0  0  0  0
   -4.3239   -1.0089   -4.8526 O   0  0  0  0  0  0  0  0  0  0  0  0
   -5.9780    0.6080   -4.3020 C   0  0  0  0  0  0  0  0  0  0  0  0
   -5.9112    1.6470   -4.6345 H   0  0  0  0  0  0  0  0  0  0  0  0
   -6.5940    0.0484   -5.0111 H   0  0  0  0  0  0  0  0  0  0  0  0
   -6.4548    0.5793   -3.3188 H   0  0  0  0  0  0  0  0  0  0  0  0
   -3.6432    0.6033   -3.4181 N   0  0  0  0  0  0  0  0  0  0  0  0
   -2.3620   -0.0038   -3.0401 C   0  0  2  0  0  0  0  0  0  0  0  0
   -2.0866    0.1780   -1.5312 C   0  0  0  0  0  0  0  0  0  0  0  0
   -2.9169    0.7549   -0.8379 O   0  0  0  0  0  0  0  0  0  0  0  0
   -1.2614    0.6628   -3.8707 C   0  0  0  0  0  0  0  0  0  0  0  0
   -3.9772    1.3313   -2.7854 H   0  0  0  0  0  0  0  0  0  0  0  0
   -2.3735   -1.0785   -3.2457 H   0  0  0  0  0  0  0  0  0  0  0  0
   -1.2167    1.7356   -3.6528 H   0  0  0  0  0  0  0  0  0  0  0  0
   -0.2844    0.2265   -3.6424 H   0  0  0  0  0  0  0  0  0  0  0  0
   -1.4587    0.5306   -4.9387 H   0  0  0  0  0  0  0  0  0  0  0  0
   -0.9806   -0.4263   -0.9601 N   0  0  0  0  0  0  0  0  0  0  0  0
   -0.0637    0.2096    0.0134 C   0  0  2  0  0  0  0  0  0  0  0  0
    0.2682   -0.7166    1.2040 C   0  0  0  0  0  0  0  0  0  0  0  0
   -0.5508   -1.4994    1.6750 O   0  0  0  0  0  0  0  0  0  0  0  0
   -0.3873    1.6478    0.4886 C   0  0  0  0  0  0  0  0  0  0  0  0
   -0.2072    2.6859   -0.6214 C   0  0  0  0  0  0  0  0  0  0  0  0
    0.6453    2.4427   -1.5164 O   0  5  0  0  0  0  0  0  0  0  0  0
   -0.8373    3.7647   -0.5206 O   0  0  0  0  0  0  0  0  0  0  0  0
   -0.5045   -1.0355   -1.6137 H   0  0  0  0  0  0  0  0  0  0  0  0
    0.8892    0.2852   -0.5187 H   0  0  0  0  0  0  0  0  0  0  0  0
    0.3001    1.9197    1.2935 H   0  0  0  0  0  0  0  0  0  0  0  0
   -1.3990    1.7024    0.8970 H   0  0  0  0  0  0  0  0  0  0  0  0
    1.5792   -0.8230    1.6356 N   0  0  0  0  0  0  0  0  0  0  0  0
    2.0174   -1.6724    2.7504 C   0  0  2  0  0  0  0  0  0  0  0  0
    3.1852   -1.0475    3.5405 C   0  0  0  0  0  0  0  0  0  0  0  0
    3.9658   -0.2749    2.9960 O   0  0  0  0  0  0  0  0  0  0  0  0
    2.4279   -3.0352    2.1859 C   0  0  0  0  0  0  0  0  0  0  0  0
    2.2343   -0.1158    1.3015 H   0  0  0  0  0  0  0  0  0  0  0  0
    1.1893   -1.8100    3.4536 H   0  0  0  0  0  0  0  0  0  0  0  0
    3.2550   -2.9218    1.4777 H   0  0  0  0  0  0  0  0  0  0  0  0
    2.7466   -3.7033    2.9915 H   0  0  0  0  0  0  0  0  0  0  0  0
    1.5838   -3.4989    1.6655 H   0  0  0  0  0  0  0  0  0  0  0  0
    3.3724   -1.3732    4.8720 N   0  0  0  0  0  0  0  0  0  0  0  0
    4.4131   -0.7802    5.7011 C   0  0  0  0  0  0  0  0  0  0  0  0
    2.6739   -1.9675    5.3083 H   0  0  0  0  0  0  0  0  0  0  0  0
    5.4026   -0.9877    5.2809 H   0  0  0  0  0  0  0  0  0  0  0  0
    4.2772    0.3041    5.7677 H   0  0  0  0  0  0  0  0  0  0  0  0
    4.3731   -1.1974    6.7116 H   0  0  0  0  0  0  0  0  0  0  0  0
  1  2  2  0  0  0  0
  1  3  1  0  0  0  0
  1  7  1  0  0  0  0
  3  4  1  0  0  0  0
  3  5  1  0  0  0  0
  3  6  1  0  0  0  0
  7  8  1  0  0  0  0
  7 12  1  0  0  0  0
  8  9  1  0  0  0  0
  8 11  1  0  0  0  0
  8 13  1  0  0  0  0
  9 10  2  0  0  0  0
  9 17  1  0  0  0  0
 11 14  1  0  0  0  0
 11 15  1  0  0  0  0
 11 16  1  0  0  0  0
 17 18  1  0  0  0  0
 17 25  1  0  0  0  0
 18 19  1  0  0  0  0
 18 21  1  0  0  0  0
 18 26  1  0  0  0  0
 19 20  2  0  0  0  0
 19 29  1  0  0  0  0
 21 22  1  0  0  0  0
 21 27  1  0  0  0  0
 21 28  1  0  0  0  0
 22 23  1  0  0  0  0
 22 24  2  0  0  0  0
 29 30  1  0  0  0  0
 29 34  1  0  0  0  0
 30 31  1  0  0  0  0
 30 33  1  0  0  0  0
 30 35  1  0  0  0  0
 31 32  2  0  0  0  0
 31 39  1  0  0  0  0
 33 36  1  0  0  0  0
 33 37  1  0  0  0  0
 33 38  1  0  0  0  0
 39 40  1  0  0  0  0
 39 41  1  0  0  0  0
 40 42  1  0  0  0  0
 40 43  1  0  0  0  0
 40 44  1  0  0  0  0
M  CHG  1  23  -1
M  END
$$$$

  -OEChem-05262215553D

 44 43  0     1  0  0  0  0  0999 V2000
   -4.5961   -0.0164   -4.2040 C   0  0  0  0  0  0  0  0  0  0  0  0
   -4.3388   -1.0446   -4.8142 O   0  0  0  0  0  0  0  0  0  0  0  0
   -5.9755    0.6063   -4.3191 C   0  0  0  0  0  0  0  0  0  0  0  0
   -5.8899    1.6367   -4.6726 H   0  0  0  0  0  0  0  0  0  0  0  0
   -6.5891    0.0405   -5.0253 H   0  0  0  0  0  0  0  0  0  0  0  0
   -6.4664    0.6049   -3.3428 H   0  0  0  0  0  0  0  0  0  0  0  0
   -3.6499    0.5874   -3.4068 N   0  0  0  0  0  0  0  0  0  0  0  0
   -2.3741   -0.0240   -3.0154 C   0  0  2  0  0  0  0  0  0  0  0  0
   -2.0911    0.1869   -1.5118 C   0  0  0  0  0  0  0  0  0  0  0  0
   -2.9156    0.7806   -0.8255 O   0  0  0  0  0  0  0  0  0  0  0  0
   -1.2661    0.6118   -3.8606 C   0  0  0  0  0  0  0  0  0  0  0  0
   -3.9784    1.3332   -2.7924 H   0  0  0  0  0  0  0  0  0  0  0  0
   -2.3981   -1.1027   -3.1973 H   0  0  0  0  0  0  0  0  0  0  0  0
   -1.2057    1.6879   -3.6634 H   0  0  0  0  0  0  0  0  0  0  0  0
   -0.2950    0.1662   -3.6255 H   0  0  0  0  0  0  0  0  0  0  0  0
   -1.4672    0.4626   -4.9256 H   0  0  0  0  0  0  0  0  0  0  0  0
   -0.9852   -0.4114   -0.9345 N   0  0  0  0  0  0  0  0  0  0  0  0
   -0.0629    0.2240    0.0349 C   0  0  2  0  0  0  0  0  0  0  0  0
    0.2691   -0.6961    1.2310 C   0  0  0  0  0  0  0  0  0  0  0  0
   -0.4270   -1.6643    1.5224 O   0  0  0  0  0  0  0  0  0  0  0  0
   -0.3866    1.6660    0.5002 C   0  0  0  0  0  0  0  0  0  0  0  0
   -0.2063    2.6962   -0.6171 C   0  0  0  0  0  0  0  0  0  0  0  0
    0.6461    2.4470   -1.5102 O   0  5  0  0  0  0  0  0  0  0  0  0
   -0.8364    3.7756   -0.5232 O   0  0  0  0  0  0  0  0  0  0  0  0
   -0.5178   -1.0438   -1.5719 H   0  0  0  0  0  0  0  0  0  0  0  0
    0.8917    0.2928   -0.4955 H   0  0  0  0  0  0  0  0  0  0  0  0
    0.2995    1.9464    1.3031 H   0  0  0  0  0  0  0  0  0  0  0  0
   -1.3987    1.7231    0.9074 H   0  0  0  0  0  0  0  0  0  0  0  0
    1.4963   -0.5785    1.8611 N   0  0  0  0  0  0  0  0  0  0  0  0
    1.9250   -1.4051    2.9973 C   0  0  2  0  0  0  0  0  0  0  0  0
    2.7655   -0.6142    4.0200 C   0  0  0  0  0  0  0  0  0  0  0  0
    3.4459    0.3414    3.6653 O   0  0  0  0  0  0  0  0  0  0  0  0
    2.7288   -2.5889    2.4528 C   0  0  0  0  0  0  0  0  0  0  0  0
    2.0374    0.2636    1.6626 H   0  0  0  0  0  0  0  0  0  0  0  0
    1.0457   -1.7832    3.5289 H   0  0  0  0  0  0  0  0  0  0  0  0
    3.6214   -2.2344    1.9271 H   0  0  0  0  0  0  0  0  0  0  0  0
    3.0416   -3.2472    3.2688 H   0  0  0  0  0  0  0  0  0  0  0  0
    2.1196   -3.1703    1.7534 H   0  0  0  0  0  0  0  0  0  0  0  0
    2.7769   -0.9983    5.3492 N   0  0  0  0  0  0  0  0  0  0  0  0
    3.4929   -0.2674    6.3862 C   0  0  0  0  0  0  0  0  0  0  0  0
    2.1481   -1.7480    5.6212 H   0  0  0  0  0  0  0  0  0  0  0  0
    4.5540   -0.1793    6.1314 H   0  0  0  0  0  0  0  0  0  0  0  0
    3.0736    0.7370    6.5050 H   0  0  0  0  0  0  0  0  0  0  0  0
    3.4115   -0.7933    7.3420 H   0  0  0  0  0  0  0  0  0  0  0  0
  1  2  2  0  0  0  0
  1  3  1  0  0  0  0
  1  7  1  0  0  0  0
  3  4  1  0  0  0  0
  3  5  1  0  0  0  0
  3  6  1  0  0  0  0
  7  8  1  0  0  0  0
  7 12  1  0  0  0  0
  8  9  1  0  0  0  0
  8 11  1  0  0  0  0
  8 13  1  0  0  0  0
  9 10  2  0  0  0  0
  9 17  1  0  0  0  0
 11 14  1  0  0  0  0
 11 15  1  0  0  0  0
 11 16  1  0  0  0  0
 17 18  1  0  0  0  0
 17 25  1  0  0  0  0
 18 19  1  0  0  0  0
 18 21  1  0  0  0  0
 18 26  1  0  0  0  0
 19 20  2  0  0  0  0
 19 29  1  0  0  0  0
 21 22  1  0  0  0  0
 21 27  1  0  0  0  0
 21 28  1  0  0  0  0
 22 23  1  0  0  0  0
 22 24  2  0  0  0  0
 29 30  1  0  0  0  0
 29 34  1  0  0  0  0
 30 31  1  0  0  0  0
 30 33  1  0  0  0  0
 30 35  1  0  0  0  0
 31 32  2  0  0  0  0
 31 39  1  0  0  0  0
 33 36  1  0  0  0  0
 33 37  1  0  0  0  0
 33 38  1  0  0  0  0
 39 40  1  0  0  0  0
 39 41  1  0  0  0  0
 40 42  1  0  0  0  0
 40 43  1  0  0  0  0
 40 44  1  0  0  0  0
M  CHG  1  23  -1
M  END
$$$$

  -OEChem-05262215553D

 44 43  0     1  0  0  0  0  0999 V2000
   -4.6471   -0.1498   -4.1467 C   0  0  0  0  0  0  0  0  0  0  0  0
   -4.4344   -1.2533   -4.6288 O   0  0  0  0  0  0  0  0  0  0  0  0
   -5.9915    0.5228   -4.3554 C   0  0  0  0  0  0  0  0  0  0  0  0
   -5.8580    1.4498   -4.9184 H   0  0  0  0  0  0  0  0  0  0  0  0
   -6.6630   -0.1364   -4.9123 H   0  0  0  0  0  0  0  0  0  0  0  0
   -6.4455    0.7553   -3.3887 H   0  0  0  0  0  0  0  0  0  0  0  0
   -3.6765    0.4953   -3.4143 N   0  0  0  0  0  0  0  0  0  0  0  0
   -2.4186   -0.1156   -2.9694 C   0  0  2  0  0  0  0  0  0  0  0  0
   -2.0055    0.4117   -1.5768 C   0  0  0  0  0  0  0  0  0  0  0  0
   -2.7434    1.2075   -1.0086 O   0  0  0  0  0  0  0  0  0  0  0  0
   -1.3395    0.2019   -4.0097 C   0  0  0  0  0  0  0  0  0  0  0  0
   -3.9588    1.3329   -2.9027 H   0  0  0  0  0  0  0  0  0  0  0  0
   -2.5384   -1.2007   -2.8861 H   0  0  0  0  0  0  0  0  0  0  0  0
   -1.1808    1.2839   -4.0748 H   0  0  0  0  0  0  0  0  0  0  0  0
   -0.3909   -0.2713   -3.7402 H   0  0  0  0  0  0  0  0  0  0  0  0
   -1.6413   -0.1675   -4.9945 H   0  0  0  0  0  0  0  0  0  0  0  0
   -0.8989   -0.1354   -0.9510 N   0  0  0  0  0  0  0  0  0  0  0  0
   -0.0028    0.4758    0.0585 C   0  0  2  0  0  0  0  0  0  0  0  0
    0.2889   -0.4993    1.2228 C   0  0  0  0  0  0  0  0  0  0  0  0
   -0.2309   -1.6119    1.2719 O   0  0  0  0  0  0  0  0  0  0  0  0
   -0.3447    1.8984    0.5720 C   0  0  0  0  0  0  0  0  0  0  0  0
   -0.1529    2.9785   -0.4956 C   0  0  0  0  0  0  0  0  0  0  0  0
    0.7178    2.7735   -1.3827 O   0  5  0  0  0  0  0  0  0  0  0  0
   -0.7415    4.0726   -0.3225 O   0  0  0  0  0  0  0  0  0  0  0  0
   -0.4912   -0.9148   -1.4537 H   0  0  0  0  0  0  0  0  0  0  0  0
    0.9664    0.5692   -0.4411 H   0  0  0  0  0  0  0  0  0  0  0  0
    0.3193    2.1578    1.3993 H   0  0  0  0  0  0  0  0  0  0  0  0
   -1.3668    1.9296    0.9563 H   0  0  0  0  0  0  0  0  0  0  0  0
    1.3314   -0.2426    2.0966 N   0  0  0  0  0  0  0  0  0  0  0  0
    1.7178   -1.1184    3.2112 C   0  0  2  0  0  0  0  0  0  0  0  0
    2.1558   -0.3336    4.4645 C   0  0  0  0  0  0  0  0  0  0  0  0
    2.6490    0.7837    4.3652 O   0  0  0  0  0  0  0  0  0  0  0  0
    2.8553   -2.0254    2.7350 C   0  0  0  0  0  0  0  0  0  0  0  0
    1.7201    0.7008    2.0820 H   0  0  0  0  0  0  0  0  0  0  0  0
    0.8643   -1.7382    3.5045 H   0  0  0  0  0  0  0  0  0  0  0  0
    3.7251   -1.4270    2.4454 H   0  0  0  0  0  0  0  0  0  0  0  0
    3.1547   -2.7145    3.5303 H   0  0  0  0  0  0  0  0  0  0  0  0
    2.5325   -2.6137    1.8704 H   0  0  0  0  0  0  0  0  0  0  0  0
    2.0283   -0.9089    5.7165 N   0  0  0  0  0  0  0  0  0  0  0  0
    2.3872   -0.2260    6.9522 C   0  0  0  0  0  0  0  0  0  0  0  0
    1.5659   -1.8115    5.7689 H   0  0  0  0  0  0  0  0  0  0  0  0
    3.4492    0.0411    6.9489 H   0  0  0  0  0  0  0  0  0  0  0  0
    1.7939    0.6864    7.0717 H   0  0  0  0  0  0  0  0  0  0  0  0
    2.1980   -0.8776    7.8106 H   0  0  0  0  0  0  0  0  0  0  0  0
  1  2  2  0  0  0  0
  1  3  1  0  0  0  0
  1  7  1  0  0  0  0
  3  4  1  0  0  0  0
  3  5  1  0  0  0  0
  3  6  1  0  0  0  0
  7  8  1  0  0  0  0
  7 12  1  0  0  0  0
  8  9  1  0  0  0  0
  8 11  1  0  0  0  0
  8 13  1  0  0  0  0
  9 10  2  0  0  0  0
  9 17  1  0  0  0  0
 11 14  1  0  0  0  0
 11 15  1  0  0  0  0
 11 16  1  0  0  0  0
 17 18  1  0  0  0  0
 17 25  1  0  0  0  0
 18 19  1  0  0  0  0
 18 21  1  0  0  0  0
 18 26  1  0  0  0  0
 19 20  2  0  0  0  0
 19 29  1  0  0  0  0
 21 22  1  0  0  0  0
 21 27  1  0  0  0  0
 21 28  1  0  0  0  0
 22 23  1  0  0  0  0
 22 24  2  0  0  0  0
 29 30  1  0  0  0  0
 29 34  1  0  0  0  0
 30 31  1  0  0  0  0
 30 33  1  0  0  0  0
 30 35  1  0  0  0  0
 31 32  2  0  0  0  0
 31 39  1  0  0  0  0
 33 36  1  0  0  0  0
 33 37  1  0  0  0  0
 33 38  1  0  0  0  0
 39 40  1  0  0  0  0
 39 41  1  0  0  0  0
 40 42  1  0  0  0  0
 40 43  1  0  0  0  0
 40 44  1  0  0  0  0
M  CHG  1  23  -1
M  END
$$$$

  -OEChem-05262215553D

 44 43  0     1  0  0  0  0  0999 V2000
   -4.6129   -0.2180   -4.1505 C   0  0  0  0  0  0  0  0  0  0  0  0
   -4.3733   -1.3228   -4.6170 O   0  0  0  0  0  0  0  0  0  0  0  0
   -5.9664    0.4265   -4.3903 C   0  0  0  0  0  0  0  0  0  0  0  0
   -5.8411    1.3593   -4.9456 H   0  0  0  0  0  0  0  0  0  0  0  0
   -6.6091   -0.2445   -4.9669 H   0  0  0  0  0  0  0  0  0  0  0  0
   -6.4501    0.6439   -3.4348 H   0  0  0  0  0  0  0  0  0  0  0  0
   -3.6646    0.4508   -3.4091 N   0  0  0  0  0  0  0  0  0  0  0  0
   -2.4059   -0.1371   -2.9345 C   0  0  2  0  0  0  0  0  0  0  0  0
   -2.0236    0.4131   -1.5416 C   0  0  0  0  0  0  0  0  0  0  0  0
   -2.7983    1.1755   -0.9790 O   0  0  0  0  0  0  0  0  0  0  0  0
   -1.3137    0.1802   -3.9608 C   0  0  0  0  0  0  0  0  0  0  0  0
   -3.9704    1.2864   -2.9075 H   0  0  0  0  0  0  0  0  0  0  0  0
   -2.5124   -1.2225   -2.8399 H   0  0  0  0  0  0  0  0  0  0  0  0
   -1.1688    1.2631   -4.0382 H   0  0  0  0  0  0  0  0  0  0  0  0
   -0.3638   -0.2767   -3.6688 H   0  0  0  0  0  0  0  0  0  0  0  0
   -1.5943   -0.2070   -4.9453 H   0  0  0  0  0  0  0  0  0  0  0  0
   -0.9214   -0.1055   -0.8863 N   0  0  0  0  0  0  0  0  0  0  0  0
   -0.0191    0.5426    0.0931 C   0  0  2  0  0  0  0  0  0  0  0  0
    0.5428   -0.5094    1.0793 C   0  0  0  0  0  0  0  0  0  0  0  0
    0.3861   -1.7104    0.8640 O   0  0  0  0  0  0  0  0  0  0  0  0
   -0.5093    1.8289    0.8094 C   0  0  0  0  0  0  0  0  0  0  0  0
   -0.6171    3.0428   -0.1177 C   0  0  0  0  0  0  0  0  0  0  0  0
    0.1614    3.0882   -1.1075 O   0  5  0  0  0  0  0  0  0  0  0  0
   -1.3026    4.0124    0.2889 O   0  0  0  0  0  0  0  0  0  0  0  0
   -0.5152   -0.9174   -1.3387 H   0  0  0  0  0  0  0  0  0  0  0  0
    0.8607    0.8492   -0.4811 H   0  0  0  0  0  0  0  0  0  0  0  0
    0.1879    2.1059    1.6024 H   0  0  0  0  0  0  0  0  0  0  0  0
   -1.4816    1.6404    1.2723 H   0  0  0  0  0  0  0  0  0  0  0  0
    1.4127   -0.1485    2.0938 N   0  0  0  0  0  0  0  0  0  0  0  0
    2.0356   -1.0880    3.0356 C   0  0  2  0  0  0  0  0  0  0  0  0
    2.1613   -0.5087    4.4595 C   0  0  0  0  0  0  0  0  0  0  0  0
    2.3293    0.6921    4.6352 O   0  0  0  0  0  0  0  0  0  0  0  0
    3.4173   -1.4596    2.4919 C   0  0  0  0  0  0  0  0  0  0  0  0
    1.5067    0.8488    2.2878 H   0  0  0  0  0  0  0  0  0  0  0  0
    1.4252   -1.9938    3.1088 H   0  0  0  0  0  0  0  0  0  0  0  0
    4.0483   -0.5684    2.4118 H   0  0  0  0  0  0  0  0  0  0  0  0
    3.9092   -2.1778    3.1547 H   0  0  0  0  0  0  0  0  0  0  0  0
    3.3239   -1.9117    1.4994 H   0  0  0  0  0  0  0  0  0  0  0  0
    2.1214   -1.3536    5.5545 N   0  0  0  0  0  0  0  0  0  0  0  0
    2.1888   -0.8829    6.9316 C   0  0  0  0  0  0  0  0  0  0  0  0
    1.9177   -2.3328    5.3795 H   0  0  0  0  0  0  0  0  0  0  0  0
    3.1268   -0.3459    7.1080 H   0  0  0  0  0  0  0  0  0  0  0  0
    1.3504   -0.2124    7.1486 H   0  0  0  0  0  0  0  0  0  0  0  0
    2.1424   -1.7305    7.6221 H   0  0  0  0  0  0  0  0  0  0  0  0
  1  2  2  0  0  0  0
  1  3  1  0  0  0  0
  1  7  1  0  0  0  0
  3  4  1  0  0  0  0
  3  5  1  0  0  0  0
  3  6  1  0  0  0  0
  7  8  1  0  0  0  0
  7 12  1  0  0  0  0
  8  9  1  0  0  0  0
  8 11  1  0  0  0  0
  8 13  1  0  0  0  0
  9 10  2  0  0  0  0
  9 17  1  0  0  0  0
 11 14  1  0  0  0  0
 11 15  1  0  0  0  0
 11 16  1  0  0  0  0
 17 18  1  0  0  0  0
 17 25  1  0  0  0  0
 18 19  1  0  0  0  0
 18 21  1  0  0  0  0
 18 26  1  0  0  0  0
 19 20  2  0  0  0  0
 19 29  1  0  0  0  0
 21 22  1  0  0  0  0
 21 27  1  0  0  0  0
 21 28  1  0  0  0  0
 22 23  1  0  0  0  0
 22 24  2  0  0  0  0
 29 30  1  0  0  0  0
 29 34  1  0  0  0  0
 30 31  1  0  0  0  0
 30 33  1  0  0  0  0
 30 35  1  0  0  0  0
 31 32  2  0  0  0  0
 31 39  1  0  0  0  0
 33 36  1  0  0  0  0
 33 37  1  0  0  0  0
 33 38  1  0  0  0  0
 39 40  1  0  0  0  0
 39 41  1  0  0  0  0
 40 42  1  0  0  0  0
 40 43  1  0  0  0  0
 40 44  1  0  0  0  0
M  CHG  1  23  -1
M  END
$$$$

  -OEChem-05262215553D

 44 43  0     1  0  0  0  0  0999 V2000
   -4.5699   -0.1029   -4.2077 C   0  0  0  0  0  0  0  0  0  0  0  0
   -4.2900   -1.1387   -4.7947 O   0  0  0  0  0  0  0  0  0  0  0  0
   -5.9536    0.5024   -4.3585 C   0  0  0  0  0  0  0  0  0  0  0  0
   -5.8765    1.5092   -4.7767 H   0  0  0  0  0  0  0  0  0  0  0  0
   -6.5653   -0.1118   -5.0248 H   0  0  0  0  0  0  0  0  0  0  0  0
   -6.4420    0.5586   -3.3824 H   0  0  0  0  0  0  0  0  0  0  0  0
   -3.6460    0.5223   -3.4014 N   0  0  0  0  0  0  0  0  0  0  0  0
   -2.3752   -0.0727   -2.9705 C   0  0  2  0  0  0  0  0  0  0  0  0
   -2.1158    0.2012   -1.4726 C   0  0  0  0  0  0  0  0  0  0  0  0
   -2.9721    0.7749   -0.8094 O   0  0  0  0  0  0  0  0  0  0  0  0
   -1.2569    0.5276   -3.8271 C   0  0  0  0  0  0  0  0  0  0  0  0
   -3.9929    1.2772   -2.8079 H   0  0  0  0  0  0  0  0  0  0  0  0
   -2.3965   -1.1584   -3.1082 H   0  0  0  0  0  0  0  0  0  0  0  0
   -1.2073    1.6123   -3.6818 H   0  0  0  0  0  0  0  0  0  0  0  0
   -0.2879    0.0991   -3.5544 H   0  0  0  0  0  0  0  0  0  0  0  0
   -1.4398    0.3251   -4.8866 H   0  0  0  0  0  0  0  0  0  0  0  0
   -1.0261   -0.3648   -0.8384 N   0  0  0  0  0  0  0  0  0  0  0  0
   -0.0808    0.3343    0.0620 C   0  0  2  0  0  0  0  0  0  0  0  0
    0.4768   -0.6550    1.1139 C   0  0  0  0  0  0  0  0  0  0  0  0
    0.5050   -1.8599    0.8692 O   0  0  0  0  0  0  0  0  0  0  0  0
   -0.5393    1.6891    0.6692 C   0  0  0  0  0  0  0  0  0  0  0  0
   -0.6426    2.8057   -0.3735 C   0  0  0  0  0  0  0  0  0  0  0  0
    0.1182    2.7400   -1.3752 O   0  5  0  0  0  0  0  0  0  0  0  0
   -1.3496    3.8007   -0.0870 O   0  0  0  0  0  0  0  0  0  0  0  0
   -0.5763   -1.0873   -1.3897 H   0  0  0  0  0  0  0  0  0  0  0  0
    0.7965    0.5706   -0.5483 H   0  0  0  0  0  0  0  0  0  0  0  0
    0.1847    2.0332    1.4096 H   0  0  0  0  0  0  0  0  0  0  0  0
   -1.5002    1.5656    1.1757 H   0  0  0  0  0  0  0  0  0  0  0  0
    1.1316   -0.2166    2.2520 N   0  0  0  0  0  0  0  0  0  0  0  0
    1.7071   -1.0965    3.2782 C   0  0  2  0  0  0  0  0  0  0  0  0
    1.4574   -0.5827    4.7109 C   0  0  0  0  0  0  0  0  0  0  0  0
    1.3794    0.6179    4.9425 O   0  0  0  0  0  0  0  0  0  0  0  0
    3.2096   -1.2135    3.0119 C   0  0  0  0  0  0  0  0  0  0  0  0
    1.0400    0.7740    2.4781 H   0  0  0  0  0  0  0  0  0  0  0  0
    1.2541   -2.0909    3.2106 H   0  0  0  0  0  0  0  0  0  0  0  0
    3.6877   -0.2311    3.0830 H   0  0  0  0  0  0  0  0  0  0  0  0
    3.6766   -1.8830    3.7402 H   0  0  0  0  0  0  0  0  0  0  0  0
    3.3855   -1.6152    2.0092 H   0  0  0  0  0  0  0  0  0  0  0  0
    1.3579   -1.4824    5.7573 N   0  0  0  0  0  0  0  0  0  0  0  0
    1.0730   -1.0862    7.1300 C   0  0  0  0  0  0  0  0  0  0  0  0
    1.3611   -2.4699    5.5216 H   0  0  0  0  0  0  0  0  0  0  0  0
    1.8289   -0.3812    7.4912 H   0  0  0  0  0  0  0  0  0  0  0  0
    0.0881   -0.6123    7.1949 H   0  0  0  0  0  0  0  0  0  0  0  0
    1.0800   -1.9633    7.7841 H   0  0  0  0  0  0  0  0  0  0  0  0
  1  2  2  0  0  0  0
  1  3  1  0  0  0  0
  1  7  1  0  0  0  0
  3  4  1  0  0  0  0
  3  5  1  0  0  0  0
  3  6  1  0  0  0  0
  7  8  1  0  0  0  0
  7 12  1  0  0  0  0
  8  9  1  0  0  0  0
  8 11  1  0  0  0  0
  8 13  1  0  0  0  0
  9 10  2  0  0  0  0
  9 17  1  0  0  0  0
 11 14  1  0  0  0  0
 11 15  1  0  0  0  0
 11 16  1  0  0  0  0
 17 18  1  0  0  0  0
 17 25  1  0  0  0  0
 18 19  1  0  0  0  0
 18 21  1  0  0  0  0
 18 26  1  0  0  0  0
 19 20  2  0  0  0  0
 19 29  1  0  0  0  0
 21 22  1  0  0  0  0
 21 27  1  0  0  0  0
 21 28  1  0  0  0  0
 22 23  1  0  0  0  0
 22 24  2  0  0  0  0
 29 30  1  0  0  0  0
 29 34  1  0  0  0  0
 30 31  1  0  0  0  0
 30 33  1  0  0  0  0
 30 35  1  0  0  0  0
 31 32  2  0  0  0  0
 31 39  1  0  0  0  0
 33 36  1  0  0  0  0
 33 37  1  0  0  0  0
 33 38  1  0  0  0  0
 39 40  1  0  0  0  0
 39 41  1  0  0  0  0
 40 42  1  0  0  0  0
 40 43  1  0  0  0  0
 40 44  1  0  0  0  0
M  CHG  1  23  -1
M  END
$$$$

  -OEChem-05262215553D

 44 43  0     1  0  0  0  0  0999 V2000
   -4.5709   -0.1175   -4.2170 C   0  0  0  0  0  0  0  0  0  0  0  0
   -4.2876   -1.1598   -4.7905 O   0  0  0  0  0  0  0  0  0  0  0  0
   -5.9455    0.4983   -4.4023 C   0  0  0  0  0  0  0  0  0  0  0  0
   -5.8520    1.4692   -4.8952 H   0  0  0  0  0  0  0  0  0  0  0  0
   -6.5738   -0.1528   -5.0160 H   0  0  0  0  0  0  0  0  0  0  0  0
   -6.4248    0.6374   -3.4300 H   0  0  0  0  0  0  0  0  0  0  0  0
   -3.6553    0.5122   -3.4043 N   0  0  0  0  0  0  0  0  0  0  0  0
   -2.3827   -0.0734   -2.9664 C   0  0  2  0  0  0  0  0  0  0  0  0
   -2.1178    0.2219   -1.4741 C   0  0  0  0  0  0  0  0  0  0  0  0
   -2.9704    0.8061   -0.8155 O   0  0  0  0  0  0  0  0  0  0  0  0
   -1.2676    0.5151   -3.8352 C   0  0  0  0  0  0  0  0  0  0  0  0
   -4.0035    1.2774   -2.8252 H   0  0  0  0  0  0  0  0  0  0  0  0
   -2.4040   -1.1610   -3.0871 H   0  0  0  0  0  0  0  0  0  0  0  0
   -1.2069    1.6000   -3.6944 H   0  0  0  0  0  0  0  0  0  0  0  0
   -0.3004    0.0799   -3.5686 H   0  0  0  0  0  0  0  0  0  0  0  0
   -1.4608    0.3090   -4.8923 H   0  0  0  0  0  0  0  0  0  0  0  0
   -1.0307   -0.3437   -0.8356 N   0  0  0  0  0  0  0  0  0  0  0  0
   -0.0845    0.3590    0.0590 C   0  0  2  0  0  0  0  0  0  0  0  0
    0.4570   -0.6394    1.1094 C   0  0  0  0  0  0  0  0  0  0  0  0
    0.6680   -1.8061    0.7822 O   0  0  0  0  0  0  0  0  0  0  0  0
   -0.5337    1.7188    0.6617 C   0  0  0  0  0  0  0  0  0  0  0  0
   -0.6354    2.8337   -0.3830 C   0  0  0  0  0  0  0  0  0  0  0  0
    0.1209    2.7629   -1.3877 O   0  5  0  0  0  0  0  0  0  0  0  0
   -1.3351    3.8333   -0.0937 O   0  0  0  0  0  0  0  0  0  0  0  0
   -0.5763   -1.0624   -1.3889 H   0  0  0  0  0  0  0  0  0  0  0  0
    0.7956    0.5888   -0.5501 H   0  0  0  0  0  0  0  0  0  0  0  0
    0.1996    2.0605    1.3947 H   0  0  0  0  0  0  0  0  0  0  0  0
   -1.4925    1.6033    1.1739 H   0  0  0  0  0  0  0  0  0  0  0  0
    0.8363   -0.2430    2.3801 N   0  0  0  0  0  0  0  0  0  0  0  0
    1.3402   -1.1457    3.4235 C   0  0  2  0  0  0  0  0  0  0  0  0
    0.7531   -0.8315    4.8148 C   0  0  0  0  0  0  0  0  0  0  0  0
    0.4738    0.3185    5.1321 O   0  0  0  0  0  0  0  0  0  0  0  0
    2.8655   -1.0277    3.4508 C   0  0  0  0  0  0  0  0  0  0  0  0
    0.5617    0.6980    2.6630 H   0  0  0  0  0  0  0  0  0  0  0  0
    1.0672   -2.1787    3.1861 H   0  0  0  0  0  0  0  0  0  0  0  0
    3.1645   -0.0025    3.6922 H   0  0  0  0  0  0  0  0  0  0  0  0
    3.2880   -1.7011    4.2023 H   0  0  0  0  0  0  0  0  0  0  0  0
    3.2824   -1.2919    2.4737 H   0  0  0  0  0  0  0  0  0  0  0  0
    0.5735   -1.8493    5.7348 N   0  0  0  0  0  0  0  0  0  0  0  0
   -0.0155   -1.6417    7.0510 C   0  0  0  0  0  0  0  0  0  0  0  0
    0.7592   -2.7974    5.4224 H   0  0  0  0  0  0  0  0  0  0  0  0
    0.5818   -0.9295    7.6296 H   0  0  0  0  0  0  0  0  0  0  0  0
   -1.0352   -1.2538    6.9573 H   0  0  0  0  0  0  0  0  0  0  0  0
   -0.0534   -2.5870    7.6006 H   0  0  0  0  0  0  0  0  0  0  0  0
  1  2  2  0  0  0  0
  1  3  1  0  0  0  0
  1  7  1  0  0  0  0
  3  4  1  0  0  0  0
  3  5  1  0  0  0  0
  3  6  1  0  0  0  0
  7  8  1  0  0  0  0
  7 12  1  0  0  0  0
  8  9  1  0  0  0  0
  8 11  1  0  0  0  0
  8 13  1  0  0  0  0
  9 10  2  0  0  0  0
  9 17  1  0  0  0  0
 11 14  1  0  0  0  0
 11 15  1  0  0  0  0
 11 16  1  0  0  0  0
 17 18  1  0  0  0  0
 17 25  1  0  0  0  0
 18 19  1  0  0  0  0
 18 21  1  0  0  0  0
 18 26  1  0  0  0  0
 19 20  2  0  0  0  0
 19 29  1  0  0  0  0
 21 22  1  0  0  0  0
 21 27  1  0  0  0  0
 21 28  1  0  0  0  0
 22 23  1  0  0  0  0
 22 24  2  0  0  0  0
 29 30  1  0  0  0  0
 29 34  1  0  0  0  0
 30 31  1  0  0  0  0
 30 33  1  0  0  0  0
 30 35  1  0  0  0  0
 31 32  2  0  0  0  0
 31 39  1  0  0  0  0
 33 36  1  0  0  0  0
 33 37  1  0  0  0  0
 33 38  1  0  0  0  0
 39 40  1  0  0  0  0
 39 41  1  0  0  0  0
 40 42  1  0  0  0  0
 40 43  1  0  0  0  0
 40 44  1  0  0  0  0
M  CHG  1  23  -1
M  END
$$$$

  -OEChem-05262215553D

 44 43  0     1  0  0  0  0  0999 V2000
   -4.5534   -0.0964   -4.2241 C   0  0  0  0  0  0  0  0  0  0  0  0
   -4.2860   -1.1446   -4.7947 O   0  0  0  0  0  0  0  0  0  0  0  0
   -5.9305    0.5211   -4.3839 C   0  0  0  0  0  0  0  0  0  0  0  0
   -5.8455    1.4985   -4.8652 H   0  0  0  0  0  0  0  0  0  0  0  0
   -6.5658   -0.1228   -4.9982 H   0  0  0  0  0  0  0  0  0  0  0  0
   -6.3979    0.6463   -3.4039 H   0  0  0  0  0  0  0  0  0  0  0  0
   -3.6212    0.5334   -3.4310 N   0  0  0  0  0  0  0  0  0  0  0  0
   -2.3582   -0.0702   -2.9892 C   0  0  2  0  0  0  0  0  0  0  0  0
   -2.1206    0.1772   -1.4833 C   0  0  0  0  0  0  0  0  0  0  0  0
   -2.9984    0.7059   -0.8112 O   0  0  0  0  0  0  0  0  0  0  0  0
   -1.2289    0.5419   -3.8233 C   0  0  0  0  0  0  0  0  0  0  0  0
   -3.9624    1.2982   -2.8475 H   0  0  0  0  0  0  0  0  0  0  0  0
   -2.3774   -1.1536   -3.1430 H   0  0  0  0  0  0  0  0  0  0  0  0
   -1.1874    1.6260   -3.6707 H   0  0  0  0  0  0  0  0  0  0  0  0
   -0.2616    0.1183   -3.5374 H   0  0  0  0  0  0  0  0  0  0  0  0
   -1.3930    0.3446   -4.8870 H   0  0  0  0  0  0  0  0  0  0  0  0
   -1.0266   -0.3790   -0.8485 N   0  0  0  0  0  0  0  0  0  0  0  0
   -0.0958    0.3432    0.0459 C   0  0  2  0  0  0  0  0  0  0  0  0
    0.4587   -0.6473    1.0941 C   0  0  0  0  0  0  0  0  0  0  0  0
    0.8706   -1.7446    0.7234 O   0  0  0  0  0  0  0  0  0  0  0  0
   -0.5756    1.6875    0.6582 C   0  0  0  0  0  0  0  0  0  0  0  0
   -0.7102    2.8062   -0.3780 C   0  0  0  0  0  0  0  0  0  0  0  0
    0.0425    2.7613   -1.3865 O   0  5  0  0  0  0  0  0  0  0  0  0
   -1.4402    3.7820   -0.0831 O   0  0  0  0  0  0  0  0  0  0  0  0
   -0.5470   -1.0625   -1.4247 H   0  0  0  0  0  0  0  0  0  0  0  0
    0.7800    0.5958   -0.5610 H   0  0  0  0  0  0  0  0  0  0  0  0
    0.1552    2.0372    1.3910 H   0  0  0  0  0  0  0  0  0  0  0  0
   -1.5293    1.5455    1.1737 H   0  0  0  0  0  0  0  0  0  0  0  0
    0.5450   -0.3324    2.4388 N   0  0  0  0  0  0  0  0  0  0  0  0
    0.9821   -1.2609    3.4890 C   0  0  2  0  0  0  0  0  0  0  0  0
    0.1266   -1.1474    4.7674 C   0  0  0  0  0  0  0  0  0  0  0  0
   -0.2895   -0.0594    5.1474 O   0  0  0  0  0  0  0  0  0  0  0  0
    2.4510   -0.9672    3.8018 C   0  0  0  0  0  0  0  0  0  0  0  0
    0.0971    0.5368    2.7306 H   0  0  0  0  0  0  0  0  0  0  0  0
    0.8949   -2.2923    3.1334 H   0  0  0  0  0  0  0  0  0  0  0  0
    2.5668    0.0590    4.1658 H   0  0  0  0  0  0  0  0  0  0  0  0
    2.8235   -1.6537    4.5679 H   0  0  0  0  0  0  0  0  0  0  0  0
    3.0606   -1.0884    2.9008 H   0  0  0  0  0  0  0  0  0  0  0  0
   -0.1502   -2.2761    5.5189 N   0  0  0  0  0  0  0  0  0  0  0  0
   -1.0086   -2.2578    6.6962 C   0  0  0  0  0  0  0  0  0  0  0  0
    0.1396   -3.1710    5.1359 H   0  0  0  0  0  0  0  0  0  0  0  0
   -0.6026   -1.5820    7.4560 H   0  0  0  0  0  0  0  0  0  0  0  0
   -2.0167   -1.9244    6.4288 H   0  0  0  0  0  0  0  0  0  0  0  0
   -1.0779   -3.2607    7.1281 H   0  0  0  0  0  0  0  0  0  0  0  0
  1  2  2  0  0  0  0
  1  3  1  0  0  0  0
  1  7  1  0  0  0  0
  3  4  1  0  0  0  0
  3  5  1  0  0  0  0
  3  6  1  0  0  0  0
  7  8  1  0  0  0  0
  7 12  1  0  0  0  0
  8  9  1  0  0  0  0
  8 11  1  0  0  0  0
  8 13  1  0  0  0  0
  9 10  2  0  0  0  0
  9 17  1  0  0  0  0
 11 14  1  0  0  0  0
 11 15  1  0  0  0  0
 11 16  1  0  0  0  0
 17 18  1  0  0  0  0
 17 25  1  0  0  0  0
 18 19  1  0  0  0  0
 18 21  1  0  0  0  0
 18 26  1  0  0  0  0
 19 20  2  0  0  0  0
 19 29  1  0  0  0  0
 21 22  1  0  0  0  0
 21 27  1  0  0  0  0
 21 28  1  0  0  0  0
 22 23  1  0  0  0  0
 22 24  2  0  0  0  0
 29 30  1  0  0  0  0
 29 34  1  0  0  0  0
 30 31  1  0  0  0  0
 30 33  1  0  0  0  0
 30 35  1  0  0  0  0
 31 32  2  0  0  0  0
 31 39  1  0  0  0  0
 33 36  1  0  0  0  0
 33 37  1  0  0  0  0
 33 38  1  0  0  0  0
 39 40  1  0  0  0  0
 39 41  1  0  0  0  0
 40 42  1  0  0  0  0
 40 43  1  0  0  0  0
 40 44  1  0  0  0  0
M  CHG  1  23  -1
M  END
$$$$

  -OEChem-05262215553D

 44 43  0     1  0  0  0  0  0999 V2000
   -4.5481   -0.0911   -4.2273 C   0  0  0  0  0  0  0  0  0  0  0  0
   -4.2906   -1.1457   -4.7909 O   0  0  0  0  0  0  0  0  0  0  0  0
   -5.9197    0.5385   -4.3896 C   0  0  0  0  0  0  0  0  0  0  0  0
   -5.8223    1.5299   -4.8394 H   0  0  0  0  0  0  0  0  0  0  0  0
   -6.5482   -0.0826   -5.0334 H   0  0  0  0  0  0  0  0  0  0  0  0
   -6.4013    0.6363   -3.4133 H   0  0  0  0  0  0  0  0  0  0  0  0
   -3.6075    0.5399   -3.4448 N   0  0  0  0  0  0  0  0  0  0  0  0
   -2.3439   -0.0660   -3.0075 C   0  0  2  0  0  0  0  0  0  0  0  0
   -2.1205    0.1450   -1.4934 C   0  0  0  0  0  0  0  0  0  0  0  0
   -3.0117    0.6376   -0.8117 O   0  0  0  0  0  0  0  0  0  0  0  0
   -1.2151    0.5780   -3.8173 C   0  0  0  0  0  0  0  0  0  0  0  0
   -3.9433    1.3079   -2.8621 H   0  0  0  0  0  0  0  0  0  0  0  0
   -2.3515   -1.1451   -3.1902 H   0  0  0  0  0  0  0  0  0  0  0  0
   -1.1928    1.6596   -3.6451 H   0  0  0  0  0  0  0  0  0  0  0  0
   -0.2447    0.1644   -3.5278 H   0  0  0  0  0  0  0  0  0  0  0  0
   -1.3640    0.3979   -4.8864 H   0  0  0  0  0  0  0  0  0  0  0  0
   -1.0256   -0.4110   -0.8604 N   0  0  0  0  0  0  0  0  0  0  0  0
   -0.1023    0.3237    0.0306 C   0  0  2  0  0  0  0  0  0  0  0  0
    0.4572   -0.6549    1.0829 C   0  0  0  0  0  0  0  0  0  0  0  0
    1.0524   -1.6627    0.7091 O   0  0  0  0  0  0  0  0  0  0  0  0
   -0.5924    1.6617    0.6472 C   0  0  0  0  0  0  0  0  0  0  0  0
   -0.7439    2.7817   -0.3843 C   0  0  0  0  0  0  0  0  0  0  0  0
    0.0038    2.7479   -1.3967 O   0  5  0  0  0  0  0  0  0  0  0  0
   -1.4901    3.7444   -0.0874 O   0  0  0  0  0  0  0  0  0  0  0  0
   -0.5310   -1.0675   -1.4551 H   0  0  0  0  0  0  0  0  0  0  0  0
    0.7701    0.5850   -0.5774 H   0  0  0  0  0  0  0  0  0  0  0  0
    0.1385    2.0105    1.3810 H   0  0  0  0  0  0  0  0  0  0  0  0
   -1.5441    1.5109    1.1643 H   0  0  0  0  0  0  0  0  0  0  0  0
    0.2628   -0.4618    2.4391 N   0  0  0  0  0  0  0  0  0  0  0  0
    0.6332   -1.4262    3.4824 C   0  0  2  0  0  0  0  0  0  0  0  0
   -0.4461   -1.5497    4.5769 C   0  0  0  0  0  0  0  0  0  0  0  0
   -1.0336   -0.5579    4.9920 O   0  0  0  0  0  0  0  0  0  0  0  0
    1.9659   -0.9830    4.0902 C   0  0  0  0  0  0  0  0  0  0  0  0
   -0.3429    0.3161    2.7032 H   0  0  0  0  0  0  0  0  0  0  0  0
    0.7598   -2.4197    3.0416 H   0  0  0  0  0  0  0  0  0  0  0  0
    1.8679    0.0076    4.5460 H   0  0  0  0  0  0  0  0  0  0  0  0
    2.2889   -1.6913    4.8590 H   0  0  0  0  0  0  0  0  0  0  0  0
    2.7377   -0.9354    3.3154 H   0  0  0  0  0  0  0  0  0  0  0  0
   -0.7353   -2.7860    5.1272 N   0  0  0  0  0  0  0  0  0  0  0  0
   -1.7899   -2.9932    6.1111 C   0  0  0  0  0  0  0  0  0  0  0  0
   -0.2879   -3.5960    4.7092 H   0  0  0  0  0  0  0  0  0  0  0  0
   -1.5888   -2.4113    7.0167 H   0  0  0  0  0  0  0  0  0  0  0  0
   -2.7599   -2.6885    5.7037 H   0  0  0  0  0  0  0  0  0  0  0  0
   -1.8467   -4.0510    6.3856 H   0  0  0  0  0  0  0  0  0  0  0  0
  1  2  2  0  0  0  0
  1  3  1  0  0  0  0
  1  7  1  0  0  0  0
  3  4  1  0  0  0  0
  3  5  1  0  0  0  0
  3  6  1  0  0  0  0
  7  8  1  0  0  0  0
  7 12  1  0  0  0  0
  8  9  1  0  0  0  0
  8 11  1  0  0  0  0
  8 13  1  0  0  0  0
  9 10  2  0  0  0  0
  9 17  1  0  0  0  0
 11 14  1  0  0  0  0
 11 15  1  0  0  0  0
 11 16  1  0  0  0  0
 17 18  1  0  0  0  0
 17 25  1  0  0  0  0
 18 19  1  0  0  0  0
 18 21  1  0  0  0  0
 18 26  1  0  0  0  0
 19 20  2  0  0  0  0
 19 29  1  0  0  0  0
 21 22  1  0  0  0  0
 21 27  1  0  0  0  0
 21 28  1  0  0  0  0
 22 23  1  0  0  0  0
 22 24  2  0  0  0  0
 29 30  1  0  0  0  0
 29 34  1  0  0  0  0
 30 31  1  0  0  0  0
 30 33  1  0  0  0  0
 30 35  1  0  0  0  0
 31 32  2  0  0  0  0
 31 39  1  0  0  0  0
 33 36  1  0  0  0  0
 33 37  1  0  0  0  0
 33 38  1  0  0  0  0
 39 40  1  0  0  0  0
 39 41  1  0  0  0  0
 40 42  1  0  0  0  0
 40 43  1  0  0  0  0
 40 44  1  0  0  0  0
M  CHG  1  23  -1
M  END
$$$$

  -OEChem-05262215553D

 44 43  0     1  0  0  0  0  0999 V2000
   -4.5405   -0.0631   -4.2395 C   0  0  0  0  0  0  0  0  0  0  0  0
   -4.2920   -1.1154   -4.8112 O   0  0  0  0  0  0  0  0  0  0  0  0
   -5.9194    0.5589   -4.3651 C   0  0  0  0  0  0  0  0  0  0  0  0
   -5.8398    1.5523   -4.8134 H   0  0  0  0  0  0  0  0  0  0  0  0
   -6.5605   -0.0633   -4.9951 H   0  0  0  0  0  0  0  0  0  0  0  0
   -6.3768    0.6499   -3.3766 H   0  0  0  0  0  0  0  0  0  0  0  0
   -3.5847    0.5690   -3.4765 N   0  0  0  0  0  0  0  0  0  0  0  0
   -2.3259   -0.0494   -3.0422 C   0  0  2  0  0  0  0  0  0  0  0  0
   -2.1114    0.1453   -1.5249 C   0  0  0  0  0  0  0  0  0  0  0  0
   -3.0072    0.6284   -0.8428 O   0  0  0  0  0  0  0  0  0  0  0  0
   -1.1889    0.5935   -3.8406 C   0  0  0  0  0  0  0  0  0  0  0  0
   -3.9138    1.3338   -2.8859 H   0  0  0  0  0  0  0  0  0  0  0  0
   -2.3386   -1.1265   -3.2356 H   0  0  0  0  0  0  0  0  0  0  0  0
   -1.1568    1.6723   -3.6548 H   0  0  0  0  0  0  0  0  0  0  0  0
   -0.2238    0.1656   -3.5540 H   0  0  0  0  0  0  0  0  0  0  0  0
   -1.3373    0.4297   -4.9123 H   0  0  0  0  0  0  0  0  0  0  0  0
   -1.0301   -0.4275   -0.8843 N   0  0  0  0  0  0  0  0  0  0  0  0
   -0.1079    0.3026    0.0112 C   0  0  2  0  0  0  0  0  0  0  0  0
    0.4316   -0.6746    1.0718 C   0  0  0  0  0  0  0  0  0  0  0  0
    1.1965   -1.5727    0.7305 O   0  0  0  0  0  0  0  0  0  0  0  0
   -0.5932    1.6396    0.6325 C   0  0  0  0  0  0  0  0  0  0  0  0
   -0.7386    2.7648   -0.3935 C   0  0  0  0  0  0  0  0  0  0  0  0
    0.0104    2.7323   -1.4046 O   0  5  0  0  0  0  0  0  0  0  0  0
   -1.4865    3.7262   -0.0969 O   0  0  0  0  0  0  0  0  0  0  0  0
   -0.5305   -1.0703   -1.4895 H   0  0  0  0  0  0  0  0  0  0  0  0
    0.7706    0.5597   -0.5905 H   0  0  0  0  0  0  0  0  0  0  0  0
    0.1362    1.9763    1.3737 H   0  0  0  0  0  0  0  0  0  0  0  0
   -1.5486    1.4918    1.1431 H   0  0  0  0  0  0  0  0  0  0  0  0
   -0.0240   -0.6435    2.3773 N   0  0  0  0  0  0  0  0  0  0  0  0
    0.3060   -1.6386    3.4047 C   0  0  2  0  0  0  0  0  0  0  0  0
   -0.9186   -2.0332    4.2550 C   0  0  0  0  0  0  0  0  0  0  0  0
   -1.6975   -1.1802    4.6635 O   0  0  0  0  0  0  0  0  0  0  0  0
    1.4099   -1.0561    4.2898 C   0  0  0  0  0  0  0  0  0  0  0  0
   -0.7589    0.0338    2.5842 H   0  0  0  0  0  0  0  0  0  0  0  0
    0.6789   -2.5527    2.9326 H   0  0  0  0  0  0  0  0  0  0  0  0
    1.0641   -0.1392    4.7783 H   0  0  0  0  0  0  0  0  0  0  0  0
    1.7009   -1.7748    5.0617 H   0  0  0  0  0  0  0  0  0  0  0  0
    2.2913   -0.8189    3.6859 H   0  0  0  0  0  0  0  0  0  0  0  0
   -1.1249   -3.3569    4.6014 N   0  0  0  0  0  0  0  0  0  0  0  0
   -2.2953   -3.8119    5.3403 C   0  0  0  0  0  0  0  0  0  0  0  0
   -0.5097   -4.0468    4.1808 H   0  0  0  0  0  0  0  0  0  0  0  0
   -2.3412   -3.3276    6.3212 H   0  0  0  0  0  0  0  0  0  0  0  0
   -3.2110   -3.5776    4.7874 H   0  0  0  0  0  0  0  0  0  0  0  0
   -2.2492   -4.8943    5.4920 H   0  0  0  0  0  0  0  0  0  0  0  0
  1  2  2  0  0  0  0
  1  3  1  0  0  0  0
  1  7  1  0  0  0  0
  3  4  1  0  0  0  0
  3  5  1  0  0  0  0
  3  6  1  0  0  0  0
  7  8  1  0  0  0  0
  7 12  1  0  0  0  0
  8  9  1  0  0  0  0
  8 11  1  0  0  0  0
  8 13  1  0  0  0  0
  9 10  2  0  0  0  0
  9 17  1  0  0  0  0
 11 14  1  0  0  0  0
 11 15  1  0  0  0  0
 11 16  1  0  0  0  0
 17 18  1  0  0  0  0
 17 25  1  0  0  0  0
 18 19  1  0  0  0  0
 18 21  1  0  0  0  0
 18 26  1  0  0  0  0
 19 20  2  0  0  0  0
 19 29  1  0  0  0  0
 21 22  1  0  0  0  0
 21 27  1  0  0  0  0
 21 28  1  0  0  0  0
 22 23  1  0  0  0  0
 22 24  2  0  0  0  0
 29 30  1  0  0  0  0
 29 34  1  0  0  0  0
 30 31  1  0  0  0  0
 30 33  1  0  0  0  0
 30 35  1  0  0  0  0
 31 32  2  0  0  0  0
 31 39  1  0  0  0  0
 33 36  1  0  0  0  0
 33 37  1  0  0  0  0
 33 38  1  0  0  0  0
 39 40  1  0  0  0  0
 39 41  1  0  0  0  0
 40 42  1  0  0  0  0
 40 43  1  0  0  0  0
 40 44  1  0  0  0  0
M  CHG  1  23  -1
M  END
$$$$

  -OEChem-05262215553D

 44 43  0     1  0  0  0  0  0999 V2000
   -4.5454   -0.0390   -4.2577 C   0  0  0  0  0  0  0  0  0  0  0  0
   -4.2948   -1.0934   -4.8248 O   0  0  0  0  0  0  0  0  0  0  0  0
   -5.9282    0.5746   -4.3785 C   0  0  0  0  0  0  0  0  0  0  0  0
   -5.8543    1.5765   -4.8086 H   0  0  0  0  0  0  0  0  0  0  0  0
   -6.5610   -0.0411   -5.0233 H   0  0  0  0  0  0  0  0  0  0  0  0
   -6.3906    0.6446   -3.3905 H   0  0  0  0  0  0  0  0  0  0  0  0
   -3.5900    0.6008   -3.5004 N   0  0  0  0  0  0  0  0  0  0  0  0
   -2.3305   -0.0144   -3.0632 C   0  0  2  0  0  0  0  0  0  0  0  0
   -2.1182    0.1762   -1.5455 C   0  0  0  0  0  0  0  0  0  0  0  0
   -3.0047    0.6779   -0.8643 O   0  0  0  0  0  0  0  0  0  0  0  0
   -1.1899    0.6294   -3.8559 C   0  0  0  0  0  0  0  0  0  0  0  0
   -3.9218    1.3661   -2.9120 H   0  0  0  0  0  0  0  0  0  0  0  0
   -2.3409   -1.0911   -3.2585 H   0  0  0  0  0  0  0  0  0  0  0  0
   -1.1610    1.7095   -3.6755 H   0  0  0  0  0  0  0  0  0  0  0  0
   -0.2252    0.2063   -3.5606 H   0  0  0  0  0  0  0  0  0  0  0  0
   -1.3301    0.4589   -4.9274 H   0  0  0  0  0  0  0  0  0  0  0  0
   -1.0583   -0.4333   -0.9031 N   0  0  0  0  0  0  0  0  0  0  0  0
   -0.1113    0.2704   -0.0134 C   0  0  2  0  0  0  0  0  0  0  0  0
    0.3944   -0.7157    1.0534 C   0  0  0  0  0  0  0  0  0  0  0  0
    1.3070   -1.4904    0.7825 O   0  0  0  0  0  0  0  0  0  0  0  0
   -0.5538    1.6186    0.6124 C   0  0  0  0  0  0  0  0  0  0  0  0
   -0.6745    2.7495   -0.4109 C   0  0  0  0  0  0  0  0  0  0  0  0
    0.0664    2.6976   -1.4276 O   0  5  0  0  0  0  0  0  0  0  0  0
   -1.3951    3.7301   -0.1088 O   0  0  0  0  0  0  0  0  0  0  0  0
   -0.5769   -1.0809   -1.5177 H   0  0  0  0  0  0  0  0  0  0  0  0
    0.7724    0.5008   -0.6187 H   0  0  0  0  0  0  0  0  0  0  0  0
    0.1889    1.9302    1.3511 H   0  0  0  0  0  0  0  0  0  0  0  0
   -1.5098    1.4968    1.1289 H   0  0  0  0  0  0  0  0  0  0  0  0
   -0.2719   -0.8588    2.2566 N   0  0  0  0  0  0  0  0  0  0  0  0
    0.0299   -1.8804    3.2672 C   0  0  2  0  0  0  0  0  0  0  0  0
   -1.2410   -2.5559    3.8208 C   0  0  0  0  0  0  0  0  0  0  0  0
   -2.2055   -1.8858    4.1693 O   0  0  0  0  0  0  0  0  0  0  0  0
    0.8191   -1.2093    4.3931 C   0  0  0  0  0  0  0  0  0  0  0  0
   -1.1130   -0.2936    2.3783 H   0  0  0  0  0  0  0  0  0  0  0  0
    0.6495   -2.6696    2.8299 H   0  0  0  0  0  0  0  0  0  0  0  0
    0.2252   -0.4147    4.8562 H   0  0  0  0  0  0  0  0  0  0  0  0
    1.0837   -1.9414    5.1618 H   0  0  0  0  0  0  0  0  0  0  0  0
    1.7411   -0.7707    3.9986 H   0  0  0  0  0  0  0  0  0  0  0  0
   -1.2830   -3.9303    3.9752 N   0  0  0  0  0  0  0  0  0  0  0  0
   -2.4671   -4.6438    4.4347 C   0  0  0  0  0  0  0  0  0  0  0  0
   -0.5048   -4.4621    3.5972 H   0  0  0  0  0  0  0  0  0  0  0  0
   -2.7647   -4.2940    5.4288 H   0  0  0  0  0  0  0  0  0  0  0  0
   -3.3005   -4.4882    3.7416 H   0  0  0  0  0  0  0  0  0  0  0  0
   -2.2609   -5.7166    4.4950 H   0  0  0  0  0  0  0  0  0  0  0  0
  1  2  2  0  0  0  0
  1  3  1  0  0  0  0
  1  7  1  0  0  0  0
  3  4  1  0  0  0  0
  3  5  1  0  0  0  0
  3  6  1  0  0  0  0
  7  8  1  0  0  0  0
  7 12  1  0  0  0  0
  8  9  1  0  0  0  0
  8 11  1  0  0  0  0
  8 13  1  0  0  0  0
  9 10  2  0  0  0  0
  9 17  1  0  0  0  0
 11 14  1  0  0  0  0
 11 15  1  0  0  0  0
 11 16  1  0  0  0  0
 17 18  1  0  0  0  0
 17 25  1  0  0  0  0
 18 19  1  0  0  0  0
 18 21  1  0  0  0  0
 18 26  1  0  0  0  0
 19 20  2  0  0  0  0
 19 29  1  0  0  0  0
 21 22  1  0  0  0  0
 21 27  1  0  0  0  0
 21 28  1  0  0  0  0
 22 23  1  0  0  0  0
 22 24  2  0  0  0  0
 29 30  1  0  0  0  0
 29 34  1  0  0  0  0
 30 31  1  0  0  0  0
 30 33  1  0  0  0  0
 30 35  1  0  0  0  0
 31 32  2  0  0  0  0
 31 39  1  0  0  0  0
 33 36  1  0  0  0  0
 33 37  1  0  0  0  0
 33 38  1  0  0  0  0
 39 40  1  0  0  0  0
 39 41  1  0  0  0  0
 40 42  1  0  0  0  0
 40 43  1  0  0  0  0
 40 44  1  0  0  0  0
M  CHG  1  23  -1
M  END
$$$$

  -OEChem-05262215553D

 44 43  0     1  0  0  0  0  0999 V2000
   -4.7608    0.1568   -3.9135 C   0  0  0  0  0  0  0  0  0  0  0  0
   -4.8387   -1.0144   -4.2562 O   0  0  0  0  0  0  0  0  0  0  0  0
   -5.9553    1.0763   -4.0898 C   0  0  0  0  0  0  0  0  0  0  0  0
   -5.7073    1.8769   -4.7910 H   0  0  0  0  0  0  0  0  0  0  0  0
   -6.8103    0.5166   -4.4790 H   0  0  0  0  0  0  0  0  0  0  0  0
   -6.2305    1.5174   -3.1283 H   0  0  0  0  0  0  0  0  0  0  0  0
   -3.5999    0.6566   -3.3662 N   0  0  0  0  0  0  0  0  0  0  0  0
   -2.4848   -0.1720   -2.8897 C   0  0  2  0  0  0  0  0  0  0  0  0
   -2.1171    0.1687   -1.4290 C   0  0  0  0  0  0  0  0  0  0  0  0
   -2.7560    1.0167   -0.8167 O   0  0  0  0  0  0  0  0  0  0  0  0
   -1.2924    0.0699   -3.8173 C   0  0  0  0  0  0  0  0  0  0  0  0
   -3.6687    1.5779   -2.9334 H   0  0  0  0  0  0  0  0  0  0  0  0
   -2.7524   -1.2325   -2.9204 H   0  0  0  0  0  0  0  0  0  0  0  0
   -1.0153    1.1298   -3.8151 H   0  0  0  0  0  0  0  0  0  0  0  0
   -0.4247   -0.5119   -3.4920 H   0  0  0  0  0  0  0  0  0  0  0  0
   -1.5435   -0.2227   -4.8413 H   0  0  0  0  0  0  0  0  0  0  0  0
   -1.2868   -0.6576   -0.6975 N   0  0  0  0  0  0  0  0  0  0  0  0
   -0.0894   -0.1828    0.0288 C   0  0  2  0  0  0  0  0  0  0  0  0
    0.1300   -1.0783    1.2580 C   0  0  0  0  0  0  0  0  0  0  0  0
    0.9105   -2.0245    1.2218 O   0  0  0  0  0  0  0  0  0  0  0  0
   -0.0103    1.3154    0.4157 C   0  0  0  0  0  0  0  0  0  0  0  0
    0.1619    2.2429   -0.7873 C   0  0  0  0  0  0  0  0  0  0  0  0
    0.7564    1.7830   -1.7965 O   0  5  0  0  0  0  0  0  0  0  0  0
   -0.1787    3.4411   -0.6484 O   0  0  0  0  0  0  0  0  0  0  0  0
   -1.0975   -1.5163   -1.2033 H   0  0  0  0  0  0  0  0  0  0  0  0
    0.7720   -0.3718   -0.6218 H   0  0  0  0  0  0  0  0  0  0  0  0
    0.8511    1.4703    1.0708 H   0  0  0  0  0  0  0  0  0  0  0  0
   -0.9073    1.6079    0.9678 H   0  0  0  0  0  0  0  0  0  0  0  0
   -0.6908   -0.9319    2.3598 N   0  0  0  0  0  0  0  0  0  0  0  0
   -0.5815   -1.7055    3.6057 C   0  0  2  0  0  0  0  0  0  0  0  0
   -1.2073   -3.1210    3.5097 C   0  0  0  0  0  0  0  0  0  0  0  0
   -1.9847   -3.5466    4.3585 O   0  0  0  0  0  0  0  0  0  0  0  0
   -1.2078   -0.8523    4.7159 C   0  0  0  0  0  0  0  0  0  0  0  0
   -1.3915   -0.1955    2.2941 H   0  0  0  0  0  0  0  0  0  0  0  0
    0.4780   -1.8420    3.8454 H   0  0  0  0  0  0  0  0  0  0  0  0
   -2.2767   -0.7056    4.5307 H   0  0  0  0  0  0  0  0  0  0  0  0
   -1.0877   -1.3430    5.6869 H   0  0  0  0  0  0  0  0  0  0  0  0
   -0.7230    0.1277    4.7637 H   0  0  0  0  0  0  0  0  0  0  0  0
   -0.8406   -3.9503    2.4681 N   0  0  0  0  0  0  0  0  0  0  0  0
   -1.3193   -5.3125    2.2909 C   0  0  0  0  0  0  0  0  0  0  0  0
   -0.1502   -3.5675    1.8159 H   0  0  0  0  0  0  0  0  0  0  0  0
   -0.9988   -5.9421    3.1272 H   0  0  0  0  0  0  0  0  0  0  0  0
   -2.4125   -5.3298    2.2322 H   0  0  0  0  0  0  0  0  0  0  0  0
   -0.9172   -5.7336    1.3646 H   0  0  0  0  0  0  0  0  0  0  0  0
  1  2  2  0  0  0  0
  1  3  1  0  0  0  0
  1  7  1  0  0  0  0
  3  4  1  0  0  0  0
  3  5  1  0  0  0  0
  3  6  1  0  0  0  0
  7  8  1  0  0  0  0
  7 12  1  0  0  0  0
  8  9  1  0  0  0  0
  8 11  1  0  0  0  0
  8 13  1  0  0  0  0
  9 10  2  0  0  0  0
  9 17  1  0  0  0  0
 11 14  1  0  0  0  0
 11 15  1  0  0  0  0
 11 16  1  0  0  0  0
 17 18  1  0  0  0  0
 17 25  1  0  0  0  0
 18 19  1  0  0  0  0
 18 21  1  0  0  0  0
 18 26  1  0  0  0  0
 19 20  2  0  0  0  0
 19 29  1  0  0  0  0
 21 22  1  0  0  0  0
 21 27  1  0  0  0  0
 21 28  1  0  0  0  0
 22 23  1  0  0  0  0
 22 24  2  0  0  0  0
 29 30  1  0  0  0  0
 29 34  1  0  0  0  0
 30 31  1  0  0  0  0
 30 33  1  0  0  0  0
 30 35  1  0  0  0  0
 31 32  2  0  0  0  0
 31 39  1  0  0  0  0
 33 36  1  0  0  0  0
 33 37  1  0  0  0  0
 33 38  1  0  0  0  0
 39 40  1  0  0  0  0
 39 41  1  0  0  0  0
 40 42  1  0  0  0  0
 40 43  1  0  0  0  0
 40 44  1  0  0  0  0
M  CHG  1  23  -1
M  END
$$$$

  -OEChem-05262215553D

 44 43  0     1  0  0  0  0  0999 V2000
   -4.7933    0.3494   -3.9765 C   0  0  0  0  0  0  0  0  0  0  0  0
   -4.9140   -0.8051   -4.3613 O   0  0  0  0  0  0  0  0  0  0  0  0
   -5.9602    1.3120   -4.0969 C   0  0  0  0  0  0  0  0  0  0  0  0
   -5.6816    2.1558   -4.7330 H   0  0  0  0  0  0  0  0  0  0  0  0
   -6.8247    0.8069   -4.5364 H   0  0  0  0  0  0  0  0  0  0  0  0
   -6.2356    1.6872   -3.1080 H   0  0  0  0  0  0  0  0  0  0  0  0
   -3.6090    0.7937   -3.4322 N   0  0  0  0  0  0  0  0  0  0  0  0
   -2.5198   -0.0877   -2.9933 C   0  0  2  0  0  0  0  0  0  0  0  0
   -2.1735    0.1510   -1.5065 C   0  0  0  0  0  0  0  0  0  0  0  0
   -2.8401    0.9309   -0.8363 O   0  0  0  0  0  0  0  0  0  0  0  0
   -1.3103    0.1901   -3.8882 C   0  0  0  0  0  0  0  0  0  0  0  0
   -3.6469    1.6989   -2.9631 H   0  0  0  0  0  0  0  0  0  0  0  0
   -2.8058   -1.1388   -3.0983 H   0  0  0  0  0  0  0  0  0  0  0  0
   -1.0256    1.2459   -3.8280 H   0  0  0  0  0  0  0  0  0  0  0  0
   -0.4519   -0.4144   -3.5806 H   0  0  0  0  0  0  0  0  0  0  0  0
   -1.5475   -0.0469   -4.9295 H   0  0  0  0  0  0  0  0  0  0  0  0
   -1.3405   -0.7097   -0.8196 N   0  0  0  0  0  0  0  0  0  0  0  0
   -0.1417   -0.2604   -0.0763 C   0  0  2  0  0  0  0  0  0  0  0  0
    0.0878   -1.2094    1.1099 C   0  0  0  0  0  0  0  0  0  0  0  0
    1.0574   -1.9594    1.1568 O   0  0  0  0  0  0  0  0  0  0  0  0
   -0.0862    1.2127    0.3984 C   0  0  0  0  0  0  0  0  0  0  0  0
    0.0571    2.2148   -0.7467 C   0  0  0  0  0  0  0  0  0  0  0  0
    0.6504    1.8273   -1.7866 O   0  5  0  0  0  0  0  0  0  0  0  0
   -0.3186    3.3928   -0.5404 O   0  0  0  0  0  0  0  0  0  0  0  0
   -1.1427   -1.5336   -1.3772 H   0  0  0  0  0  0  0  0  0  0  0  0
    0.7191   -0.4021   -0.7401 H   0  0  0  0  0  0  0  0  0  0  0  0
    0.7802    1.3428    1.0519 H   0  0  0  0  0  0  0  0  0  0  0  0
   -0.9815    1.4536    0.9777 H   0  0  0  0  0  0  0  0  0  0  0  0
   -0.9014   -1.3327    2.0664 N   0  0  0  0  0  0  0  0  0  0  0  0
   -0.8023   -2.1487    3.2854 C   0  0  2  0  0  0  0  0  0  0  0  0
   -1.0710   -3.6552    3.0385 C   0  0  0  0  0  0  0  0  0  0  0  0
   -1.8478   -4.3000    3.7360 O   0  0  0  0  0  0  0  0  0  0  0  0
   -1.7614   -1.5336    4.3118 C   0  0  0  0  0  0  0  0  0  0  0  0
   -1.7121   -0.7284    1.9398 H   0  0  0  0  0  0  0  0  0  0  0  0
    0.2135   -2.0686    3.6858 H   0  0  0  0  0  0  0  0  0  0  0  0
   -2.7963   -1.6093    3.9628 H   0  0  0  0  0  0  0  0  0  0  0  0
   -1.6786   -2.0551    5.2706 H   0  0  0  0  0  0  0  0  0  0  0  0
   -1.5221   -0.4777    4.4724 H   0  0  0  0  0  0  0  0  0  0  0  0
   -0.3822   -4.3056    2.0339 N   0  0  0  0  0  0  0  0  0  0  0  0
   -0.5079   -5.7234    1.7331 C   0  0  0  0  0  0  0  0  0  0  0  0
    0.2980   -3.7372    1.5209 H   0  0  0  0  0  0  0  0  0  0  0  0
   -1.5492   -5.9762    1.5087 H   0  0  0  0  0  0  0  0  0  0  0  0
    0.1050   -5.9772    0.8632 H   0  0  0  0  0  0  0  0  0  0  0  0
   -0.1719   -6.3257    2.5830 H   0  0  0  0  0  0  0  0  0  0  0  0
  1  2  2  0  0  0  0
  1  3  1  0  0  0  0
  1  7  1  0  0  0  0
  3  4  1  0  0  0  0
  3  5  1  0  0  0  0
  3  6  1  0  0  0  0
  7  8  1  0  0  0  0
  7 12  1  0  0  0  0
  8  9  1  0  0  0  0
  8 11  1  0  0  0  0
  8 13  1  0  0  0  0
  9 10  2  0  0  0  0
  9 17  1  0  0  0  0
 11 14  1  0  0  0  0
 11 15  1  0  0  0  0
 11 16  1  0  0  0  0
 17 18  1  0  0  0  0
 17 25  1  0  0  0  0
 18 19  1  0  0  0  0
 18 21  1  0  0  0  0
 18 26  1  0  0  0  0
 19 20  2  0  0  0  0
 19 29  1  0  0  0  0
 21 22  1  0  0  0  0
 21 27  1  0  0  0  0
 21 28  1  0  0  0  0
 22 23  1  0  0  0  0
 22 24  2  0  0  0  0
 29 30  1  0  0  0  0
 29 34  1  0  0  0  0
 30 31  1  0  0  0  0
 30 33  1  0  0  0  0
 30 35  1  0  0  0  0
 31 32  2  0  0  0  0
 31 39  1  0  0  0  0
 33 36  1  0  0  0  0
 33 37  1  0  0  0  0
 33 38  1  0  0  0  0
 39 40  1  0  0  0  0
 39 41  1  0  0  0  0
 40 42  1  0  0  0  0
 40 43  1  0  0  0  0
 40 44  1  0  0  0  0
M  CHG  1  23  -1
M  END
$$$$

  -OEChem-05262215553D

 44 43  0     1  0  0  0  0  0999 V2000
   -4.7871    0.5874   -4.0336 C   0  0  0  0  0  0  0  0  0  0  0  0
   -5.0045   -0.5495   -4.4290 O   0  0  0  0  0  0  0  0  0  0  0  0
   -5.8857    1.6329   -4.0940 C   0  0  0  0  0  0  0  0  0  0  0  0
   -5.5825    2.4544   -4.7477 H   0  0  0  0  0  0  0  0  0  0  0  0
   -6.8080    1.1929   -4.4824 H   0  0  0  0  0  0  0  0  0  0  0  0
   -6.0774    2.0267   -3.0924 H   0  0  0  0  0  0  0  0  0  0  0  0
   -3.5541    0.9388   -3.5300 N   0  0  0  0  0  0  0  0  0  0  0  0
   -2.5393   -0.0309   -3.0963 C   0  0  2  0  0  0  0  0  0  0  0  0
   -2.2306    0.1238   -1.5900 C   0  0  0  0  0  0  0  0  0  0  0  0
   -2.9441    0.8270   -0.8849 O   0  0  0  0  0  0  0  0  0  0  0  0
   -1.2870    0.1997   -3.9453 C   0  0  0  0  0  0  0  0  0  0  0  0
   -3.5181    1.8396   -3.0524 H   0  0  0  0  0  0  0  0  0  0  0  0
   -2.8887   -1.0563   -3.2519 H   0  0  0  0  0  0  0  0  0  0  0  0
   -0.9432    1.2345   -3.8447 H   0  0  0  0  0  0  0  0  0  0  0  0
   -0.4757   -0.4642   -3.6324 H   0  0  0  0  0  0  0  0  0  0  0  0
   -1.5055    0.0080   -4.9999 H   0  0  0  0  0  0  0  0  0  0  0  0
   -1.3851   -0.7507   -0.9362 N   0  0  0  0  0  0  0  0  0  0  0  0
   -0.2121   -0.3066   -0.1465 C   0  0  2  0  0  0  0  0  0  0  0  0
    0.0327   -1.3078    0.9943 C   0  0  0  0  0  0  0  0  0  0  0  0
    1.1363   -1.8043    1.1935 O   0  0  0  0  0  0  0  0  0  0  0  0
   -0.2134    1.1419    0.3997 C   0  0  0  0  0  0  0  0  0  0  0  0
   -0.0798    2.2000   -0.6962 C   0  0  0  0  0  0  0  0  0  0  0  0
    0.5460    1.8795   -1.7401 O   0  5  0  0  0  0  0  0  0  0  0  0
   -0.5147    3.3507   -0.4552 O   0  0  0  0  0  0  0  0  0  0  0  0
   -1.1481   -1.5289   -1.5422 H   0  0  0  0  0  0  0  0  0  0  0  0
    0.6635   -0.3889   -0.8002 H   0  0  0  0  0  0  0  0  0  0  0  0
    0.6347    1.2680    1.0777 H   0  0  0  0  0  0  0  0  0  0  0  0
   -1.1273    1.3236    0.9716 H   0  0  0  0  0  0  0  0  0  0  0  0
   -1.0445   -1.7516    1.7377 N   0  0  0  0  0  0  0  0  0  0  0  0
   -0.9541   -2.6436    2.9026 C   0  0  2  0  0  0  0  0  0  0  0  0
   -0.7833   -4.1352    2.5155 C   0  0  0  0  0  0  0  0  0  0  0  0
   -1.5240   -5.0099    2.9532 O   0  0  0  0  0  0  0  0  0  0  0  0
   -2.2006   -2.3892    3.7594 C   0  0  0  0  0  0  0  0  0  0  0  0
   -1.9364   -1.3086    1.5215 H   0  0  0  0  0  0  0  0  0  0  0  0
   -0.0768   -2.3655    3.4957 H   0  0  0  0  0  0  0  0  0  0  0  0
   -3.1063   -2.6736    3.2142 H   0  0  0  0  0  0  0  0  0  0  0  0
   -2.1525   -2.9746    4.6828 H   0  0  0  0  0  0  0  0  0  0  0  0
   -2.2709   -1.3304    4.0268 H   0  0  0  0  0  0  0  0  0  0  0  0
    0.2556   -4.5003    1.6820 N   0  0  0  0  0  0  0  0  0  0  0  0
    0.5282   -5.8629    1.2507 C   0  0  0  0  0  0  0  0  0  0  0  0
    0.8563   -3.7365    1.3576 H   0  0  0  0  0  0  0  0  0  0  0  0
    0.7328   -6.5037    2.1143 H   0  0  0  0  0  0  0  0  0  0  0  0
   -0.3276   -6.2687    0.7020 H   0  0  0  0  0  0  0  0  0  0  0  0
    1.4010   -5.8803    0.5913 H   0  0  0  0  0  0  0  0  0  0  0  0
  1  2  2  0  0  0  0
  1  3  1  0  0  0  0
  1  7  1  0  0  0  0
  3  4  1  0  0  0  0
  3  5  1  0  0  0  0
  3  6  1  0  0  0  0
  7  8  1  0  0  0  0
  7 12  1  0  0  0  0
  8  9  1  0  0  0  0
  8 11  1  0  0  0  0
  8 13  1  0  0  0  0
  9 10  2  0  0  0  0
  9 17  1  0  0  0  0
 11 14  1  0  0  0  0
 11 15  1  0  0  0  0
 11 16  1  0  0  0  0
 17 18  1  0  0  0  0
 17 25  1  0  0  0  0
 18 19  1  0  0  0  0
 18 21  1  0  0  0  0
 18 26  1  0  0  0  0
 19 20  2  0  0  0  0
 19 29  1  0  0  0  0
 21 22  1  0  0  0  0
 21 27  1  0  0  0  0
 21 28  1  0  0  0  0
 22 23  1  0  0  0  0
 22 24  2  0  0  0  0
 29 30  1  0  0  0  0
 29 34  1  0  0  0  0
 30 31  1  0  0  0  0
 30 33  1  0  0  0  0
 30 35  1  0  0  0  0
 31 32  2  0  0  0  0
 31 39  1  0  0  0  0
 33 36  1  0  0  0  0
 33 37  1  0  0  0  0
 33 38  1  0  0  0  0
 39 40  1  0  0  0  0
 39 41  1  0  0  0  0
 40 42  1  0  0  0  0
 40 43  1  0  0  0  0
 40 44  1  0  0  0  0
M  CHG  1  23  -1
M  END
$$$$

  -OEChem-05262215553D

 44 43  0     1  0  0  0  0  0999 V2000
   -4.8702    0.7168   -4.0790 C   0  0  0  0  0  0  0  0  0  0  0  0
   -5.0778   -0.3840   -4.5704 O   0  0  0  0  0  0  0  0  0  0  0  0
   -5.9297    1.7991   -4.1749 C   0  0  0  0  0  0  0  0  0  0  0  0
   -5.5606    2.6257   -4.7868 H   0  0  0  0  0  0  0  0  0  0  0  0
   -6.8394    1.3992   -4.6306 H   0  0  0  0  0  0  0  0  0  0  0  0
   -6.1704    2.1738   -3.1768 H   0  0  0  0  0  0  0  0  0  0  0  0
   -3.6798    0.9938   -3.4444 N   0  0  0  0  0  0  0  0  0  0  0  0
   -2.6893   -0.0199   -3.0618 C   0  0  2  0  0  0  0  0  0  0  0  0
   -2.3015    0.1079   -1.5713 C   0  0  0  0  0  0  0  0  0  0  0  0
   -2.9922    0.7766   -0.8126 O   0  0  0  0  0  0  0  0  0  0  0  0
   -1.4741    0.1547   -3.9758 C   0  0  0  0  0  0  0  0  0  0  0  0
   -3.6445    1.8635   -2.9120 H   0  0  0  0  0  0  0  0  0  0  0  0
   -3.0967   -1.0258   -3.2009 H   0  0  0  0  0  0  0  0  0  0  0  0
   -1.0666    1.1667   -3.8812 H   0  0  0  0  0  0  0  0  0  0  0  0
   -0.6869   -0.5599   -3.7189 H   0  0  0  0  0  0  0  0  0  0  0  0
   -1.7616   -0.0057   -5.0193 H   0  0  0  0  0  0  0  0  0  0  0  0
   -1.4155   -0.7756   -0.9866 N   0  0  0  0  0  0  0  0  0  0  0  0
   -0.2019   -0.3444   -0.2495 C   0  0  2  0  0  0  0  0  0  0  0  0
    0.1209   -1.3687    0.8543 C   0  0  0  0  0  0  0  0  0  0  0  0
    1.2758   -1.6768    1.1283 O   0  0  0  0  0  0  0  0  0  0  0  0
   -0.1901    1.0904    0.3329 C   0  0  0  0  0  0  0  0  0  0  0  0
   -0.1267    2.1773   -0.7403 C   0  0  0  0  0  0  0  0  0  0  0  0
    0.4462    1.8904   -1.8235 O   0  5  0  0  0  0  0  0  0  0  0  0
   -0.5674    3.3146   -0.4509 O   0  0  0  0  0  0  0  0  0  0  0  0
   -1.2030   -1.5298   -1.6307 H   0  0  0  0  0  0  0  0  0  0  0  0
    0.6366   -0.4010   -0.9525 H   0  0  0  0  0  0  0  0  0  0  0  0
    0.6927    1.2106    0.9667 H   0  0  0  0  0  0  0  0  0  0  0  0
   -1.0737    1.2469    0.9573 H   0  0  0  0  0  0  0  0  0  0  0  0
   -0.9087   -2.0783    1.4443 N   0  0  0  0  0  0  0  0  0  0  0  0
   -0.7435   -3.0463    2.5393 C   0  0  2  0  0  0  0  0  0  0  0  0
   -0.2721   -4.4402    2.0513 C   0  0  0  0  0  0  0  0  0  0  0  0
   -0.8416   -5.4734    2.3885 O   0  0  0  0  0  0  0  0  0  0  0  0
   -2.0766   -3.0999    3.2959 C   0  0  0  0  0  0  0  0  0  0  0  0
   -1.8465   -1.7625    1.2027 H   0  0  0  0  0  0  0  0  0  0  0  0
    0.0194   -2.6756    3.2319 H   0  0  0  0  0  0  0  0  0  0  0  0
   -2.8710   -3.4823    2.6470 H   0  0  0  0  0  0  0  0  0  0  0  0
   -1.9932   -3.7571    4.1673 H   0  0  0  0  0  0  0  0  0  0  0  0
   -2.3581   -2.1012    3.6442 H   0  0  0  0  0  0  0  0  0  0  0  0
    0.8396   -4.5282    1.2366 N   0  0  0  0  0  0  0  0  0  0  0  0
    1.4104   -5.7755    0.7525 C   0  0  0  0  0  0  0  0  0  0  0  0
    1.3133   -3.6430    1.0329 H   0  0  0  0  0  0  0  0  0  0  0  0
    1.7953   -6.3693    1.5875 H   0  0  0  0  0  0  0  0  0  0  0  0
    0.6546   -6.3608    0.2193 H   0  0  0  0  0  0  0  0  0  0  0  0
    2.2345   -5.5681    0.0634 H   0  0  0  0  0  0  0  0  0  0  0  0
  1  2  2  0  0  0  0
  1  3  1  0  0  0  0
  1  7  1  0  0  0  0
  3  4  1  0  0  0  0
  3  5  1  0  0  0  0
  3  6  1  0  0  0  0
  7  8  1  0  0  0  0
  7 12  1  0  0  0  0
  8  9  1  0  0  0  0
  8 11  1  0  0  0  0
  8 13  1  0  0  0  0
  9 10  2  0  0  0  0
  9 17  1  0  0  0  0
 11 14  1  0  0  0  0
 11 15  1  0  0  0  0
 11 16  1  0  0  0  0
 17 18  1  0  0  0  0
 17 25  1  0  0  0  0
 18 19  1  0  0  0  0
 18 21  1  0  0  0  0
 18 26  1  0  0  0  0
 19 20  2  0  0  0  0
 19 29  1  0  0  0  0
 21 22  1  0  0  0  0
 21 27  1  0  0  0  0
 21 28  1  0  0  0  0
 22 23  1  0  0  0  0
 22 24  2  0  0  0  0
 29 30  1  0  0  0  0
 29 34  1  0  0  0  0
 30 31  1  0  0  0  0
 30 33  1  0  0  0  0
 30 35  1  0  0  0  0
 31 32  2  0  0  0  0
 31 39  1  0  0  0  0
 33 36  1  0  0  0  0
 33 37  1  0  0  0  0
 33 38  1  0  0  0  0
 39 40  1  0  0  0  0
 39 41  1  0  0  0  0
 40 42  1  0  0  0  0
 40 43  1  0  0  0  0
 40 44  1  0  0  0  0
M  CHG  1  23  -1
M  END
$$$$

  -OEChem-05262215553D

 44 43  0     1  0  0  0  0  0999 V2000
   -4.3384    1.6947   -3.8586 C   0  0  0  0  0  0  0  0  0  0  0  0
   -5.3961    1.1911   -4.2177 O   0  0  0  0  0  0  0  0  0  0  0  0
   -4.1759    3.2032   -3.8553 C   0  0  0  0  0  0  0  0  0  0  0  0
   -3.3566    3.4923   -4.5176 H   0  0  0  0  0  0  0  0  0  0  0  0
   -5.0957    3.6872   -4.1923 H   0  0  0  0  0  0  0  0  0  0  0  0
   -3.9465    3.5455   -2.8420 H   0  0  0  0  0  0  0  0  0  0  0  0
   -3.2679    0.9026   -3.5088 N   0  0  0  0  0  0  0  0  0  0  0  0
   -3.3903   -0.4921   -3.0710 C   0  0  2  0  0  0  0  0  0  0  0  0
   -3.0660   -0.6142   -1.5639 C   0  0  0  0  0  0  0  0  0  0  0  0
   -3.8952   -0.3223   -0.7161 O   0  0  0  0  0  0  0  0  0  0  0  0
   -2.4581   -1.3276   -3.9554 C   0  0  0  0  0  0  0  0  0  0  0  0
   -2.4516    1.4226   -3.1545 H   0  0  0  0  0  0  0  0  0  0  0  0
   -4.4150   -0.8536   -3.2067 H   0  0  0  0  0  0  0  0  0  0  0  0
   -1.4223   -0.9865   -3.8531 H   0  0  0  0  0  0  0  0  0  0  0  0
   -2.5147   -2.3856   -3.6830 H   0  0  0  0  0  0  0  0  0  0  0  0
   -2.7515   -1.2268   -5.0050 H   0  0  0  0  0  0  0  0  0  0  0  0
   -1.9410   -1.2579   -1.0871 N   0  0  0  0  0  0  0  0  0  0  0  0
   -0.7856   -0.5172   -0.5212 C   0  0  2  0  0  0  0  0  0  0  0  0
   -0.0884   -1.3743    0.5562 C   0  0  0  0  0  0  0  0  0  0  0  0
    1.0838   -1.1893    0.8653 O   0  0  0  0  0  0  0  0  0  0  0  0
   -1.0597    0.9158    0.0046 C   0  0  0  0  0  0  0  0  0  0  0  0
   -1.3792    1.9158   -1.1055 C   0  0  0  0  0  0  0  0  0  0  0  0
   -0.8768    1.7083   -2.2414 O   0  5  0  0  0  0  0  0  0  0  0  0
   -2.1230    2.8853   -0.8406 O   0  0  0  0  0  0  0  0  0  0  0  0
   -1.6176   -1.9097   -1.7934 H   0  0  0  0  0  0  0  0  0  0  0  0
   -0.0454   -0.4173   -1.3229 H   0  0  0  0  0  0  0  0  0  0  0  0
   -0.1731    1.2844    0.5273 H   0  0  0  0  0  0  0  0  0  0  0  0
   -1.8861    0.8934    0.7205 H   0  0  0  0  0  0  0  0  0  0  0  0
   -0.7363   -2.4796    1.0772 N   0  0  0  0  0  0  0  0  0  0  0  0
   -0.2173   -3.3093    2.1752 C   0  0  2  0  0  0  0  0  0  0  0  0
    0.8090   -4.3687    1.6994 C   0  0  0  0  0  0  0  0  0  0  0  0
    0.6855   -5.5603    1.9659 O   0  0  0  0  0  0  0  0  0  0  0  0
   -1.4298   -3.9293    2.8805 C   0  0  0  0  0  0  0  0  0  0  0  0
   -1.7274   -2.5373    0.8499 H   0  0  0  0  0  0  0  0  0  0  0  0
    0.2974   -2.6673    2.8982 H   0  0  0  0  0  0  0  0  0  0  0  0
   -1.9727   -4.5929    2.1999 H   0  0  0  0  0  0  0  0  0  0  0  0
   -1.1077   -4.5116    3.7495 H   0  0  0  0  0  0  0  0  0  0  0  0
   -2.1120   -3.1458    3.2250 H   0  0  0  0  0  0  0  0  0  0  0  0
    1.9105   -3.9587    0.9748 N   0  0  0  0  0  0  0  0  0  0  0  0
    2.9551   -4.8474    0.4899 C   0  0  0  0  0  0  0  0  0  0  0  0
    1.9801   -2.9518    0.7992 H   0  0  0  0  0  0  0  0  0  0  0  0
    3.4475   -5.3513    1.3278 H   0  0  0  0  0  0  0  0  0  0  0  0
    2.5332   -5.6028   -0.1808 H   0  0  0  0  0  0  0  0  0  0  0  0
    3.7077   -4.2758   -0.0614 H   0  0  0  0  0  0  0  0  0  0  0  0
  1  2  2  0  0  0  0
  1  3  1  0  0  0  0
  1  7  1  0  0  0  0
  3  4  1  0  0  0  0
  3  5  1  0  0  0  0
  3  6  1  0  0  0  0
  7  8  1  0  0  0  0
  7 12  1  0  0  0  0
  8  9  1  0  0  0  0
  8 11  1  0  0  0  0
  8 13  1  0  0  0  0
  9 10  2  0  0  0  0
  9 17  1  0  0  0  0
 11 14  1  0  0  0  0
 11 15  1  0  0  0  0
 11 16  1  0  0  0  0
 17 18  1  0  0  0  0
 17 25  1  0  0  0  0
 18 19  1  0  0  0  0
 18 21  1  0  0  0  0
 18 26  1  0  0  0  0
 19 20  2  0  0  0  0
 19 29  1  0  0  0  0
 21 22  1  0  0  0  0
 21 27  1  0  0  0  0
 21 28  1  0  0  0  0
 22 23  1  0  0  0  0
 22 24  2  0  0  0  0
 29 30  1  0  0  0  0
 29 34  1  0  0  0  0
 30 31  1  0  0  0  0
 30 33  1  0  0  0  0
 30 35  1  0  0  0  0
 31 32  2  0  0  0  0
 31 39  1  0  0  0  0
 33 36  1  0  0  0  0
 33 37  1  0  0  0  0
 33 38  1  0  0  0  0
 39 40  1  0  0  0  0
 39 41  1  0  0  0  0
 40 42  1  0  0  0  0
 40 43  1  0  0  0  0
 40 44  1  0  0  0  0
M  CHG  1  23  -1
M  END
$$$$

  -OEChem-05262215553D

 44 43  0     1  0  0  0  0  0999 V2000
   -4.2378    1.7749   -3.8289 C   0  0  0  0  0  0  0  0  0  0  0  0
   -5.2785    1.2942   -4.2616 O   0  0  0  0  0  0  0  0  0  0  0  0
   -4.0671    3.2803   -3.7536 C   0  0  0  0  0  0  0  0  0  0  0  0
   -3.2024    3.5874   -4.3464 H   0  0  0  0  0  0  0  0  0  0  0  0
   -4.9593    3.7858   -4.1316 H   0  0  0  0  0  0  0  0  0  0  0  0
   -3.9043    3.5790   -2.7141 H   0  0  0  0  0  0  0  0  0  0  0  0
   -3.1901    0.9618   -3.4590 N   0  0  0  0  0  0  0  0  0  0  0  0
   -3.3421   -0.4488   -3.0873 C   0  0  2  0  0  0  0  0  0  0  0  0
   -3.0217   -0.6503   -1.5884 C   0  0  0  0  0  0  0  0  0  0  0  0
   -3.8716   -0.4515   -0.7346 O   0  0  0  0  0  0  0  0  0  0  0  0
   -2.4302   -1.2651   -4.0100 C   0  0  0  0  0  0  0  0  0  0  0  0
   -2.3917    1.4633   -3.0427 H   0  0  0  0  0  0  0  0  0  0  0  0
   -4.3753   -0.7795   -3.2372 H   0  0  0  0  0  0  0  0  0  0  0  0
   -1.3861   -0.9551   -3.8944 H   0  0  0  0  0  0  0  0  0  0  0  0
   -2.5138   -2.3327   -3.7855 H   0  0  0  0  0  0  0  0  0  0  0  0
   -2.7210   -1.1094   -5.0537 H   0  0  0  0  0  0  0  0  0  0  0  0
   -1.8764   -1.2859   -1.1492 N   0  0  0  0  0  0  0  0  0  0  0  0
   -0.7585   -0.5531   -0.5013 C   0  0  2  0  0  0  0  0  0  0  0  0
   -0.0375   -1.4705    0.5119 C   0  0  0  0  0  0  0  0  0  0  0  0
    1.0167   -1.1421    1.0457 O   0  0  0  0  0  0  0  0  0  0  0  0
   -1.0924    0.8304    0.1174 C   0  0  0  0  0  0  0  0  0  0  0  0
   -1.4164    1.8944   -0.9304 C   0  0  0  0  0  0  0  0  0  0  0  0
   -0.8785    1.7805   -2.0639 O   0  5  0  0  0  0  0  0  0  0  0  0
   -2.1987    2.8196   -0.6219 O   0  0  0  0  0  0  0  0  0  0  0  0
   -1.5154   -1.8492   -1.9114 H   0  0  0  0  0  0  0  0  0  0  0  0
   -0.0094   -0.3689   -1.2789 H   0  0  0  0  0  0  0  0  0  0  0  0
   -0.2328    1.1914    0.6877 H   0  0  0  0  0  0  0  0  0  0  0  0
   -1.9341    0.7317    0.8085 H   0  0  0  0  0  0  0  0  0  0  0  0
   -0.4788   -2.7693    0.6936 N   0  0  0  0  0  0  0  0  0  0  0  0
    0.0667   -3.6969    1.6962 C   0  0  2  0  0  0  0  0  0  0  0  0
    1.3645   -4.4038    1.2278 C   0  0  0  0  0  0  0  0  0  0  0  0
    1.4799   -5.6254    1.2463 O   0  0  0  0  0  0  0  0  0  0  0  0
   -1.0551   -4.6826    2.0471 C   0  0  0  0  0  0  0  0  0  0  0  0
   -1.4136   -2.9478    0.3336 H   0  0  0  0  0  0  0  0  0  0  0  0
    0.3168   -3.1382    2.6045 H   0  0  0  0  0  0  0  0  0  0  0  0
   -1.3288   -5.2813    1.1724 H   0  0  0  0  0  0  0  0  0  0  0  0
   -0.7304   -5.3595    2.8436 H   0  0  0  0  0  0  0  0  0  0  0  0
   -1.9420   -4.1436    2.3947 H   0  0  0  0  0  0  0  0  0  0  0  0
    2.4335   -3.6402    0.8028 N   0  0  0  0  0  0  0  0  0  0  0  0
    3.7135   -4.1814    0.3727 C   0  0  0  0  0  0  0  0  0  0  0  0
    2.2960   -2.6251    0.8290 H   0  0  0  0  0  0  0  0  0  0  0  0
    4.2016   -4.7084    1.1986 H   0  0  0  0  0  0  0  0  0  0  0  0
    3.5746   -4.8784   -0.4600 H   0  0  0  0  0  0  0  0  0  0  0  0
    4.3704   -3.3722    0.0403 H   0  0  0  0  0  0  0  0  0  0  0  0
  1  2  2  0  0  0  0
  1  3  1  0  0  0  0
  1  7  1  0  0  0  0
  3  4  1  0  0  0  0
  3  5  1  0  0  0  0
  3  6  1  0  0  0  0
  7  8  1  0  0  0  0
  7 12  1  0  0  0  0
  8  9  1  0  0  0  0
  8 11  1  0  0  0  0
  8 13  1  0  0  0  0
  9 10  2  0  0  0  0
  9 17  1  0  0  0  0
 11 14  1  0  0  0  0
 11 15  1  0  0  0  0
 11 16  1  0  0  0  0
 17 18  1  0  0  0  0
 17 25  1  0  0  0  0
 18 19  1  0  0  0  0
 18 21  1  0  0  0  0
 18 26  1  0  0  0  0
 19 20  2  0  0  0  0
 19 29  1  0  0  0  0
 21 22  1  0  0  0  0
 21 27  1  0  0  0  0
 21 28  1  0  0  0  0
 22 23  1  0  0  0  0
 22 24  2  0  0  0  0
 29 30  1  0  0  0  0
 29 34  1  0  0  0  0
 30 31  1  0  0  0  0
 30 33  1  0  0  0  0
 30 35  1  0  0  0  0
 31 32  2  0  0  0  0
 31 39  1  0  0  0  0
 33 36  1  0  0  0  0
 33 37  1  0  0  0  0
 33 38  1  0  0  0  0
 39 40  1  0  0  0  0
 39 41  1  0  0  0  0
 40 42  1  0  0  0  0
 40 43  1  0  0  0  0
 40 44  1  0  0  0  0
M  CHG  1  23  -1
M  END
$$$$

  -OEChem-05262215553D

 44 43  0     1  0  0  0  0  0999 V2000
   -4.6635    0.2412   -4.3189 C   0  0  0  0  0  0  0  0  0  0  0  0
   -4.4128   -0.7497   -4.9912 O   0  0  0  0  0  0  0  0  0  0  0  0
   -6.0589    0.8382   -4.3440 C   0  0  0  0  0  0  0  0  0  0  0  0
   -6.0174    1.8631   -4.7207 H   0  0  0  0  0  0  0  0  0  0  0  0
   -6.7123    0.2484   -4.9926 H   0  0  0  0  0  0  0  0  0  0  0  0
   -6.4776    0.8467   -3.3343 H   0  0  0  0  0  0  0  0  0  0  0  0
   -3.6956    0.8279   -3.5344 N   0  0  0  0  0  0  0  0  0  0  0  0
   -2.4168    0.1953   -3.1875 C   0  0  2  0  0  0  0  0  0  0  0  0
   -2.1923    0.1964   -1.6579 C   0  0  0  0  0  0  0  0  0  0  0  0
   -3.1163    0.4938   -0.9106 O   0  0  0  0  0  0  0  0  0  0  0  0
   -1.3087    0.9577   -3.9183 C   0  0  0  0  0  0  0  0  0  0  0  0
   -4.0240    1.5290   -2.8694 H   0  0  0  0  0  0  0  0  0  0  0  0
   -2.4043   -0.8493   -3.5134 H   0  0  0  0  0  0  0  0  0  0  0  0
   -1.3174    2.0140   -3.6297 H   0  0  0  0  0  0  0  0  0  0  0  0
   -0.3257    0.5427   -3.6778 H   0  0  0  0  0  0  0  0  0  0  0  0
   -1.4568    0.8936   -5.0005 H   0  0  0  0  0  0  0  0  0  0  0  0
   -1.0968   -0.4400   -1.1043 N   0  0  0  0  0  0  0  0  0  0  0  0
   -0.1575    0.2128   -0.1544 C   0  0  2  0  0  0  0  0  0  0  0  0
    0.4351   -0.8322    0.8235 C   0  0  0  0  0  0  0  0  0  0  0  0
    1.1652   -0.5180    1.7570 O   0  0  0  0  0  0  0  0  0  0  0  0
   -0.6639    1.4909    0.5679 C   0  0  0  0  0  0  0  0  0  0  0  0
   -0.8247    2.6857   -0.3749 C   0  0  0  0  0  0  0  0  0  0  0  0
   -0.0724    2.7362   -1.3841 O   0  5  0  0  0  0  0  0  0  0  0  0
   -1.6390    3.5844   -0.0556 O   0  0  0  0  0  0  0  0  0  0  0  0
   -0.5902   -0.9254   -1.8367 H   0  0  0  0  0  0  0  0  0  0  0  0
    0.7076    0.5281   -0.7464 H   0  0  0  0  0  0  0  0  0  0  0  0
    0.0578    1.7876    1.3329 H   0  0  0  0  0  0  0  0  0  0  0  0
   -1.6124    1.2857    1.0704 H   0  0  0  0  0  0  0  0  0  0  0  0
    0.3115   -2.1810    0.5405 N   0  0  0  0  0  0  0  0  0  0  0  0
    0.9914   -3.2700    1.2496 C   0  0  2  0  0  0  0  0  0  0  0  0
    1.3797   -4.4191    0.2966 C   0  0  0  0  0  0  0  0  0  0  0  0
    0.7937   -4.5738   -0.7705 O   0  0  0  0  0  0  0  0  0  0  0  0
    0.0615   -3.7769    2.3545 C   0  0  0  0  0  0  0  0  0  0  0  0
   -0.3051   -2.4312   -0.2287 H   0  0  0  0  0  0  0  0  0  0  0  0
    1.9154   -2.8966    1.7025 H   0  0  0  0  0  0  0  0  0  0  0  0
   -0.8700   -4.1597    1.9249 H   0  0  0  0  0  0  0  0  0  0  0  0
    0.5412   -4.5798    2.9217 H   0  0  0  0  0  0  0  0  0  0  0  0
   -0.1821   -2.9631    3.0451 H   0  0  0  0  0  0  0  0  0  0  0  0
    2.4009   -5.2868    0.6392 N   0  0  0  0  0  0  0  0  0  0  0  0
    2.8633   -6.3607   -0.2297 C   0  0  0  0  0  0  0  0  0  0  0  0
    2.8989   -5.1023    1.5051 H   0  0  0  0  0  0  0  0  0  0  0  0
    2.0527   -7.0704   -0.4250 H   0  0  0  0  0  0  0  0  0  0  0  0
    3.2168   -5.9562   -1.1841 H   0  0  0  0  0  0  0  0  0  0  0  0
    3.6886   -6.8999    0.2449 H   0  0  0  0  0  0  0  0  0  0  0  0
  1  2  2  0  0  0  0
  1  3  1  0  0  0  0
  1  7  1  0  0  0  0
  3  4  1  0  0  0  0
  3  5  1  0  0  0  0
  3  6  1  0  0  0  0
  7  8  1  0  0  0  0
  7 12  1  0  0  0  0
  8  9  1  0  0  0  0
  8 11  1  0  0  0  0
  8 13  1  0  0  0  0
  9 10  2  0  0  0  0
  9 17  1  0  0  0  0
 11 14  1  0  0  0  0
 11 15  1  0  0  0  0
 11 16  1  0  0  0  0
 17 18  1  0  0  0  0
 17 25  1  0  0  0  0
 18 19  1  0  0  0  0
 18 21  1  0  0  0  0
 18 26  1  0  0  0  0
 19 20  2  0  0  0  0
 19 29  1  0  0  0  0
 21 22  1  0  0  0  0
 21 27  1  0  0  0  0
 21 28  1  0  0  0  0
 22 23  1  0  0  0  0
 22 24  2  0  0  0  0
 29 30  1  0  0  0  0
 29 34  1  0  0  0  0
 30 31  1  0  0  0  0
 30 33  1  0  0  0  0
 30 35  1  0  0  0  0
 31 32  2  0  0  0  0
 31 39  1  0  0  0  0
 33 36  1  0  0  0  0
 33 37  1  0  0  0  0
 33 38  1  0  0  0  0
 39 40  1  0  0  0  0
 39 41  1  0  0  0  0
 40 42  1  0  0  0  0
 40 43  1  0  0  0  0
 40 44  1  0  0  0  0
M  CHG  1  23  -1
M  END
$$$$

  -OEChem-05262215553D

 44 43  0     1  0  0  0  0  0999 V2000
   -4.6803    0.2141   -4.2897 C   0  0  0  0  0  0  0  0  0  0  0  0
   -4.4378   -0.7795   -4.9606 O   0  0  0  0  0  0  0  0  0  0  0  0
   -6.0769    0.8085   -4.2974 C   0  0  0  0  0  0  0  0  0  0  0  0
   -6.0450    1.8276   -4.6904 H   0  0  0  0  0  0  0  0  0  0  0  0
   -6.7417    0.2078   -4.9237 H   0  0  0  0  0  0  0  0  0  0  0  0
   -6.4762    0.8319   -3.2802 H   0  0  0  0  0  0  0  0  0  0  0  0
   -3.7011    0.8082   -3.5252 N   0  0  0  0  0  0  0  0  0  0  0  0
   -2.4172    0.1789   -3.1903 C   0  0  2  0  0  0  0  0  0  0  0  0
   -2.1942    0.1501   -1.6605 C   0  0  0  0  0  0  0  0  0  0  0  0
   -3.1236    0.4212   -0.9101 O   0  0  0  0  0  0  0  0  0  0  0  0
   -1.3178    0.9703   -3.9028 C   0  0  0  0  0  0  0  0  0  0  0  0
   -4.0229    1.5093   -2.8572 H   0  0  0  0  0  0  0  0  0  0  0  0
   -2.3921   -0.8579   -3.5395 H   0  0  0  0  0  0  0  0  0  0  0  0
   -1.3540    2.0245   -3.6082 H   0  0  0  0  0  0  0  0  0  0  0  0
   -0.3282    0.5771   -3.6526 H   0  0  0  0  0  0  0  0  0  0  0  0
   -1.4513    0.9092   -4.9871 H   0  0  0  0  0  0  0  0  0  0  0  0
   -1.0802   -0.4649   -1.1172 N   0  0  0  0  0  0  0  0  0  0  0  0
   -0.1671    0.1994   -0.1501 C   0  0  2  0  0  0  0  0  0  0  0  0
    0.4602   -0.8418    0.8135 C   0  0  0  0  0  0  0  0  0  0  0  0
    0.9128   -0.5429    1.9133 O   0  0  0  0  0  0  0  0  0  0  0  0
   -0.7041    1.4711    0.5658 C   0  0  0  0  0  0  0  0  0  0  0  0
   -0.8638    2.6640   -0.3804 C   0  0  0  0  0  0  0  0  0  0  0  0
   -0.0938    2.7242   -1.3758 O   0  5  0  0  0  0  0  0  0  0  0  0
   -1.6999    3.5495   -0.0813 O   0  0  0  0  0  0  0  0  0  0  0  0
   -0.5590   -0.9164   -1.8596 H   0  0  0  0  0  0  0  0  0  0  0  0
    0.6943    0.5371   -0.7346 H   0  0  0  0  0  0  0  0  0  0  0  0
    0.0018    1.7800    1.3405 H   0  0  0  0  0  0  0  0  0  0  0  0
   -1.6563    1.2532    1.0567 H   0  0  0  0  0  0  0  0  0  0  0  0
    0.6710   -2.1407    0.3814 N   0  0  0  0  0  0  0  0  0  0  0  0
    1.4151   -3.1697    1.1172 C   0  0  2  0  0  0  0  0  0  0  0  0
    2.1251   -4.1551    0.1657 C   0  0  0  0  0  0  0  0  0  0  0  0
    1.7726   -4.2578   -1.0055 O   0  0  0  0  0  0  0  0  0  0  0  0
    0.4381   -3.9154    2.0306 C   0  0  0  0  0  0  0  0  0  0  0  0
    0.3222   -2.3884   -0.5400 H   0  0  0  0  0  0  0  0  0  0  0  0
    2.1889   -2.6947    1.7295 H   0  0  0  0  0  0  0  0  0  0  0  0
   -0.3413   -4.4052    1.4384 H   0  0  0  0  0  0  0  0  0  0  0  0
    0.9630   -4.6767    2.6151 H   0  0  0  0  0  0  0  0  0  0  0  0
   -0.0391   -3.2161    2.7247 H   0  0  0  0  0  0  0  0  0  0  0  0
    3.1733   -4.9303    0.6286 N   0  0  0  0  0  0  0  0  0  0  0  0
    3.9358   -5.8374   -0.2188 C   0  0  0  0  0  0  0  0  0  0  0  0
    3.4721   -4.7836    1.5883 H   0  0  0  0  0  0  0  0  0  0  0  0
    3.2730   -6.5704   -0.6906 H   0  0  0  0  0  0  0  0  0  0  0  0
    4.4605   -5.2795   -1.0014 H   0  0  0  0  0  0  0  0  0  0  0  0
    4.6769   -6.3768    0.3787 H   0  0  0  0  0  0  0  0  0  0  0  0
  1  2  2  0  0  0  0
  1  3  1  0  0  0  0
  1  7  1  0  0  0  0
  3  4  1  0  0  0  0
  3  5  1  0  0  0  0
  3  6  1  0  0  0  0
  7  8  1  0  0  0  0
  7 12  1  0  0  0  0
  8  9  1  0  0  0  0
  8 11  1  0  0  0  0
  8 13  1  0  0  0  0
  9 10  2  0  0  0  0
  9 17  1  0  0  0  0
 11 14  1  0  0  0  0
 11 15  1  0  0  0  0
 11 16  1  0  0  0  0
 17 18  1  0  0  0  0
 17 25  1  0  0  0  0
 18 19  1  0  0  0  0
 18 21  1  0  0  0  0
 18 26  1  0  0  0  0
 19 20  2  0  0  0  0
 19 29  1  0  0  0  0
 21 22  1  0  0  0  0
 21 27  1  0  0  0  0
 21 28  1  0  0  0  0
 22 23  1  0  0  0  0
 22 24  2  0  0  0  0
 29 30  1  0  0  0  0
 29 34  1  0  0  0  0
 30 31  1  0  0  0  0
 30 33  1  0  0  0  0
 30 35  1  0  0  0  0
 31 32  2  0  0  0  0
 31 39  1  0  0  0  0
 33 36  1  0  0  0  0
 33 37  1  0  0  0  0
 33 38  1  0  0  0  0
 39 40  1  0  0  0  0
 39 41  1  0  0  0  0
 40 42  1  0  0  0  0
 40 43  1  0  0  0  0
 40 44  1  0  0  0  0
M  CHG  1  23  -1
M  END
$$$$

  -OEChem-05262215553D

 44 43  0     1  0  0  0  0  0999 V2000
   -4.6645    0.1564   -4.2786 C   0  0  0  0  0  0  0  0  0  0  0  0
   -4.3979   -0.8127   -4.9759 O   0  0  0  0  0  0  0  0  0  0  0  0
   -6.0706    0.7276   -4.2825 C   0  0  0  0  0  0  0  0  0  0  0  0
   -6.0463    1.7729   -4.6003 H   0  0  0  0  0  0  0  0  0  0  0  0
   -6.7078    0.1630   -4.9685 H   0  0  0  0  0  0  0  0  0  0  0  0
   -6.4962    0.6717   -3.2772 H   0  0  0  0  0  0  0  0  0  0  0  0
   -3.7051    0.7402   -3.4825 N   0  0  0  0  0  0  0  0  0  0  0  0
   -2.4115    0.1262   -3.1578 C   0  0  2  0  0  0  0  0  0  0  0  0
   -2.1679    0.1262   -1.6309 C   0  0  0  0  0  0  0  0  0  0  0  0
   -3.0909    0.4068   -0.8761 O   0  0  0  0  0  0  0  0  0  0  0  0
   -1.3270    0.9135   -3.8980 C   0  0  0  0  0  0  0  0  0  0  0  0
   -4.0433    1.4182   -2.7982 H   0  0  0  0  0  0  0  0  0  0  0  0
   -2.3867   -0.9165   -3.4888 H   0  0  0  0  0  0  0  0  0  0  0  0
   -1.3533    1.9679   -3.6029 H   0  0  0  0  0  0  0  0  0  0  0  0
   -0.3330    0.5173   -3.6717 H   0  0  0  0  0  0  0  0  0  0  0  0
   -1.4872    0.8516   -4.9785 H   0  0  0  0  0  0  0  0  0  0  0  0
   -1.0345   -0.4586   -1.0941 N   0  0  0  0  0  0  0  0  0  0  0  0
   -0.1327    0.2250   -0.1311 C   0  0  2  0  0  0  0  0  0  0  0  0
    0.5232   -0.8079    0.8207 C   0  0  0  0  0  0  0  0  0  0  0  0
    0.6724   -0.6148    2.0225 O   0  0  0  0  0  0  0  0  0  0  0  0
   -0.6871    1.4867    0.5876 C   0  0  0  0  0  0  0  0  0  0  0  0
   -0.8723    2.6771   -0.3570 C   0  0  0  0  0  0  0  0  0  0  0  0
   -0.1080    2.7496   -1.3564 O   0  5  0  0  0  0  0  0  0  0  0  0
   -1.7114    3.5555   -0.0462 O   0  0  0  0  0  0  0  0  0  0  0  0
   -0.5159   -0.9240   -1.8283 H   0  0  0  0  0  0  0  0  0  0  0  0
    0.7172    0.5836   -0.7197 H   0  0  0  0  0  0  0  0  0  0  0  0
    0.0186    1.8046    1.3589 H   0  0  0  0  0  0  0  0  0  0  0  0
   -1.6327    1.2525    1.0830 H   0  0  0  0  0  0  0  0  0  0  0  0
    1.0440   -1.9828    0.3026 N   0  0  0  0  0  0  0  0  0  0  0  0
    1.7964   -2.9799    1.0738 C   0  0  2  0  0  0  0  0  0  0  0  0
    2.8138   -3.7383    0.1966 C   0  0  0  0  0  0  0  0  0  0  0  0
    2.7238   -3.7122   -1.0272 O   0  0  0  0  0  0  0  0  0  0  0  0
    0.8001   -3.9590    1.7020 C   0  0  0  0  0  0  0  0  0  0  0  0
    1.0205   -2.1036   -0.7061 H   0  0  0  0  0  0  0  0  0  0  0  0
    2.3605   -2.4798    1.8683 H   0  0  0  0  0  0  0  0  0  0  0  0
    0.2317   -4.4776    0.9235 H   0  0  0  0  0  0  0  0  0  0  0  0
    1.3235   -4.7040    2.3085 H   0  0  0  0  0  0  0  0  0  0  0  0
    0.0971   -3.4218    2.3468 H   0  0  0  0  0  0  0  0  0  0  0  0
    3.8379   -4.4575    0.7865 N   0  0  0  0  0  0  0  0  0  0  0  0
    4.8566   -5.1733    0.0300 C   0  0  0  0  0  0  0  0  0  0  0  0
    3.9012   -4.4342    1.8001 H   0  0  0  0  0  0  0  0  0  0  0  0
    4.3980   -5.9499   -0.5910 H   0  0  0  0  0  0  0  0  0  0  0  0
    5.4089   -4.4832   -0.6162 H   0  0  0  0  0  0  0  0  0  0  0  0
    5.5665   -5.6505    0.7123 H   0  0  0  0  0  0  0  0  0  0  0  0
  1  2  2  0  0  0  0
  1  3  1  0  0  0  0
  1  7  1  0  0  0  0
  3  4  1  0  0  0  0
  3  5  1  0  0  0  0
  3  6  1  0  0  0  0
  7  8  1  0  0  0  0
  7 12  1  0  0  0  0
  8  9  1  0  0  0  0
  8 11  1  0  0  0  0
  8 13  1  0  0  0  0
  9 10  2  0  0  0  0
  9 17  1  0  0  0  0
 11 14  1  0  0  0  0
 11 15  1  0  0  0  0
 11 16  1  0  0  0  0
 17 18  1  0  0  0  0
 17 25  1  0  0  0  0
 18 19  1  0  0  0  0
 18 21  1  0  0  0  0
 18 26  1  0  0  0  0
 19 20  2  0  0  0  0
 19 29  1  0  0  0  0
 21 22  1  0  0  0  0
 21 27  1  0  0  0  0
 21 28  1  0  0  0  0
 22 23  1  0  0  0  0
 22 24  2  0  0  0  0
 29 30  1  0  0  0  0
 29 34  1  0  0  0  0
 30 31  1  0  0  0  0
 30 33  1  0  0  0  0
 30 35  1  0  0  0  0
 31 32  2  0  0  0  0
 31 39  1  0  0  0  0
 33 36  1  0  0  0  0
 33 37  1  0  0  0  0
 33 38  1  0  0  0  0
 39 40  1  0  0  0  0
 39 41  1  0  0  0  0
 40 42  1  0  0  0  0
 40 43  1  0  0  0  0
 40 44  1  0  0  0  0
M  CHG  1  23  -1
M  END
$$$$

  -OEChem-05262215553D

 44 43  0     1  0  0  0  0  0999 V2000
   -4.6310    0.0789   -4.2585 C   0  0  0  0  0  0  0  0  0  0  0  0
   -4.3545   -0.9005   -4.9373 O   0  0  0  0  0  0  0  0  0  0  0  0
   -6.0370    0.6495   -4.2911 C   0  0  0  0  0  0  0  0  0  0  0  0
   -6.0063    1.6978   -4.5984 H   0  0  0  0  0  0  0  0  0  0  0  0
   -6.6567    0.0916   -4.9981 H   0  0  0  0  0  0  0  0  0  0  0  0
   -6.4872    0.5832   -3.2973 H   0  0  0  0  0  0  0  0  0  0  0  0
   -3.6822    0.6733   -3.4572 N   0  0  0  0  0  0  0  0  0  0  0  0
   -2.3893    0.0685   -3.1142 C   0  0  2  0  0  0  0  0  0  0  0  0
   -2.1394    0.1220   -1.5899 C   0  0  0  0  0  0  0  0  0  0  0  0
   -3.0500    0.4592   -0.8436 O   0  0  0  0  0  0  0  0  0  0  0  0
   -1.3020    0.8274   -3.8803 C   0  0  0  0  0  0  0  0  0  0  0  0
   -4.0269    1.3608   -2.7858 H   0  0  0  0  0  0  0  0  0  0  0  0
   -2.3687   -0.9850   -3.4097 H   0  0  0  0  0  0  0  0  0  0  0  0
   -1.3054    1.8857   -3.5982 H   0  0  0  0  0  0  0  0  0  0  0  0
   -0.3122    0.4159   -3.6627 H   0  0  0  0  0  0  0  0  0  0  0  0
   -1.4780    0.7551   -4.9578 H   0  0  0  0  0  0  0  0  0  0  0  0
   -1.0026   -0.4480   -1.0456 N   0  0  0  0  0  0  0  0  0  0  0  0
   -0.0967    0.2477   -0.0979 C   0  0  2  0  0  0  0  0  0  0  0  0
    0.5571   -0.7784    0.8577 C   0  0  0  0  0  0  0  0  0  0  0  0
    0.4474   -0.7303    2.0780 O   0  0  0  0  0  0  0  0  0  0  0  0
   -0.6369    1.5154    0.6180 C   0  0  0  0  0  0  0  0  0  0  0  0
   -0.8299    2.7000   -0.3326 C   0  0  0  0  0  0  0  0  0  0  0  0
   -0.0775    2.7612   -1.3424 O   0  5  0  0  0  0  0  0  0  0  0  0
   -1.6420    3.5972   -0.0030 O   0  0  0  0  0  0  0  0  0  0  0  0
   -0.4948   -0.9614   -1.7550 H   0  0  0  0  0  0  0  0  0  0  0  0
    0.7484    0.6011   -0.6961 H   0  0  0  0  0  0  0  0  0  0  0  0
    0.0800    1.8311    1.3800 H   0  0  0  0  0  0  0  0  0  0  0  0
   -1.5786    1.2885    1.1247 H   0  0  0  0  0  0  0  0  0  0  0  0
    1.3369   -1.7925    0.3262 N   0  0  0  0  0  0  0  0  0  0  0  0
    2.0894   -2.7692    1.1225 C   0  0  2  0  0  0  0  0  0  0  0  0
    3.3453   -3.2712    0.3805 C   0  0  0  0  0  0  0  0  0  0  0  0
    3.4484   -3.1322   -0.8345 O   0  0  0  0  0  0  0  0  0  0  0  0
    1.1613   -3.9415    1.4564 C   0  0  0  0  0  0  0  0  0  0  0  0
    1.5551   -1.7447   -0.6663 H   0  0  0  0  0  0  0  0  0  0  0  0
    2.4269   -2.3006    2.0528 H   0  0  0  0  0  0  0  0  0  0  0  0
    0.8080   -4.4225    0.5387 H   0  0  0  0  0  0  0  0  0  0  0  0
    1.6851   -4.6866    2.0628 H   0  0  0  0  0  0  0  0  0  0  0  0
    0.2923   -3.5876    2.0205 H   0  0  0  0  0  0  0  0  0  0  0  0
    4.3676   -3.8829    1.0835 N   0  0  0  0  0  0  0  0  0  0  0  0
    5.6024   -4.3464    0.4654 C   0  0  0  0  0  0  0  0  0  0  0  0
    4.2660   -3.9484    2.0920 H   0  0  0  0  0  0  0  0  0  0  0  0
    5.3900   -5.1069   -0.2931 H   0  0  0  0  0  0  0  0  0  0  0  0
    6.1298   -3.5119   -0.0082 H   0  0  0  0  0  0  0  0  0  0  0  0
    6.2593   -4.7867    1.2215 H   0  0  0  0  0  0  0  0  0  0  0  0
  1  2  2  0  0  0  0
  1  3  1  0  0  0  0
  1  7  1  0  0  0  0
  3  4  1  0  0  0  0
  3  5  1  0  0  0  0
  3  6  1  0  0  0  0
  7  8  1  0  0  0  0
  7 12  1  0  0  0  0
  8  9  1  0  0  0  0
  8 11  1  0  0  0  0
  8 13  1  0  0  0  0
  9 10  2  0  0  0  0
  9 17  1  0  0  0  0
 11 14  1  0  0  0  0
 11 15  1  0  0  0  0
 11 16  1  0  0  0  0
 17 18  1  0  0  0  0
 17 25  1  0  0  0  0
 18 19  1  0  0  0  0
 18 21  1  0  0  0  0
 18 26  1  0  0  0  0
 19 20  2  0  0  0  0
 19 29  1  0  0  0  0
 21 22  1  0  0  0  0
 21 27  1  0  0  0  0
 21 28  1  0  0  0  0
 22 23  1  0  0  0  0
 22 24  2  0  0  0  0
 29 30  1  0  0  0  0
 29 34  1  0  0  0  0
 30 31  1  0  0  0  0
 30 33  1  0  0  0  0
 30 35  1  0  0  0  0
 31 32  2  0  0  0  0
 31 39  1  0  0  0  0
 33 36  1  0  0  0  0
 33 37  1  0  0  0  0
 33 38  1  0  0  0  0
 39 40  1  0  0  0  0
 39 41  1  0  0  0  0
 40 42  1  0  0  0  0
 40 43  1  0  0  0  0
 40 44  1  0  0  0  0
M  CHG  1  23  -1
M  END
$$$$

  -OEChem-05262215553D

 44 43  0     1  0  0  0  0  0999 V2000
   -4.6118    0.0478   -4.2481 C   0  0  0  0  0  0  0  0  0  0  0  0
   -4.3309   -0.9338   -4.9219 O   0  0  0  0  0  0  0  0  0  0  0  0
   -6.0216    0.6094   -4.2810 C   0  0  0  0  0  0  0  0  0  0  0  0
   -5.9969    1.6601   -4.5811 H   0  0  0  0  0  0  0  0  0  0  0  0
   -6.6355    0.0522   -4.9940 H   0  0  0  0  0  0  0  0  0  0  0  0
   -6.4742    0.5332   -3.2887 H   0  0  0  0  0  0  0  0  0  0  0  0
   -3.6658    0.6487   -3.4481 N   0  0  0  0  0  0  0  0  0  0  0  0
   -2.3745    0.0449   -3.0961 C   0  0  2  0  0  0  0  0  0  0  0  0
   -2.1162    0.1344   -1.5751 C   0  0  0  0  0  0  0  0  0  0  0  0
   -3.0121    0.5271   -0.8383 O   0  0  0  0  0  0  0  0  0  0  0  0
   -1.2832    0.7771   -3.8819 C   0  0  0  0  0  0  0  0  0  0  0  0
   -4.0134    1.3390   -2.7806 H   0  0  0  0  0  0  0  0  0  0  0  0
   -2.3630   -1.0154   -3.3664 H   0  0  0  0  0  0  0  0  0  0  0  0
   -1.2673    1.8391   -3.6139 H   0  0  0  0  0  0  0  0  0  0  0  0
   -0.2982    0.3528   -3.6668 H   0  0  0  0  0  0  0  0  0  0  0  0
   -1.4699    0.6923   -4.9566 H   0  0  0  0  0  0  0  0  0  0  0  0
   -0.9857   -0.4419   -1.0233 N   0  0  0  0  0  0  0  0  0  0  0  0
   -0.0727    0.2461   -0.0791 C   0  0  2  0  0  0  0  0  0  0  0  0
    0.5685   -0.7800    0.8824 C   0  0  0  0  0  0  0  0  0  0  0  0
    0.2250   -0.9092    2.0522 O   0  0  0  0  0  0  0  0  0  0  0  0
   -0.5913    1.5175    0.6419 C   0  0  0  0  0  0  0  0  0  0  0  0
   -0.7752    2.7067   -0.3048 C   0  0  0  0  0  0  0  0  0  0  0  0
   -0.0284    2.7600   -1.3192 O   0  5  0  0  0  0  0  0  0  0  0  0
   -1.5578    3.6228    0.0435 O   0  0  0  0  0  0  0  0  0  0  0  0
   -0.4870   -0.9859   -1.7163 H   0  0  0  0  0  0  0  0  0  0  0  0
    0.7724    0.5915   -0.6818 H   0  0  0  0  0  0  0  0  0  0  0  0
    0.1336    1.8184    1.4023 H   0  0  0  0  0  0  0  0  0  0  0  0
   -1.5338    1.3012    1.1517 H   0  0  0  0  0  0  0  0  0  0  0  0
    1.5759   -1.6064    0.4126 N   0  0  0  0  0  0  0  0  0  0  0  0
    2.3334   -2.5463    1.2489 C   0  0  2  0  0  0  0  0  0  0  0  0
    3.7701   -2.7556    0.7274 C   0  0  0  0  0  0  0  0  0  0  0  0
    4.0601   -2.4697   -0.4300 O   0  0  0  0  0  0  0  0  0  0  0  0
    1.5816   -3.8799    1.2829 C   0  0  0  0  0  0  0  0  0  0  0  0
    1.9647   -1.3919   -0.5038 H   0  0  0  0  0  0  0  0  0  0  0  0
    2.4113   -2.1494    2.2667 H   0  0  0  0  0  0  0  0  0  0  0  0
    1.4985   -4.2968    0.2742 H   0  0  0  0  0  0  0  0  0  0  0  0
    2.1060   -4.6005    1.9174 H   0  0  0  0  0  0  0  0  0  0  0  0
    0.5737   -3.7358    1.6849 H   0  0  0  0  0  0  0  0  0  0  0  0
    4.7437   -3.2740    1.5625 N   0  0  0  0  0  0  0  0  0  0  0  0
    6.1314   -3.4575    1.1593 C   0  0  0  0  0  0  0  0  0  0  0  0
    4.4813   -3.4608    2.5258 H   0  0  0  0  0  0  0  0  0  0  0  0
    6.1966   -4.1565    0.3189 H   0  0  0  0  0  0  0  0  0  0  0  0
    6.5732   -2.5013    0.8598 H   0  0  0  0  0  0  0  0  0  0  0  0
    6.7156   -3.8621    1.9912 H   0  0  0  0  0  0  0  0  0  0  0  0
  1  2  2  0  0  0  0
  1  3  1  0  0  0  0
  1  7  1  0  0  0  0
  3  4  1  0  0  0  0
  3  5  1  0  0  0  0
  3  6  1  0  0  0  0
  7  8  1  0  0  0  0
  7 12  1  0  0  0  0
  8  9  1  0  0  0  0
  8 11  1  0  0  0  0
  8 13  1  0  0  0  0
  9 10  2  0  0  0  0
  9 17  1  0  0  0  0
 11 14  1  0  0  0  0
 11 15  1  0  0  0  0
 11 16  1  0  0  0  0
 17 18  1  0  0  0  0
 17 25  1  0  0  0  0
 18 19  1  0  0  0  0
 18 21  1  0  0  0  0
 18 26  1  0  0  0  0
 19 20  2  0  0  0  0
 19 29  1  0  0  0  0
 21 22  1  0  0  0  0
 21 27  1  0  0  0  0
 21 28  1  0  0  0  0
 22 23  1  0  0  0  0
 22 24  2  0  0  0  0
 29 30  1  0  0  0  0
 29 34  1  0  0  0  0
 30 31  1  0  0  0  0
 30 33  1  0  0  0  0
 30 35  1  0  0  0  0
 31 32  2  0  0  0  0
 31 39  1  0  0  0  0
 33 36  1  0  0  0  0
 33 37  1  0  0  0  0
 33 38  1  0  0  0  0
 39 40  1  0  0  0  0
 39 41  1  0  0  0  0
 40 42  1  0  0  0  0
 40 43  1  0  0  0  0
 40 44  1  0  0  0  0
M  CHG  1  23  -1
M  END
$$$$

  -OEChem-05262215553D

 44 43  0     1  0  0  0  0  0999 V2000
   -4.5957    0.0252   -4.2402 C   0  0  0  0  0  0  0  0  0  0  0  0
   -4.3012   -0.9467   -4.9223 O   0  0  0  0  0  0  0  0  0  0  0  0
   -6.0060    0.5839   -4.2869 C   0  0  0  0  0  0  0  0  0  0  0  0
   -5.9805    1.6366   -4.5792 H   0  0  0  0  0  0  0  0  0  0  0  0
   -6.6090    0.0301   -5.0114 H   0  0  0  0  0  0  0  0  0  0  0  0
   -6.4701    0.4995   -3.3010 H   0  0  0  0  0  0  0  0  0  0  0  0
   -3.6636    0.6186   -3.4194 N   0  0  0  0  0  0  0  0  0  0  0  0
   -2.3668    0.0265   -3.0709 C   0  0  2  0  0  0  0  0  0  0  0  0
   -2.0993    0.1338   -1.5532 C   0  0  0  0  0  0  0  0  0  0  0  0
   -2.9802    0.5650   -0.8198 O   0  0  0  0  0  0  0  0  0  0  0  0
   -1.2853    0.7611   -3.8673 C   0  0  0  0  0  0  0  0  0  0  0  0
   -4.0194    1.3007   -2.7480 H   0  0  0  0  0  0  0  0  0  0  0  0
   -2.3503   -1.0361   -3.3323 H   0  0  0  0  0  0  0  0  0  0  0  0
   -1.2718    1.8235   -3.6006 H   0  0  0  0  0  0  0  0  0  0  0  0
   -0.2973    0.3409   -3.6584 H   0  0  0  0  0  0  0  0  0  0  0  0
   -1.4801    0.6736   -4.9404 H   0  0  0  0  0  0  0  0  0  0  0  0
   -0.9713   -0.4478   -1.0028 N   0  0  0  0  0  0  0  0  0  0  0  0
   -0.0472    0.2371   -0.0686 C   0  0  2  0  0  0  0  0  0  0  0  0
    0.5934   -0.7818    0.8985 C   0  0  0  0  0  0  0  0  0  0  0  0
    0.0703   -1.1082    1.9581 O   0  0  0  0  0  0  0  0  0  0  0  0
   -0.5440    1.5112    0.6613 C   0  0  0  0  0  0  0  0  0  0  0  0
   -0.7301    2.7052   -0.2789 C   0  0  0  0  0  0  0  0  0  0  0  0
    0.0037    2.7535   -1.3029 O   0  5  0  0  0  0  0  0  0  0  0  0
   -1.4833    3.6363    0.0936 O   0  0  0  0  0  0  0  0  0  0  0  0
   -0.4836   -1.0129   -1.6870 H   0  0  0  0  0  0  0  0  0  0  0  0
    0.7918    0.5766   -0.6835 H   0  0  0  0  0  0  0  0  0  0  0  0
    0.1929    1.8026    1.4139 H   0  0  0  0  0  0  0  0  0  0  0  0
   -1.4826    1.3012    1.1813 H   0  0  0  0  0  0  0  0  0  0  0  0
    1.7840   -1.3972    0.5497 N   0  0  0  0  0  0  0  0  0  0  0  0
    2.5272   -2.3092    1.4284 C   0  0  2  0  0  0  0  0  0  0  0  0
    4.0476   -2.2438    1.1816 C   0  0  0  0  0  0  0  0  0  0  0  0
    4.4897   -1.8250    0.1168 O   0  0  0  0  0  0  0  0  0  0  0  0
    2.0128   -3.7333    1.1990 C   0  0  0  0  0  0  0  0  0  0  0  0
    2.2834   -1.0240   -0.2566 H   0  0  0  0  0  0  0  0  0  0  0  0
    2.3569   -2.0293    2.4734 H   0  0  0  0  0  0  0  0  0  0  0  0
    2.1715   -4.0341    0.1585 H   0  0  0  0  0  0  0  0  0  0  0  0
    2.5351   -4.4395    1.8510 H   0  0  0  0  0  0  0  0  0  0  0  0
    0.9419   -3.7882    1.4189 H   0  0  0  0  0  0  0  0  0  0  0  0
    4.9254   -2.6656    2.1637 N   0  0  0  0  0  0  0  0  0  0  0  0
    6.3734   -2.5776    2.0344 C   0  0  0  0  0  0  0  0  0  0  0  0
    4.5266   -2.9518    3.0531 H   0  0  0  0  0  0  0  0  0  0  0  0
    6.7144   -3.1407    1.1596 H   0  0  0  0  0  0  0  0  0  0  0  0
    6.6851   -1.5335    1.9272 H   0  0  0  0  0  0  0  0  0  0  0  0
    6.8570   -2.9943    2.9229 H   0  0  0  0  0  0  0  0  0  0  0  0
  1  2  2  0  0  0  0
  1  3  1  0  0  0  0
  1  7  1  0  0  0  0
  3  4  1  0  0  0  0
  3  5  1  0  0  0  0
  3  6  1  0  0  0  0
  7  8  1  0  0  0  0
  7 12  1  0  0  0  0
  8  9  1  0  0  0  0
  8 11  1  0  0  0  0
  8 13  1  0  0  0  0
  9 10  2  0  0  0  0
  9 17  1  0  0  0  0
 11 14  1  0  0  0  0
 11 15  1  0  0  0  0
 11 16  1  0  0  0  0
 17 18  1  0  0  0  0
 17 25  1  0  0  0  0
 18 19  1  0  0  0  0
 18 21  1  0  0  0  0
 18 26  1  0  0  0  0
 19 20  2  0  0  0  0
 19 29  1  0  0  0  0
 21 22  1  0  0  0  0
 21 27  1  0  0  0  0
 21 28  1  0  0  0  0
 22 23  1  0  0  0  0
 22 24  2  0  0  0  0
 29 30  1  0  0  0  0
 29 34  1  0  0  0  0
 30 31  1  0  0  0  0
 30 33  1  0  0  0  0
 30 35  1  0  0  0  0
 31 32  2  0  0  0  0
 31 39  1  0  0  0  0
 33 36  1  0  0  0  0
 33 37  1  0  0  0  0
 33 38  1  0  0  0  0
 39 40  1  0  0  0  0
 39 41  1  0  0  0  0
 40 42  1  0  0  0  0
 40 43  1  0  0  0  0
 40 44  1  0  0  0  0
M  CHG  1  23  -1
M  END
$$$$

  -OEChem-05262215553D

 44 43  0     1  0  0  0  0  0999 V2000
   -4.5855   -0.0106   -4.2138 C   0  0  0  0  0  0  0  0  0  0  0  0
   -4.2943   -0.9972   -4.8757 O   0  0  0  0  0  0  0  0  0  0  0  0
   -5.9876    0.5653   -4.2911 C   0  0  0  0  0  0  0  0  0  0  0  0
   -5.9433    1.6088   -4.6126 H   0  0  0  0  0  0  0  0  0  0  0  0
   -6.5908   -0.0003   -5.0064 H   0  0  0  0  0  0  0  0  0  0  0  0
   -6.4642    0.5155   -3.3089 H   0  0  0  0  0  0  0  0  0  0  0  0
   -3.6544    0.5872   -3.3947 N   0  0  0  0  0  0  0  0  0  0  0  0
   -2.3613   -0.0060   -3.0336 C   0  0  2  0  0  0  0  0  0  0  0  0
   -2.0851    0.1412   -1.5209 C   0  0  0  0  0  0  0  0  0  0  0  0
   -2.9525    0.6179   -0.7994 O   0  0  0  0  0  0  0  0  0  0  0  0
   -1.2755    0.6964   -3.8535 C   0  0  0  0  0  0  0  0  0  0  0  0
   -4.0060    1.2872   -2.7395 H   0  0  0  0  0  0  0  0  0  0  0  0
   -2.3560   -1.0755   -3.2654 H   0  0  0  0  0  0  0  0  0  0  0  0
   -1.2464    1.7645   -3.6110 H   0  0  0  0  0  0  0  0  0  0  0  0
   -0.2915    0.2686   -3.6415 H   0  0  0  0  0  0  0  0  0  0  0  0
   -1.4780    0.5862   -4.9232 H   0  0  0  0  0  0  0  0  0  0  0  0
   -0.9567   -0.4339   -0.9642 N   0  0  0  0  0  0  0  0  0  0  0  0
   -0.0296    0.2534   -0.0356 C   0  0  2  0  0  0  0  0  0  0  0  0
    0.6154   -0.7532    0.9421 C   0  0  0  0  0  0  0  0  0  0  0  0
   -0.0281   -1.3167    1.8203 O   0  0  0  0  0  0  0  0  0  0  0  0
   -0.5200    1.5279    0.6950 C   0  0  0  0  0  0  0  0  0  0  0  0
   -0.7106    2.7229   -0.2432 C   0  0  0  0  0  0  0  0  0  0  0  0
    0.0165    2.7719   -1.2721 O   0  5  0  0  0  0  0  0  0  0  0  0
   -1.4478    3.6604    0.1453 O   0  0  0  0  0  0  0  0  0  0  0  0
   -0.4763   -1.0242   -1.6317 H   0  0  0  0  0  0  0  0  0  0  0  0
    0.8036    0.5889   -0.6600 H   0  0  0  0  0  0  0  0  0  0  0  0
    0.2204    1.8192    1.4439 H   0  0  0  0  0  0  0  0  0  0  0  0
   -1.4564    1.3189    1.2191 H   0  0  0  0  0  0  0  0  0  0  0  0
    1.9345   -1.1352    0.7642 N   0  0  0  0  0  0  0  0  0  0  0  0
    2.6521   -2.0651    1.6458 C   0  0  2  0  0  0  0  0  0  0  0  0
    4.1572   -1.7412    1.7303 C   0  0  0  0  0  0  0  0  0  0  0  0
    4.7230   -1.1662    0.8067 O   0  0  0  0  0  0  0  0  0  0  0  0
    2.4454   -3.4887    1.1203 C   0  0  0  0  0  0  0  0  0  0  0  0
    2.4949   -0.5876    0.1119 H   0  0  0  0  0  0  0  0  0  0  0  0
    2.2463   -1.9934    2.6604 H   0  0  0  0  0  0  0  0  0  0  0  0
    2.8471   -3.5834    0.1065 H   0  0  0  0  0  0  0  0  0  0  0  0
    2.9513   -4.2127    1.7659 H   0  0  0  0  0  0  0  0  0  0  0  0
    1.3786   -3.7331    1.0976 H   0  0  0  0  0  0  0  0  0  0  0  0
    4.8846   -2.1133    2.8465 N   0  0  0  0  0  0  0  0  0  0  0  0
    6.2930   -1.7890    3.0267 C   0  0  0  0  0  0  0  0  0  0  0  0
    4.3709   -2.5228    3.6213 H   0  0  0  0  0  0  0  0  0  0  0  0
    6.8877   -2.1934    2.2010 H   0  0  0  0  0  0  0  0  0  0  0  0
    6.4335   -0.7037    3.0663 H   0  0  0  0  0  0  0  0  0  0  0  0
    6.6628   -2.2212    3.9613 H   0  0  0  0  0  0  0  0  0  0  0  0
  1  2  2  0  0  0  0
  1  3  1  0  0  0  0
  1  7  1  0  0  0  0
  3  4  1  0  0  0  0
  3  5  1  0  0  0  0
  3  6  1  0  0  0  0
  7  8  1  0  0  0  0
  7 12  1  0  0  0  0
  8  9  1  0  0  0  0
  8 11  1  0  0  0  0
  8 13  1  0  0  0  0
  9 10  2  0  0  0  0
  9 17  1  0  0  0  0
 11 14  1  0  0  0  0
 11 15  1  0  0  0  0
 11 16  1  0  0  0  0
 17 18  1  0  0  0  0
 17 25  1  0  0  0  0
 18 19  1  0  0  0  0
 18 21  1  0  0  0  0
 18 26  1  0  0  0  0
 19 20  2  0  0  0  0
 19 29  1  0  0  0  0
 21 22  1  0  0  0  0
 21 27  1  0  0  0  0
 21 28  1  0  0  0  0
 22 23  1  0  0  0  0
 22 24  2  0  0  0  0
 29 30  1  0  0  0  0
 29 34  1  0  0  0  0
 30 31  1  0  0  0  0
 30 33  1  0  0  0  0
 30 35  1  0  0  0  0
 31 32  2  0  0  0  0
 31 39  1  0  0  0  0
 33 36  1  0  0  0  0
 33 37  1  0  0  0  0
 33 38  1  0  0  0  0
 39 40  1  0  0  0  0
 39 41  1  0  0  0  0
 40 42  1  0  0  0  0
 40 43  1  0  0  0  0
 40 44  1  0  0  0  0
M  CHG  1  23  -1
M  END
$$$$

  -OEChem-05262215553D

 44 43  0     1  0  0  0  0  0999 V2000
   -4.5822   -0.0105   -4.2109 C   0  0  0  0  0  0  0  0  0  0  0  0
   -4.2757   -0.9793   -4.8919 O   0  0  0  0  0  0  0  0  0  0  0  0
   -5.9931    0.5458   -4.2763 C   0  0  0  0  0  0  0  0  0  0  0  0
   -5.9629    1.6082   -4.5306 H   0  0  0  0  0  0  0  0  0  0  0  0
   -6.5745    0.0175   -5.0367 H   0  0  0  0  0  0  0  0  0  0  0  0
   -6.4842    0.4254   -3.3073 H   0  0  0  0  0  0  0  0  0  0  0  0
   -3.6624    0.5833   -3.3766 N   0  0  0  0  0  0  0  0  0  0  0  0
   -2.3572    0.0092   -3.0284 C   0  0  2  0  0  0  0  0  0  0  0  0
   -2.0781    0.1419   -1.5149 C   0  0  0  0  0  0  0  0  0  0  0  0
   -2.9334    0.6366   -0.7906 O   0  0  0  0  0  0  0  0  0  0  0  0
   -1.2877    0.7474   -3.8389 C   0  0  0  0  0  0  0  0  0  0  0  0
   -4.0244    1.2671   -2.7102 H   0  0  0  0  0  0  0  0  0  0  0  0
   -2.3315   -1.0565   -3.2760 H   0  0  0  0  0  0  0  0  0  0  0  0
   -1.2937    1.8154   -3.5943 H   0  0  0  0  0  0  0  0  0  0  0  0
   -0.2919    0.3515   -3.6191 H   0  0  0  0  0  0  0  0  0  0  0  0
   -1.4784    0.6339   -4.9104 H   0  0  0  0  0  0  0  0  0  0  0  0
   -0.9613   -0.4566   -0.9602 N   0  0  0  0  0  0  0  0  0  0  0  0
   -0.0225    0.2100   -0.0282 C   0  0  2  0  0  0  0  0  0  0  0  0
    0.6157   -0.7931    0.9563 C   0  0  0  0  0  0  0  0  0  0  0  0
   -0.0597   -1.5647    1.6287 O   0  0  0  0  0  0  0  0  0  0  0  0
   -0.4821    1.4944    0.7043 C   0  0  0  0  0  0  0  0  0  0  0  0
   -0.6422    2.6957   -0.2307 C   0  0  0  0  0  0  0  0  0  0  0  0
    0.0869    2.7295   -1.2583 O   0  5  0  0  0  0  0  0  0  0  0  0
   -1.3540    3.6506    0.1617 O   0  0  0  0  0  0  0  0  0  0  0  0
   -0.4952   -1.0648   -1.6218 H   0  0  0  0  0  0  0  0  0  0  0  0
    0.8140    0.5243   -0.6595 H   0  0  0  0  0  0  0  0  0  0  0  0
    0.2637    1.7655    1.4554 H   0  0  0  0  0  0  0  0  0  0  0  0
   -1.4248    1.3068    1.2253 H   0  0  0  0  0  0  0  0  0  0  0  0
    1.9909   -0.9526    0.9812 N   0  0  0  0  0  0  0  0  0  0  0  0
    2.6979   -1.8373    1.9165 C   0  0  2  0  0  0  0  0  0  0  0  0
    4.0734   -1.2736    2.3271 C   0  0  0  0  0  0  0  0  0  0  0  0
    4.6928   -0.5316    1.5730 O   0  0  0  0  0  0  0  0  0  0  0  0
    2.8624   -3.2084    1.2551 C   0  0  0  0  0  0  0  0  0  0  0  0
    2.5477   -0.2476    0.4981 H   0  0  0  0  0  0  0  0  0  0  0  0
    2.1067   -1.9487    2.8316 H   0  0  0  0  0  0  0  0  0  0  0  0
    3.4574   -3.1222    0.3403 H   0  0  0  0  0  0  0  0  0  0  0  0
    3.3640   -3.9037    1.9349 H   0  0  0  0  0  0  0  0  0  0  0  0
    1.8833   -3.6240    0.9966 H   0  0  0  0  0  0  0  0  0  0  0  0
    4.6285   -1.6201    3.5461 N   0  0  0  0  0  0  0  0  0  0  0  0
    5.8927   -1.0821    4.0308 C   0  0  0  0  0  0  0  0  0  0  0  0
    4.0557   -2.1731    4.1766 H   0  0  0  0  0  0  0  0  0  0  0  0
    6.6967   -1.2880    3.3164 H   0  0  0  0  0  0  0  0  0  0  0  0
    5.8173    0.0005    4.1762 H   0  0  0  0  0  0  0  0  0  0  0  0
    6.1560   -1.5433    4.9874 H   0  0  0  0  0  0  0  0  0  0  0  0
  1  2  2  0  0  0  0
  1  3  1  0  0  0  0
  1  7  1  0  0  0  0
  3  4  1  0  0  0  0
  3  5  1  0  0  0  0
  3  6  1  0  0  0  0
  7  8  1  0  0  0  0
  7 12  1  0  0  0  0
  8  9  1  0  0  0  0
  8 11  1  0  0  0  0
  8 13  1  0  0  0  0
  9 10  2  0  0  0  0
  9 17  1  0  0  0  0
 11 14  1  0  0  0  0
 11 15  1  0  0  0  0
 11 16  1  0  0  0  0
 17 18  1  0  0  0  0
 17 25  1  0  0  0  0
 18 19  1  0  0  0  0
 18 21  1  0  0  0  0
 18 26  1  0  0  0  0
 19 20  2  0  0  0  0
 19 29  1  0  0  0  0
 21 22  1  0  0  0  0
 21 27  1  0  0  0  0
 21 28  1  0  0  0  0
 22 23  1  0  0  0  0
 22 24  2  0  0  0  0
 29 30  1  0  0  0  0
 29 34  1  0  0  0  0
 30 31  1  0  0  0  0
 30 33  1  0  0  0  0
 30 35  1  0  0  0  0
 31 32  2  0  0  0  0
 31 39  1  0  0  0  0
 33 36  1  0  0  0  0
 33 37  1  0  0  0  0
 33 38  1  0  0  0  0
 39 40  1  0  0  0  0
 39 41  1  0  0  0  0
 40 42  1  0  0  0  0
 40 43  1  0  0  0  0
 40 44  1  0  0  0  0
M  CHG  1  23  -1
M  END
$$$$

  -OEChem-05262215553D

 44 43  0     1  0  0  0  0  0999 V2000
   -4.5900   -0.0490   -4.1871 C   0  0  0  0  0  0  0  0  0  0  0  0
   -4.2929   -1.0315   -4.8523 O   0  0  0  0  0  0  0  0  0  0  0  0
   -5.9941    0.5220   -4.2609 C   0  0  0  0  0  0  0  0  0  0  0  0
   -5.9506    1.5821   -4.5232 H   0  0  0  0  0  0  0  0  0  0  0  0
   -6.5793   -0.0055   -5.0188 H   0  0  0  0  0  0  0  0  0  0  0  0
   -6.4890    0.4148   -3.2922 H   0  0  0  0  0  0  0  0  0  0  0  0
   -3.6673    0.5453   -3.3569 N   0  0  0  0  0  0  0  0  0  0  0  0
   -2.3707   -0.0381   -2.9940 C   0  0  2  0  0  0  0  0  0  0  0  0
   -2.0722    0.1740   -1.4939 C   0  0  0  0  0  0  0  0  0  0  0  0
   -2.9069    0.7333   -0.7927 O   0  0  0  0  0  0  0  0  0  0  0  0
   -1.2920    0.6289   -3.8523 C   0  0  0  0  0  0  0  0  0  0  0  0
   -4.0228    1.2449   -2.7034 H   0  0  0  0  0  0  0  0  0  0  0  0
   -2.3738   -1.1162   -3.1822 H   0  0  0  0  0  0  0  0  0  0  0  0
   -1.2525    1.7044   -3.6457 H   0  0  0  0  0  0  0  0  0  0  0  0
   -0.3077    0.2012   -3.6392 H   0  0  0  0  0  0  0  0  0  0  0  0
   -1.5098    0.4853   -4.9148 H   0  0  0  0  0  0  0  0  0  0  0  0
   -0.9611   -0.4153   -0.9197 N   0  0  0  0  0  0  0  0  0  0  0  0
   -0.0172    0.2536    0.0044 C   0  0  2  0  0  0  0  0  0  0  0  0
    0.6086   -0.7393    1.0070 C   0  0  0  0  0  0  0  0  0  0  0  0
   -0.0112   -1.7097    1.4317 O   0  0  0  0  0  0  0  0  0  0  0  0
   -0.4608    1.5551    0.7151 C   0  0  0  0  0  0  0  0  0  0  0  0
   -0.6019    2.7436   -0.2399 C   0  0  0  0  0  0  0  0  0  0  0  0
    0.1299    2.7519   -1.2662 O   0  5  0  0  0  0  0  0  0  0  0  0
   -1.2927    3.7178    0.1436 O   0  0  0  0  0  0  0  0  0  0  0  0
   -0.5113   -1.0758   -1.5412 H   0  0  0  0  0  0  0  0  0  0  0  0
    0.8256    0.5439   -0.6303 H   0  0  0  0  0  0  0  0  0  0  0  0
    0.2860    1.8307    1.4638 H   0  0  0  0  0  0  0  0  0  0  0  0
   -1.4073    1.3893    1.2362 H   0  0  0  0  0  0  0  0  0  0  0  0
    1.9686   -0.6877    1.2579 N   0  0  0  0  0  0  0  0  0  0  0  0
    2.6698   -1.5859    2.1845 C   0  0  2  0  0  0  0  0  0  0  0  0
    3.7908   -0.8700    2.9640 C   0  0  0  0  0  0  0  0  0  0  0  0
    4.3579    0.1067    2.4880 O   0  0  0  0  0  0  0  0  0  0  0  0
    3.2447   -2.7524    1.3774 C   0  0  0  0  0  0  0  0  0  0  0  0
    2.4555    0.1633    0.9749 H   0  0  0  0  0  0  0  0  0  0  0  0
    1.9636   -1.9759    2.9248 H   0  0  0  0  0  0  0  0  0  0  0  0
    3.9589   -2.3864    0.6329 H   0  0  0  0  0  0  0  0  0  0  0  0
    3.7579   -3.4580    2.0372 H   0  0  0  0  0  0  0  0  0  0  0  0
    2.4417   -3.2854    0.8587 H   0  0  0  0  0  0  0  0  0  0  0  0
    4.1796   -1.3433    4.2044 N   0  0  0  0  0  0  0  0  0  0  0  0
    5.1829   -0.6872    5.0316 C   0  0  0  0  0  0  0  0  0  0  0  0
    3.6420   -2.1094    4.5985 H   0  0  0  0  0  0  0  0  0  0  0  0
    6.1235   -0.5797    4.4815 H   0  0  0  0  0  0  0  0  0  0  0  0
    4.8365    0.3056    5.3369 H   0  0  0  0  0  0  0  0  0  0  0  0
    5.3764   -1.2806    5.9303 H   0  0  0  0  0  0  0  0  0  0  0  0
  1  2  2  0  0  0  0
  1  3  1  0  0  0  0
  1  7  1  0  0  0  0
  3  4  1  0  0  0  0
  3  5  1  0  0  0  0
  3  6  1  0  0  0  0
  7  8  1  0  0  0  0
  7 12  1  0  0  0  0
  8  9  1  0  0  0  0
  8 11  1  0  0  0  0
  8 13  1  0  0  0  0
  9 10  2  0  0  0  0
  9 17  1  0  0  0  0
 11 14  1  0  0  0  0
 11 15  1  0  0  0  0
 11 16  1  0  0  0  0
 17 18  1  0  0  0  0
 17 25  1  0  0  0  0
 18 19  1  0  0  0  0
 18 21  1  0  0  0  0
 18 26  1  0  0  0  0
 19 20  2  0  0  0  0
 19 29  1  0  0  0  0
 21 22  1  0  0  0  0
 21 27  1  0  0  0  0
 21 28  1  0  0  0  0
 22 23  1  0  0  0  0
 22 24  2  0  0  0  0
 29 30  1  0  0  0  0
 29 34  1  0  0  0  0
 30 31  1  0  0  0  0
 30 33  1  0  0  0  0
 30 35  1  0  0  0  0
 31 32  2  0  0  0  0
 31 39  1  0  0  0  0
 33 36  1  0  0  0  0
 33 37  1  0  0  0  0
 33 38  1  0  0  0  0
 39 40  1  0  0  0  0
 39 41  1  0  0  0  0
 40 42  1  0  0  0  0
 40 43  1  0  0  0  0
 40 44  1  0  0  0  0
M  CHG  1  23  -1
M  END
$$$$

  -OEChem-05262215553D

 44 43  0     1  0  0  0  0  0999 V2000
   -4.6304   -0.2012   -4.1355 C   0  0  0  0  0  0  0  0  0  0  0  0
   -4.4021   -1.3015   -4.6181 O   0  0  0  0  0  0  0  0  0  0  0  0
   -5.9811    0.4563   -4.3535 C   0  0  0  0  0  0  0  0  0  0  0  0
   -5.8555    1.3914   -4.9048 H   0  0  0  0  0  0  0  0  0  0  0  0
   -6.6368   -0.2059   -4.9252 H   0  0  0  0  0  0  0  0  0  0  0  0
   -6.4492    0.6716   -3.3898 H   0  0  0  0  0  0  0  0  0  0  0  0
   -3.6705    0.4516   -3.3952 N   0  0  0  0  0  0  0  0  0  0  0  0
   -2.4128   -0.1516   -2.9383 C   0  0  2  0  0  0  0  0  0  0  0  0
   -1.9939    0.4127   -1.5617 C   0  0  0  0  0  0  0  0  0  0  0  0
   -2.7455    1.1975   -0.9997 O   0  0  0  0  0  0  0  0  0  0  0  0
   -1.3350    0.1300   -3.9905 C   0  0  0  0  0  0  0  0  0  0  0  0
   -3.9660    1.2828   -2.8799 H   0  0  0  0  0  0  0  0  0  0  0  0
   -2.5387   -1.2332   -2.8248 H   0  0  0  0  0  0  0  0  0  0  0  0
   -1.1657    1.2083   -4.0814 H   0  0  0  0  0  0  0  0  0  0  0  0
   -0.3904   -0.3476   -3.7142 H   0  0  0  0  0  0  0  0  0  0  0  0
   -1.6453   -0.2586   -4.9655 H   0  0  0  0  0  0  0  0  0  0  0  0
   -0.8796   -0.1082   -0.9287 N   0  0  0  0  0  0  0  0  0  0  0  0
    0.0074    0.5152    0.0800 C   0  0  2  0  0  0  0  0  0  0  0  0
    0.6062   -0.5445    1.0298 C   0  0  0  0  0  0  0  0  0  0  0  0
    0.1312   -1.6754    1.1038 O   0  0  0  0  0  0  0  0  0  0  0  0
   -0.4838    1.7561    0.8645 C   0  0  0  0  0  0  0  0  0  0  0  0
   -0.6105    3.0188    0.0083 C   0  0  0  0  0  0  0  0  0  0  0  0
    0.1590    3.1242   -0.9847 O   0  5  0  0  0  0  0  0  0  0  0  0
   -1.2958    3.9606    0.4769 O   0  0  0  0  0  0  0  0  0  0  0  0
   -0.4825   -0.9176   -1.3912 H   0  0  0  0  0  0  0  0  0  0  0  0
    0.8716    0.8637   -0.4941 H   0  0  0  0  0  0  0  0  0  0  0  0
    0.2218    1.9831    1.6671 H   0  0  0  0  0  0  0  0  0  0  0  0
   -1.4514    1.5359    1.3230 H   0  0  0  0  0  0  0  0  0  0  0  0
    1.8512   -0.3338    1.5959 N   0  0  0  0  0  0  0  0  0  0  0  0
    2.5558   -1.3074    2.4402 C   0  0  2  0  0  0  0  0  0  0  0  0
    3.3589   -0.6398    3.5753 C   0  0  0  0  0  0  0  0  0  0  0  0
    3.8264    0.4840    3.4339 O   0  0  0  0  0  0  0  0  0  0  0  0
    3.4868   -2.1287    1.5444 C   0  0  0  0  0  0  0  0  0  0  0  0
    2.2191    0.6178    1.5633 H   0  0  0  0  0  0  0  0  0  0  0  0
    1.8291   -1.9771    2.9115 H   0  0  0  0  0  0  0  0  0  0  0  0
    4.2267   -1.4790    1.0654 H   0  0  0  0  0  0  0  0  0  0  0  0
    4.0142   -2.8859    2.1320 H   0  0  0  0  0  0  0  0  0  0  0  0
    2.9105   -2.6358    0.7643 H   0  0  0  0  0  0  0  0  0  0  0  0
    3.5825   -1.3220    4.7583 N   0  0  0  0  0  0  0  0  0  0  0  0
    4.2850   -0.7411    5.8950 C   0  0  0  0  0  0  0  0  0  0  0  0
    3.1272   -2.2230    4.8695 H   0  0  0  0  0  0  0  0  0  0  0  0
    5.2920   -0.4253    5.6026 H   0  0  0  0  0  0  0  0  0  0  0  0
    3.7395    0.1276    6.2786 H   0  0  0  0  0  0  0  0  0  0  0  0
    4.3755   -1.4776    6.6991 H   0  0  0  0  0  0  0  0  0  0  0  0
  1  2  2  0  0  0  0
  1  3  1  0  0  0  0
  1  7  1  0  0  0  0
  3  4  1  0  0  0  0
  3  5  1  0  0  0  0
  3  6  1  0  0  0  0
  7  8  1  0  0  0  0
  7 12  1  0  0  0  0
  8  9  1  0  0  0  0
  8 11  1  0  0  0  0
  8 13  1  0  0  0  0
  9 10  2  0  0  0  0
  9 17  1  0  0  0  0
 11 14  1  0  0  0  0
 11 15  1  0  0  0  0
 11 16  1  0  0  0  0
 17 18  1  0  0  0  0
 17 25  1  0  0  0  0
 18 19  1  0  0  0  0
 18 21  1  0  0  0  0
 18 26  1  0  0  0  0
 19 20  2  0  0  0  0
 19 29  1  0  0  0  0
 21 22  1  0  0  0  0
 21 27  1  0  0  0  0
 21 28  1  0  0  0  0
 22 23  1  0  0  0  0
 22 24  2  0  0  0  0
 29 30  1  0  0  0  0
 29 34  1  0  0  0  0
 30 31  1  0  0  0  0
 30 33  1  0  0  0  0
 30 35  1  0  0  0  0
 31 32  2  0  0  0  0
 31 39  1  0  0  0  0
 33 36  1  0  0  0  0
 33 37  1  0  0  0  0
 33 38  1  0  0  0  0
 39 40  1  0  0  0  0
 39 41  1  0  0  0  0
 40 42  1  0  0  0  0
 40 43  1  0  0  0  0
 40 44  1  0  0  0  0
M  CHG  1  23  -1
M  END
$$$$

  -OEChem-05262215553D

 44 43  0     1  0  0  0  0  0999 V2000
   -4.6232   -0.2176   -4.1364 C   0  0  0  0  0  0  0  0  0  0  0  0
   -4.3944   -1.3250   -4.6017 O   0  0  0  0  0  0  0  0  0  0  0  0
   -5.9728    0.4369   -4.3690 C   0  0  0  0  0  0  0  0  0  0  0  0
   -5.8427    1.3682   -4.9254 H   0  0  0  0  0  0  0  0  0  0  0  0
   -6.6240   -0.2292   -4.9415 H   0  0  0  0  0  0  0  0  0  0  0  0
   -6.4494    0.6584   -3.4109 H   0  0  0  0  0  0  0  0  0  0  0  0
   -3.6654    0.4457   -3.4027 N   0  0  0  0  0  0  0  0  0  0  0  0
   -2.4077   -0.1494   -2.9355 C   0  0  2  0  0  0  0  0  0  0  0  0
   -1.9954    0.4292   -1.5629 C   0  0  0  0  0  0  0  0  0  0  0  0
   -2.7530    1.2151   -1.0101 O   0  0  0  0  0  0  0  0  0  0  0  0
   -1.3270    0.1247   -3.9862 C   0  0  0  0  0  0  0  0  0  0  0  0
   -3.9621    1.2842   -2.9002 H   0  0  0  0  0  0  0  0  0  0  0  0
   -2.5311   -1.2302   -2.8128 H   0  0  0  0  0  0  0  0  0  0  0  0
   -1.1592    1.2024   -4.0846 H   0  0  0  0  0  0  0  0  0  0  0  0
   -0.3831   -0.3493   -3.7019 H   0  0  0  0  0  0  0  0  0  0  0  0
   -1.6326   -0.2722   -4.9595 H   0  0  0  0  0  0  0  0  0  0  0  0
   -0.8848   -0.0847   -0.9180 N   0  0  0  0  0  0  0  0  0  0  0  0
    0.0026    0.5454    0.0864 C   0  0  2  0  0  0  0  0  0  0  0  0
    0.5876   -0.5171    1.0440 C   0  0  0  0  0  0  0  0  0  0  0  0
    0.2676   -1.7003    0.9464 O   0  0  0  0  0  0  0  0  0  0  0  0
   -0.4993    1.7958    0.8531 C   0  0  0  0  0  0  0  0  0  0  0  0
   -0.6244    3.0468   -0.0203 C   0  0  0  0  0  0  0  0  0  0  0  0
    0.1512    3.1427   -1.0092 O   0  5  0  0  0  0  0  0  0  0  0  0
   -1.3133    3.9927    0.4342 O   0  0  0  0  0  0  0  0  0  0  0  0
   -0.4884   -0.9048   -1.3637 H   0  0  0  0  0  0  0  0  0  0  0  0
    0.8748    0.8864   -0.4804 H   0  0  0  0  0  0  0  0  0  0  0  0
    0.1961    2.0411    1.6587 H   0  0  0  0  0  0  0  0  0  0  0  0
   -1.4699    1.5770    1.3067 H   0  0  0  0  0  0  0  0  0  0  0  0
    1.6657   -0.2094    1.8549 N   0  0  0  0  0  0  0  0  0  0  0  0
    2.3319   -1.1631    2.7513 C   0  0  2  0  0  0  0  0  0  0  0  0
    2.8042   -0.5108    4.0666 C   0  0  0  0  0  0  0  0  0  0  0  0
    3.1368    0.6680    4.0972 O   0  0  0  0  0  0  0  0  0  0  0  0
    3.5217   -1.7718    2.0049 C   0  0  0  0  0  0  0  0  0  0  0  0
    1.8995    0.7788    1.9572 H   0  0  0  0  0  0  0  0  0  0  0  0
    1.6333   -1.9615    3.0211 H   0  0  0  0  0  0  0  0  0  0  0  0
    4.2386   -0.9917    1.7288 H   0  0  0  0  0  0  0  0  0  0  0  0
    4.0316   -2.5087    2.6328 H   0  0  0  0  0  0  0  0  0  0  0  0
    3.1805   -2.2713    1.0927 H   0  0  0  0  0  0  0  0  0  0  0  0
    2.8858   -1.2671    5.2224 N   0  0  0  0  0  0  0  0  0  0  0  0
    3.2784   -0.7153    6.5124 C   0  0  0  0  0  0  0  0  0  0  0  0
    2.5476   -2.2236    5.1778 H   0  0  0  0  0  0  0  0  0  0  0  0
    4.2883   -0.2956    6.4576 H   0  0  0  0  0  0  0  0  0  0  0  0
    2.5834    0.0737    6.8190 H   0  0  0  0  0  0  0  0  0  0  0  0
    3.2713   -1.4995    7.2752 H   0  0  0  0  0  0  0  0  0  0  0  0
  1  2  2  0  0  0  0
  1  3  1  0  0  0  0
  1  7  1  0  0  0  0
  3  4  1  0  0  0  0
  3  5  1  0  0  0  0
  3  6  1  0  0  0  0
  7  8  1  0  0  0  0
  7 12  1  0  0  0  0
  8  9  1  0  0  0  0
  8 11  1  0  0  0  0
  8 13  1  0  0  0  0
  9 10  2  0  0  0  0
  9 17  1  0  0  0  0
 11 14  1  0  0  0  0
 11 15  1  0  0  0  0
 11 16  1  0  0  0  0
 17 18  1  0  0  0  0
 17 25  1  0  0  0  0
 18 19  1  0  0  0  0
 18 21  1  0  0  0  0
 18 26  1  0  0  0  0
 19 20  2  0  0  0  0
 19 29  1  0  0  0  0
 21 22  1  0  0  0  0
 21 27  1  0  0  0  0
 21 28  1  0  0  0  0
 22 23  1  0  0  0  0
 22 24  2  0  0  0  0
 29 30  1  0  0  0  0
 29 34  1  0  0  0  0
 30 31  1  0  0  0  0
 30 33  1  0  0  0  0
 30 35  1  0  0  0  0
 31 32  2  0  0  0  0
 31 39  1  0  0  0  0
 33 36  1  0  0  0  0
 33 37  1  0  0  0  0
 33 38  1  0  0  0  0
 39 40  1  0  0  0  0
 39 41  1  0  0  0  0
 40 42  1  0  0  0  0
 40 43  1  0  0  0  0
 40 44  1  0  0  0  0
M  CHG  1  23  -1
M  END
$$$$

  -OEChem-05262215553D

 44 43  0     1  0  0  0  0  0999 V2000
   -4.5159   -0.0873   -4.2062 C   0  0  0  0  0  0  0  0  0  0  0  0
   -4.1874   -1.0600   -4.8711 O   0  0  0  0  0  0  0  0  0  0  0  0
   -5.9233    0.4691   -4.3204 C   0  0  0  0  0  0  0  0  0  0  0  0
   -5.8853    1.5193   -4.6195 H   0  0  0  0  0  0  0  0  0  0  0  0
   -6.4933   -0.0907   -5.0665 H   0  0  0  0  0  0  0  0  0  0  0  0
   -6.4309    0.3919   -3.3555 H   0  0  0  0  0  0  0  0  0  0  0  0
   -3.6261    0.5087   -3.3416 N   0  0  0  0  0  0  0  0  0  0  0  0
   -2.3462   -0.0792   -2.9286 C   0  0  2  0  0  0  0  0  0  0  0  0
   -2.1258    0.0936   -1.4098 C   0  0  0  0  0  0  0  0  0  0  0  0
   -3.0369    0.5249   -0.7136 O   0  0  0  0  0  0  0  0  0  0  0  0
   -1.2323    0.6110   -3.7203 C   0  0  0  0  0  0  0  0  0  0  0  0
   -4.0113    1.2000   -2.6961 H   0  0  0  0  0  0  0  0  0  0  0  0
   -2.3337   -1.1525   -3.1419 H   0  0  0  0  0  0  0  0  0  0  0  0
   -1.2148    1.6830   -3.4955 H   0  0  0  0  0  0  0  0  0  0  0  0
   -0.2565    0.1890   -3.4637 H   0  0  0  0  0  0  0  0  0  0  0  0
   -1.3947    0.4813   -4.7948 H   0  0  0  0  0  0  0  0  0  0  0  0
   -1.0206   -0.4570   -0.7922 N   0  0  0  0  0  0  0  0  0  0  0  0
   -0.0665    0.2794    0.0667 C   0  0  2  0  0  0  0  0  0  0  0  0
    0.8062   -0.7074    0.8781 C   0  0  0  0  0  0  0  0  0  0  0  0
    0.8015   -1.9077    0.6104 O   0  0  0  0  0  0  0  0  0  0  0  0
   -0.6270    1.4371    0.9359 C   0  0  0  0  0  0  0  0  0  0  0  0
   -1.0769    2.6547    0.1244 C   0  0  0  0  0  0  0  0  0  0  0  0
   -0.4891    2.8688   -0.9697 O   0  5  0  0  0  0  0  0  0  0  0  0
   -1.8424    3.4721    0.6894 O   0  0  0  0  0  0  0  0  0  0  0  0
   -0.5605   -1.1632   -1.3565 H   0  0  0  0  0  0  0  0  0  0  0  0
    0.6483    0.7474   -0.6177 H   0  0  0  0  0  0  0  0  0  0  0  0
    0.1363    1.7914    1.6314 H   0  0  0  0  0  0  0  0  0  0  0  0
   -1.4719    1.0678    1.5236 H   0  0  0  0  0  0  0  0  0  0  0  0
    1.7738   -0.2502    1.7557 N   0  0  0  0  0  0  0  0  0  0  0  0
    2.6472   -1.1170    2.5583 C   0  0  2  0  0  0  0  0  0  0  0  0
    2.8442   -0.5903    3.9944 C   0  0  0  0  0  0  0  0  0  0  0  0
    2.8348    0.6128    4.2262 O   0  0  0  0  0  0  0  0  0  0  0  0
    3.9952   -1.2293    1.8426 C   0  0  0  0  0  0  0  0  0  0  0  0
    1.7317    0.7376    2.0081 H   0  0  0  0  0  0  0  0  0  0  0  0
    2.2039   -2.1144    2.6415 H   0  0  0  0  0  0  0  0  0  0  0  0
    4.4642   -0.2440    1.7540 H   0  0  0  0  0  0  0  0  0  0  0  0
    4.6696   -1.8884    2.3976 H   0  0  0  0  0  0  0  0  0  0  0  0
    3.8559   -1.6415    0.8382 H   0  0  0  0  0  0  0  0  0  0  0  0
    3.0565   -1.4792    5.0334 N   0  0  0  0  0  0  0  0  0  0  0  0
    3.1582   -1.0669    6.4272 C   0  0  0  0  0  0  0  0  0  0  0  0
    2.9830   -2.4689    4.8185 H   0  0  0  0  0  0  0  0  0  0  0  0
    3.9710   -0.3447    6.5562 H   0  0  0  0  0  0  0  0  0  0  0  0
    2.2211   -0.6077    6.7587 H   0  0  0  0  0  0  0  0  0  0  0  0
    3.3638   -1.9336    7.0625 H   0  0  0  0  0  0  0  0  0  0  0  0
  1  2  2  0  0  0  0
  1  3  1  0  0  0  0
  1  7  1  0  0  0  0
  3  4  1  0  0  0  0
  3  5  1  0  0  0  0
  3  6  1  0  0  0  0
  7  8  1  0  0  0  0
  7 12  1  0  0  0  0
  8  9  1  0  0  0  0
  8 11  1  0  0  0  0
  8 13  1  0  0  0  0
  9 10  2  0  0  0  0
  9 17  1  0  0  0  0
 11 14  1  0  0  0  0
 11 15  1  0  0  0  0
 11 16  1  0  0  0  0
 17 18  1  0  0  0  0
 17 25  1  0  0  0  0
 18 19  1  0  0  0  0
 18 21  1  0  0  0  0
 18 26  1  0  0  0  0
 19 20  2  0  0  0  0
 19 29  1  0  0  0  0
 21 22  1  0  0  0  0
 21 27  1  0  0  0  0
 21 28  1  0  0  0  0
 22 23  1  0  0  0  0
 22 24  2  0  0  0  0
 29 30  1  0  0  0  0
 29 34  1  0  0  0  0
 30 31  1  0  0  0  0
 30 33  1  0  0  0  0
 30 35  1  0  0  0  0
 31 32  2  0  0  0  0
 31 39  1  0  0  0  0
 33 36  1  0  0  0  0
 33 37  1  0  0  0  0
 33 38  1  0  0  0  0
 39 40  1  0  0  0  0
 39 41  1  0  0  0  0
 40 42  1  0  0  0  0
 40 43  1  0  0  0  0
 40 44  1  0  0  0  0
M  CHG  1  23  -1
M  END
$$$$

  -OEChem-05262215553D

 44 43  0     1  0  0  0  0  0999 V2000
   -4.5162   -0.1086   -4.2089 C   0  0  0  0  0  0  0  0  0  0  0  0
   -4.1887   -1.0929   -4.8571 O   0  0  0  0  0  0  0  0  0  0  0  0
   -5.9222    0.4490   -4.3378 C   0  0  0  0  0  0  0  0  0  0  0  0
   -5.8812    1.4847   -4.6841 H   0  0  0  0  0  0  0  0  0  0  0  0
   -6.5002   -0.1412   -5.0540 H   0  0  0  0  0  0  0  0  0  0  0  0
   -6.4245    0.4177   -3.3675 H   0  0  0  0  0  0  0  0  0  0  0  0
   -3.6264    0.5010   -3.3539 N   0  0  0  0  0  0  0  0  0  0  0  0
   -2.3467   -0.0799   -2.9309 C   0  0  2  0  0  0  0  0  0  0  0  0
   -2.1335    0.1105   -1.4134 C   0  0  0  0  0  0  0  0  0  0  0  0
   -3.0476    0.5501   -0.7259 O   0  0  0  0  0  0  0  0  0  0  0  0
   -1.2304    0.6032   -3.7249 C   0  0  0  0  0  0  0  0  0  0  0  0
   -4.0128    1.1999   -2.7177 H   0  0  0  0  0  0  0  0  0  0  0  0
   -2.3299   -1.1553   -3.1329 H   0  0  0  0  0  0  0  0  0  0  0  0
   -1.2083    1.6763   -3.5050 H   0  0  0  0  0  0  0  0  0  0  0  0
   -0.2564    0.1779   -3.4663 H   0  0  0  0  0  0  0  0  0  0  0  0
   -1.3936    0.4696   -4.7987 H   0  0  0  0  0  0  0  0  0  0  0  0
   -1.0374   -0.4401   -0.7799 N   0  0  0  0  0  0  0  0  0  0  0  0
   -0.0838    0.3029    0.0730 C   0  0  2  0  0  0  0  0  0  0  0  0
    0.7629   -0.6964    0.8965 C   0  0  0  0  0  0  0  0  0  0  0  0
    0.9118   -1.8480    0.4911 O   0  0  0  0  0  0  0  0  0  0  0  0
   -0.6418    1.4841    0.9125 C   0  0  0  0  0  0  0  0  0  0  0  0
   -1.0707    2.6879    0.0692 C   0  0  0  0  0  0  0  0  0  0  0  0
   -0.4696    2.8723   -1.0229 O   0  5  0  0  0  0  0  0  0  0  0  0
   -1.8380    3.5228    0.6056 O   0  0  0  0  0  0  0  0  0  0  0  0
   -0.5710   -1.1476   -1.3388 H   0  0  0  0  0  0  0  0  0  0  0  0
    0.6462    0.7512   -0.6085 H   0  0  0  0  0  0  0  0  0  0  0  0
    0.1194    1.8489    1.6044 H   0  0  0  0  0  0  0  0  0  0  0  0
   -1.4957    1.1372    1.5005 H   0  0  0  0  0  0  0  0  0  0  0  0
    1.5114   -0.2951    1.9889 N   0  0  0  0  0  0  0  0  0  0  0  0
    2.3442   -1.1870    2.8065 C   0  0  2  0  0  0  0  0  0  0  0  0
    2.2255   -0.8874    4.3147 C   0  0  0  0  0  0  0  0  0  0  0  0
    2.0822    0.2625    4.7129 O   0  0  0  0  0  0  0  0  0  0  0  0
    3.7946   -1.0324    2.3451 C   0  0  0  0  0  0  0  0  0  0  0  0
    1.3308    0.6427    2.3476 H   0  0  0  0  0  0  0  0  0  0  0  0
    2.0336   -2.2263    2.6599 H   0  0  0  0  0  0  0  0  0  0  0  0
    4.1308    0.0007    2.4815 H   0  0  0  0  0  0  0  0  0  0  0  0
    4.4516   -1.6924    2.9194 H   0  0  0  0  0  0  0  0  0  0  0  0
    3.8820   -1.2911    1.2852 H   0  0  0  0  0  0  0  0  0  0  0  0
    2.3120   -1.9171    5.2354 N   0  0  0  0  0  0  0  0  0  0  0  0
    2.1313   -1.7214    6.6681 C   0  0  0  0  0  0  0  0  0  0  0  0
    2.3432   -2.8641    4.8698 H   0  0  0  0  0  0  0  0  0  0  0  0
    2.8157   -0.9519    7.0404 H   0  0  0  0  0  0  0  0  0  0  0  0
    1.1031   -1.4139    6.8848 H   0  0  0  0  0  0  0  0  0  0  0  0
    2.3371   -2.6523    7.2051 H   0  0  0  0  0  0  0  0  0  0  0  0
  1  2  2  0  0  0  0
  1  3  1  0  0  0  0
  1  7  1  0  0  0  0
  3  4  1  0  0  0  0
  3  5  1  0  0  0  0
  3  6  1  0  0  0  0
  7  8  1  0  0  0  0
  7 12  1  0  0  0  0
  8  9  1  0  0  0  0
  8 11  1  0  0  0  0
  8 13  1  0  0  0  0
  9 10  2  0  0  0  0
  9 17  1  0  0  0  0
 11 14  1  0  0  0  0
 11 15  1  0  0  0  0
 11 16  1  0  0  0  0
 17 18  1  0  0  0  0
 17 25  1  0  0  0  0
 18 19  1  0  0  0  0
 18 21  1  0  0  0  0
 18 26  1  0  0  0  0
 19 20  2  0  0  0  0
 19 29  1  0  0  0  0
 21 22  1  0  0  0  0
 21 27  1  0  0  0  0
 21 28  1  0  0  0  0
 22 23  1  0  0  0  0
 22 24  2  0  0  0  0
 29 30  1  0  0  0  0
 29 34  1  0  0  0  0
 30 31  1  0  0  0  0
 30 33  1  0  0  0  0
 30 35  1  0  0  0  0
 31 32  2  0  0  0  0
 31 39  1  0  0  0  0
 33 36  1  0  0  0  0
 33 37  1  0  0  0  0
 33 38  1  0  0  0  0
 39 40  1  0  0  0  0
 39 41  1  0  0  0  0
 40 42  1  0  0  0  0
 40 43  1  0  0  0  0
 40 44  1  0  0  0  0
M  CHG  1  23  -1
M  END
$$$$

  -OEChem-05262215553D

 44 43  0     1  0  0  0  0  0999 V2000
   -4.5191   -0.1196   -4.2122 C   0  0  0  0  0  0  0  0  0  0  0  0
   -4.1996   -1.1224   -4.8357 O   0  0  0  0  0  0  0  0  0  0  0  0
   -5.9252    0.4358   -4.3424 C   0  0  0  0  0  0  0  0  0  0  0  0
   -5.8840    1.4826   -4.6536 H   0  0  0  0  0  0  0  0  0  0  0  0
   -6.4900   -0.1327   -5.0860 H   0  0  0  0  0  0  0  0  0  0  0  0
   -6.4396    0.3693   -3.3803 H   0  0  0  0  0  0  0  0  0  0  0  0
   -3.6220    0.5099   -3.3792 N   0  0  0  0  0  0  0  0  0  0  0  0
   -2.3472   -0.0714   -2.9425 C   0  0  2  0  0  0  0  0  0  0  0  0
   -2.1424    0.1254   -1.4249 C   0  0  0  0  0  0  0  0  0  0  0  0
   -3.0592    0.5659   -0.7419 O   0  0  0  0  0  0  0  0  0  0  0  0
   -1.2229    0.6014   -3.7344 C   0  0  0  0  0  0  0  0  0  0  0  0
   -4.0043    1.2242   -2.7577 H   0  0  0  0  0  0  0  0  0  0  0  0
   -2.3323   -1.1484   -3.1363 H   0  0  0  0  0  0  0  0  0  0  0  0
   -1.2066    1.6779   -3.5326 H   0  0  0  0  0  0  0  0  0  0  0  0
   -0.2508    0.1833   -3.4568 H   0  0  0  0  0  0  0  0  0  0  0  0
   -1.3724    0.4489   -4.8076 H   0  0  0  0  0  0  0  0  0  0  0  0
   -1.0512   -0.4272   -0.7855 N   0  0  0  0  0  0  0  0  0  0  0  0
   -0.0957    0.3218    0.0583 C   0  0  2  0  0  0  0  0  0  0  0  0
    0.7337   -0.6874    0.8851 C   0  0  0  0  0  0  0  0  0  0  0  0
    1.0397   -1.7662    0.3794 O   0  0  0  0  0  0  0  0  0  0  0  0
   -0.6435    1.5155    0.8869 C   0  0  0  0  0  0  0  0  0  0  0  0
   -1.0673    2.7130    0.0324 C   0  0  0  0  0  0  0  0  0  0  0  0
   -0.4697    2.8836   -1.0638 O   0  5  0  0  0  0  0  0  0  0  0  0
   -1.8273    3.5575    0.5640 O   0  0  0  0  0  0  0  0  0  0  0  0
   -0.5797   -1.1283   -1.3485 H   0  0  0  0  0  0  0  0  0  0  0  0
    0.6396    0.7583   -0.6254 H   0  0  0  0  0  0  0  0  0  0  0  0
    0.1274    1.8844    1.5664 H   0  0  0  0  0  0  0  0  0  0  0  0
   -1.4960    1.1811    1.4849 H   0  0  0  0  0  0  0  0  0  0  0  0
    1.2414   -0.3849    2.1365 N   0  0  0  0  0  0  0  0  0  0  0  0
    1.9984   -1.3211    2.9787 C   0  0  2  0  0  0  0  0  0  0  0  0
    1.5620   -1.2738    4.4573 C   0  0  0  0  0  0  0  0  0  0  0  0
    1.1903   -0.2237    4.9675 O   0  0  0  0  0  0  0  0  0  0  0  0
    3.4840   -0.9785    2.8494 C   0  0  0  0  0  0  0  0  0  0  0  0
    0.8892    0.4661    2.5761 H   0  0  0  0  0  0  0  0  0  0  0  0
    1.8405   -2.3469    2.6314 H   0  0  0  0  0  0  0  0  0  0  0  0
    3.6730    0.0414    3.1999 H   0  0  0  0  0  0  0  0  0  0  0  0
    4.0892   -1.6699    3.4431 H   0  0  0  0  0  0  0  0  0  0  0  0
    3.7989   -1.0518    1.8036 H   0  0  0  0  0  0  0  0  0  0  0  0
    1.6195   -2.4192    5.2318 N   0  0  0  0  0  0  0  0  0  0  0  0
    1.1703   -2.4696    6.6168 C   0  0  0  0  0  0  0  0  0  0  0  0
    1.8650   -3.2856    4.7627 H   0  0  0  0  0  0  0  0  0  0  0  0
    1.7509   -1.7758    7.2337 H   0  0  0  0  0  0  0  0  0  0  0  0
    0.1108   -2.2017    6.6849 H   0  0  0  0  0  0  0  0  0  0  0  0
    1.2986   -3.4793    7.0184 H   0  0  0  0  0  0  0  0  0  0  0  0
  1  2  2  0  0  0  0
  1  3  1  0  0  0  0
  1  7  1  0  0  0  0
  3  4  1  0  0  0  0
  3  5  1  0  0  0  0
  3  6  1  0  0  0  0
  7  8  1  0  0  0  0
  7 12  1  0  0  0  0
  8  9  1  0  0  0  0
  8 11  1  0  0  0  0
  8 13  1  0  0  0  0
  9 10  2  0  0  0  0
  9 17  1  0  0  0  0
 11 14  1  0  0  0  0
 11 15  1  0  0  0  0
 11 16  1  0  0  0  0
 17 18  1  0  0  0  0
 17 25  1  0  0  0  0
 18 19  1  0  0  0  0
 18 21  1  0  0  0  0
 18 26  1  0  0  0  0
 19 20  2  0  0  0  0
 19 29  1  0  0  0  0
 21 22  1  0  0  0  0
 21 27  1  0  0  0  0
 21 28  1  0  0  0  0
 22 23  1  0  0  0  0
 22 24  2  0  0  0  0
 29 30  1  0  0  0  0
 29 34  1  0  0  0  0
 30 31  1  0  0  0  0
 30 33  1  0  0  0  0
 30 35  1  0  0  0  0
 31 32  2  0  0  0  0
 31 39  1  0  0  0  0
 33 36  1  0  0  0  0
 33 37  1  0  0  0  0
 33 38  1  0  0  0  0
 39 40  1  0  0  0  0
 39 41  1  0  0  0  0
 40 42  1  0  0  0  0
 40 43  1  0  0  0  0
 40 44  1  0  0  0  0
M  CHG  1  23  -1
M  END
$$$$

  -OEChem-05262215553D

 44 43  0     1  0  0  0  0  0999 V2000
   -4.5162   -0.0934   -4.2283 C   0  0  0  0  0  0  0  0  0  0  0  0
   -4.1977   -1.0892   -4.8632 O   0  0  0  0  0  0  0  0  0  0  0  0
   -5.9139    0.4801   -4.3710 C   0  0  0  0  0  0  0  0  0  0  0  0
   -5.8569    1.5114   -4.7278 H   0  0  0  0  0  0  0  0  0  0  0  0
   -6.4959   -0.1100   -5.0843 H   0  0  0  0  0  0  0  0  0  0  0  0
   -6.4212    0.4661   -3.4030 H   0  0  0  0  0  0  0  0  0  0  0  0
   -3.6219    0.5199   -3.3805 N   0  0  0  0  0  0  0  0  0  0  0  0
   -2.3456   -0.0651   -2.9534 C   0  0  2  0  0  0  0  0  0  0  0  0
   -2.1569    0.0746   -1.4271 C   0  0  0  0  0  0  0  0  0  0  0  0
   -3.0846    0.4709   -0.7318 O   0  0  0  0  0  0  0  0  0  0  0  0
   -1.2232    0.6527   -3.7077 C   0  0  0  0  0  0  0  0  0  0  0  0
   -4.0044    1.2270   -2.7514 H   0  0  0  0  0  0  0  0  0  0  0  0
   -2.3147   -1.1332   -3.1900 H   0  0  0  0  0  0  0  0  0  0  0  0
   -1.2296    1.7226   -3.4724 H   0  0  0  0  0  0  0  0  0  0  0  0
   -0.2469    0.2449   -3.4301 H   0  0  0  0  0  0  0  0  0  0  0  0
   -1.3550    0.5320   -4.7871 H   0  0  0  0  0  0  0  0  0  0  0  0
   -1.0631   -0.4836   -0.7976 N   0  0  0  0  0  0  0  0  0  0  0  0
   -0.1099    0.2736    0.0393 C   0  0  2  0  0  0  0  0  0  0  0  0
    0.7256   -0.7307    0.8613 C   0  0  0  0  0  0  0  0  0  0  0  0
    1.1919   -1.7189    0.2980 O   0  0  0  0  0  0  0  0  0  0  0  0
   -0.6593    1.4597    0.8775 C   0  0  0  0  0  0  0  0  0  0  0  0
   -1.1036    2.6577    0.0352 C   0  0  0  0  0  0  0  0  0  0  0  0
   -0.5200    2.8394   -1.0663 O   0  5  0  0  0  0  0  0  0  0  0  0
   -1.8699    3.4896    0.5771 O   0  0  0  0  0  0  0  0  0  0  0  0
   -0.5794   -1.1536   -1.3877 H   0  0  0  0  0  0  0  0  0  0  0  0
    0.6177    0.7170   -0.6480 H   0  0  0  0  0  0  0  0  0  0  0  0
    0.1193    1.8286    1.5494 H   0  0  0  0  0  0  0  0  0  0  0  0
   -1.5024    1.1168    1.4838 H   0  0  0  0  0  0  0  0  0  0  0  0
    0.9803   -0.5546    2.2093 N   0  0  0  0  0  0  0  0  0  0  0  0
    1.6901   -1.5169    3.0612 C   0  0  2  0  0  0  0  0  0  0  0  0
    1.0020   -1.7049    4.4284 C   0  0  0  0  0  0  0  0  0  0  0  0
    0.4995   -0.7507    5.0100 O   0  0  0  0  0  0  0  0  0  0  0  0
    3.1237   -1.0149    3.2480 C   0  0  0  0  0  0  0  0  0  0  0  0
    0.4800    0.2068    2.6692 H   0  0  0  0  0  0  0  0  0  0  0  0
    1.7187   -2.4973    2.5757 H   0  0  0  0  0  0  0  0  0  0  0  0
    3.1247   -0.0341    3.7345 H   0  0  0  0  0  0  0  0  0  0  0  0
    3.6958   -1.7121    3.8673 H   0  0  0  0  0  0  0  0  0  0  0  0
    3.6215   -0.9233    2.2774 H   0  0  0  0  0  0  0  0  0  0  0  0
    0.9782   -2.9513    5.0290 N   0  0  0  0  0  0  0  0  0  0  0  0
    0.2880   -3.2152    6.2847 C   0  0  0  0  0  0  0  0  0  0  0  0
    1.3276   -3.7349    4.4856 H   0  0  0  0  0  0  0  0  0  0  0  0
    0.6857   -2.5785    7.0818 H   0  0  0  0  0  0  0  0  0  0  0  0
   -0.7844   -3.0207    6.1796 H   0  0  0  0  0  0  0  0  0  0  0  0
    0.4244   -4.2601    6.5781 H   0  0  0  0  0  0  0  0  0  0  0  0
  1  2  2  0  0  0  0
  1  3  1  0  0  0  0
  1  7  1  0  0  0  0
  3  4  1  0  0  0  0
  3  5  1  0  0  0  0
  3  6  1  0  0  0  0
  7  8  1  0  0  0  0
  7 12  1  0  0  0  0
  8  9  1  0  0  0  0
  8 11  1  0  0  0  0
  8 13  1  0  0  0  0
  9 10  2  0  0  0  0
  9 17  1  0  0  0  0
 11 14  1  0  0  0  0
 11 15  1  0  0  0  0
 11 16  1  0  0  0  0
 17 18  1  0  0  0  0
 17 25  1  0  0  0  0
 18 19  1  0  0  0  0
 18 21  1  0  0  0  0
 18 26  1  0  0  0  0
 19 20  2  0  0  0  0
 19 29  1  0  0  0  0
 21 22  1  0  0  0  0
 21 27  1  0  0  0  0
 21 28  1  0  0  0  0
 22 23  1  0  0  0  0
 22 24  2  0  0  0  0
 29 30  1  0  0  0  0
 29 34  1  0  0  0  0
 30 31  1  0  0  0  0
 30 33  1  0  0  0  0
 30 35  1  0  0  0  0
 31 32  2  0  0  0  0
 31 39  1  0  0  0  0
 33 36  1  0  0  0  0
 33 37  1  0  0  0  0
 33 38  1  0  0  0  0
 39 40  1  0  0  0  0
 39 41  1  0  0  0  0
 40 42  1  0  0  0  0
 40 43  1  0  0  0  0
 40 44  1  0  0  0  0
M  CHG  1  23  -1
M  END
$$$$

  -OEChem-05262215553D

 44 43  0     1  0  0  0  0  0999 V2000
   -4.5135   -0.0602   -4.2488 C   0  0  0  0  0  0  0  0  0  0  0  0
   -4.1949   -1.0410   -4.9069 O   0  0  0  0  0  0  0  0  0  0  0  0
   -5.9100    0.5192   -4.3827 C   0  0  0  0  0  0  0  0  0  0  0  0
   -5.8527    1.5406   -4.7673 H   0  0  0  0  0  0  0  0  0  0  0  0
   -6.5074   -0.0858   -5.0702 H   0  0  0  0  0  0  0  0  0  0  0  0
   -6.4017    0.5333   -3.4066 H   0  0  0  0  0  0  0  0  0  0  0  0
   -3.6205    0.5289   -3.3824 N   0  0  0  0  0  0  0  0  0  0  0  0
   -2.3489   -0.0721   -2.9631 C   0  0  2  0  0  0  0  0  0  0  0  0
   -2.1561    0.0549   -1.4360 C   0  0  0  0  0  0  0  0  0  0  0  0
   -3.0880    0.4277   -0.7335 O   0  0  0  0  0  0  0  0  0  0  0  0
   -1.2209    0.6358   -3.7186 C   0  0  0  0  0  0  0  0  0  0  0  0
   -4.0022    1.2242   -2.7394 H   0  0  0  0  0  0  0  0  0  0  0  0
   -2.3322   -1.1391   -3.2055 H   0  0  0  0  0  0  0  0  0  0  0  0
   -1.2174    1.7055   -3.4833 H   0  0  0  0  0  0  0  0  0  0  0  0
   -0.2480    0.2189   -3.4428 H   0  0  0  0  0  0  0  0  0  0  0  0
   -1.3559    0.5171   -4.7978 H   0  0  0  0  0  0  0  0  0  0  0  0
   -1.0576   -0.5010   -0.8126 N   0  0  0  0  0  0  0  0  0  0  0  0
   -0.1101    0.2665    0.0212 C   0  0  2  0  0  0  0  0  0  0  0  0
    0.7348   -0.7296    0.8402 C   0  0  0  0  0  0  0  0  0  0  0  0
    1.3622   -1.6043    0.2478 O   0  0  0  0  0  0  0  0  0  0  0  0
   -0.6667    1.4389    0.8726 C   0  0  0  0  0  0  0  0  0  0  0  0
   -1.1363    2.6374    0.0453 C   0  0  0  0  0  0  0  0  0  0  0  0
   -0.5676    2.8366   -1.0608 O   0  5  0  0  0  0  0  0  0  0  0  0
   -1.9120    3.4515    0.6007 O   0  0  0  0  0  0  0  0  0  0  0  0
   -0.5640   -1.1465   -1.4214 H   0  0  0  0  0  0  0  0  0  0  0  0
    0.6085    0.7237   -0.6672 H   0  0  0  0  0  0  0  0  0  0  0  0
    0.1152    1.8065    1.5415 H   0  0  0  0  0  0  0  0  0  0  0  0
   -1.5006    1.0809    1.4831 H   0  0  0  0  0  0  0  0  0  0  0  0
    0.7420   -0.7237    2.2234 N   0  0  0  0  0  0  0  0  0  0  0  0
    1.3892   -1.7401    3.0627 C   0  0  2  0  0  0  0  0  0  0  0  0
    0.4917   -2.1887    4.2342 C   0  0  0  0  0  0  0  0  0  0  0  0
   -0.1839   -1.3732    4.8504 O   0  0  0  0  0  0  0  0  0  0  0  0
    2.7026   -1.1545    3.5850 C   0  0  0  0  0  0  0  0  0  0  0  0
    0.0985   -0.0732    2.6755 H   0  0  0  0  0  0  0  0  0  0  0  0
    1.6135   -2.6312    2.4681 H   0  0  0  0  0  0  0  0  0  0  0  0
    2.5103   -0.2609    4.1877 H   0  0  0  0  0  0  0  0  0  0  0  0
    3.2283   -1.8872    4.2043 H   0  0  0  0  0  0  0  0  0  0  0  0
    3.3515   -0.8780    2.7482 H   0  0  0  0  0  0  0  0  0  0  0  0
    0.4693   -3.5162    4.6245 N   0  0  0  0  0  0  0  0  0  0  0  0
   -0.4139   -4.0225    5.6670 C   0  0  0  0  0  0  0  0  0  0  0  0
    0.9663   -4.1795    4.0378 H   0  0  0  0  0  0  0  0  0  0  0  0
   -0.2416   -3.4901    6.6082 H   0  0  0  0  0  0  0  0  0  0  0  0
   -1.4614   -3.8940    5.3754 H   0  0  0  0  0  0  0  0  0  0  0  0
   -0.2279   -5.0872    5.8358 H   0  0  0  0  0  0  0  0  0  0  0  0
  1  2  2  0  0  0  0
  1  3  1  0  0  0  0
  1  7  1  0  0  0  0
  3  4  1  0  0  0  0
  3  5  1  0  0  0  0
  3  6  1  0  0  0  0
  7  8  1  0  0  0  0
  7 12  1  0  0  0  0
  8  9  1  0  0  0  0
  8 11  1  0  0  0  0
  8 13  1  0  0  0  0
  9 10  2  0  0  0  0
  9 17  1  0  0  0  0
 11 14  1  0  0  0  0
 11 15  1  0  0  0  0
 11 16  1  0  0  0  0
 17 18  1  0  0  0  0
 17 25  1  0  0  0  0
 18 19  1  0  0  0  0
 18 21  1  0  0  0  0
 18 26  1  0  0  0  0
 19 20  2  0  0  0  0
 19 29  1  0  0  0  0
 21 22  1  0  0  0  0
 21 27  1  0  0  0  0
 21 28  1  0  0  0  0
 22 23  1  0  0  0  0
 22 24  2  0  0  0  0
 29 30  1  0  0  0  0
 29 34  1  0  0  0  0
 30 31  1  0  0  0  0
 30 33  1  0  0  0  0
 30 35  1  0  0  0  0
 31 32  2  0  0  0  0
 31 39  1  0  0  0  0
 33 36  1  0  0  0  0
 33 37  1  0  0  0  0
 33 38  1  0  0  0  0
 39 40  1  0  0  0  0
 39 41  1  0  0  0  0
 40 42  1  0  0  0  0
 40 43  1  0  0  0  0
 40 44  1  0  0  0  0
M  CHG  1  23  -1
M  END
$$$$

  -OEChem-05262215553D

 44 43  0     1  0  0  0  0  0999 V2000
   -4.5213   -0.0456   -4.2473 C   0  0  0  0  0  0  0  0  0  0  0  0
   -4.2289   -1.0478   -4.8849 O   0  0  0  0  0  0  0  0  0  0  0  0
   -5.9145    0.5447   -4.3629 C   0  0  0  0  0  0  0  0  0  0  0  0
   -5.8524    1.5770   -4.7159 H   0  0  0  0  0  0  0  0  0  0  0  0
   -6.5145   -0.0358   -5.0688 H   0  0  0  0  0  0  0  0  0  0  0  0
   -6.4058    0.5316   -3.3866 H   0  0  0  0  0  0  0  0  0  0  0  0
   -3.6018    0.5602   -3.4211 N   0  0  0  0  0  0  0  0  0  0  0  0
   -2.3356   -0.0514   -3.0008 C   0  0  2  0  0  0  0  0  0  0  0  0
   -2.1542    0.0537   -1.4707 C   0  0  0  0  0  0  0  0  0  0  0  0
   -3.0903    0.4185   -0.7700 O   0  0  0  0  0  0  0  0  0  0  0  0
   -1.2013    0.6633   -3.7396 C   0  0  0  0  0  0  0  0  0  0  0  0
   -3.9678    1.2707   -2.7858 H   0  0  0  0  0  0  0  0  0  0  0  0
   -2.3180   -1.1146   -3.2586 H   0  0  0  0  0  0  0  0  0  0  0  0
   -1.1918    1.7288   -3.4862 H   0  0  0  0  0  0  0  0  0  0  0  0
   -0.2317    0.2354   -3.4685 H   0  0  0  0  0  0  0  0  0  0  0  0
   -1.3343    0.5640   -4.8212 H   0  0  0  0  0  0  0  0  0  0  0  0
   -1.0667   -0.5207   -0.8445 N   0  0  0  0  0  0  0  0  0  0  0  0
   -0.1125    0.2382   -0.0113 C   0  0  2  0  0  0  0  0  0  0  0  0
    0.7176   -0.7611    0.8153 C   0  0  0  0  0  0  0  0  0  0  0  0
    1.4995   -1.5106    0.2369 O   0  0  0  0  0  0  0  0  0  0  0  0
   -0.6596    1.4066    0.8504 C   0  0  0  0  0  0  0  0  0  0  0  0
   -1.1297    2.6142    0.0380 C   0  0  0  0  0  0  0  0  0  0  0  0
   -0.5680    2.8220   -1.0698 O   0  5  0  0  0  0  0  0  0  0  0  0
   -1.9009    3.4243    0.6055 O   0  0  0  0  0  0  0  0  0  0  0  0
   -0.5763   -1.1587   -1.4629 H   0  0  0  0  0  0  0  0  0  0  0  0
    0.6096    0.6931   -0.6985 H   0  0  0  0  0  0  0  0  0  0  0  0
    0.1272    1.7595    1.5219 H   0  0  0  0  0  0  0  0  0  0  0  0
   -1.4949    1.0485    1.4588 H   0  0  0  0  0  0  0  0  0  0  0  0
    0.4889   -0.9454    2.1667 N   0  0  0  0  0  0  0  0  0  0  0  0
    1.1042   -1.9944    2.9893 C   0  0  2  0  0  0  0  0  0  0  0  0
    0.0800   -2.7029    3.8991 C   0  0  0  0  0  0  0  0  0  0  0  0
   -0.7598   -2.0578    4.5153 O   0  0  0  0  0  0  0  0  0  0  0  0
    2.2101   -1.3485    3.8263 C   0  0  0  0  0  0  0  0  0  0  0  0
   -0.2771   -0.4071    2.5725 H   0  0  0  0  0  0  0  0  0  0  0  0
    1.5517   -2.7609    2.3491 H   0  0  0  0  0  0  0  0  0  0  0  0
    1.7938   -0.5749    4.4799 H   0  0  0  0  0  0  0  0  0  0  0  0
    2.7069   -2.1000    4.4471 H   0  0  0  0  0  0  0  0  0  0  0  0
    2.9578   -0.8876    3.1731 H   0  0  0  0  0  0  0  0  0  0  0  0
    0.1279   -4.0766    4.0598 N   0  0  0  0  0  0  0  0  0  0  0  0
   -0.8537   -4.8195    4.8394 C   0  0  0  0  0  0  0  0  0  0  0  0
    0.7734   -4.5892    3.4667 H   0  0  0  0  0  0  0  0  0  0  0  0
   -0.8729   -4.4612    5.8740 H   0  0  0  0  0  0  0  0  0  0  0  0
   -1.8525   -4.7023    4.4063 H   0  0  0  0  0  0  0  0  0  0  0  0
   -0.6013   -5.8840    4.8483 H   0  0  0  0  0  0  0  0  0  0  0  0
  1  2  2  0  0  0  0
  1  3  1  0  0  0  0
  1  7  1  0  0  0  0
  3  4  1  0  0  0  0
  3  5  1  0  0  0  0
  3  6  1  0  0  0  0
  7  8  1  0  0  0  0
  7 12  1  0  0  0  0
  8  9  1  0  0  0  0
  8 11  1  0  0  0  0
  8 13  1  0  0  0  0
  9 10  2  0  0  0  0
  9 17  1  0  0  0  0
 11 14  1  0  0  0  0
 11 15  1  0  0  0  0
 11 16  1  0  0  0  0
 17 18  1  0  0  0  0
 17 25  1  0  0  0  0
 18 19  1  0  0  0  0
 18 21  1  0  0  0  0
 18 26  1  0  0  0  0
 19 20  2  0  0  0  0
 19 29  1  0  0  0  0
 21 22  1  0  0  0  0
 21 27  1  0  0  0  0
 21 28  1  0  0  0  0
 22 23  1  0  0  0  0
 22 24  2  0  0  0  0
 29 30  1  0  0  0  0
 29 34  1  0  0  0  0
 30 31  1  0  0  0  0
 30 33  1  0  0  0  0
 30 35  1  0  0  0  0
 31 32  2  0  0  0  0
 31 39  1  0  0  0  0
 33 36  1  0  0  0  0
 33 37  1  0  0  0  0
 33 38  1  0  0  0  0
 39 40  1  0  0  0  0
 39 41  1  0  0  0  0
 40 42  1  0  0  0  0
 40 43  1  0  0  0  0
 40 44  1  0  0  0  0
M  CHG  1  23  -1
M  END
$$$$

  -OEChem-05262215553D

 44 43  0     1  0  0  0  0  0999 V2000
   -4.5306   -0.0178   -4.2631 C   0  0  0  0  0  0  0  0  0  0  0  0
   -4.2342   -1.0113   -4.9124 O   0  0  0  0  0  0  0  0  0  0  0  0
   -5.9221    0.5760   -4.3808 C   0  0  0  0  0  0  0  0  0  0  0  0
   -5.8575    1.6015   -4.7524 H   0  0  0  0  0  0  0  0  0  0  0  0
   -6.5294   -0.0145   -5.0719 H   0  0  0  0  0  0  0  0  0  0  0  0
   -6.4074    0.5822   -3.4015 H   0  0  0  0  0  0  0  0  0  0  0  0
   -3.6170    0.5738   -3.4203 N   0  0  0  0  0  0  0  0  0  0  0  0
   -2.3506   -0.0410   -3.0054 C   0  0  2  0  0  0  0  0  0  0  0  0
   -2.1606    0.0627   -1.4759 C   0  0  0  0  0  0  0  0  0  0  0  0
   -3.0905    0.4310   -0.7689 O   0  0  0  0  0  0  0  0  0  0  0  0
   -1.2178    0.6699   -3.7504 C   0  0  0  0  0  0  0  0  0  0  0  0
   -3.9829    1.2812   -2.7816 H   0  0  0  0  0  0  0  0  0  0  0  0
   -2.3391   -1.1046   -3.2631 H   0  0  0  0  0  0  0  0  0  0  0  0
   -1.2092    1.7365   -3.5025 H   0  0  0  0  0  0  0  0  0  0  0  0
   -0.2472    0.2449   -3.4788 H   0  0  0  0  0  0  0  0  0  0  0  0
   -1.3526    0.5651   -4.8311 H   0  0  0  0  0  0  0  0  0  0  0  0
   -1.0801   -0.5300   -0.8548 N   0  0  0  0  0  0  0  0  0  0  0  0
   -0.1027    0.2204   -0.0412 C   0  0  2  0  0  0  0  0  0  0  0  0
    0.7172   -0.7799    0.7915 C   0  0  0  0  0  0  0  0  0  0  0  0
    1.6395   -1.3924    0.2622 O   0  0  0  0  0  0  0  0  0  0  0  0
   -0.6234    1.3943    0.8275 C   0  0  0  0  0  0  0  0  0  0  0  0
   -1.0976    2.6049    0.0228 C   0  0  0  0  0  0  0  0  0  0  0  0
   -0.5544    2.8067   -1.0951 O   0  5  0  0  0  0  0  0  0  0  0  0
   -1.8532    3.4210    0.6026 O   0  0  0  0  0  0  0  0  0  0  0  0
   -0.6078   -1.1720   -1.4826 H   0  0  0  0  0  0  0  0  0  0  0  0
    0.6163    0.6635   -0.7393 H   0  0  0  0  0  0  0  0  0  0  0  0
    0.1779    1.7372    1.4872 H   0  0  0  0  0  0  0  0  0  0  0  0
   -1.4514    1.0449    1.4508 H   0  0  0  0  0  0  0  0  0  0  0  0
    0.2997   -1.1569    2.0550 N   0  0  0  0  0  0  0  0  0  0  0  0
    0.8775   -2.2549    2.8405 C   0  0  2  0  0  0  0  0  0  0  0  0
   -0.1991   -3.2031    3.4065 C   0  0  0  0  0  0  0  0  0  0  0  0
   -1.2186   -2.7580    3.9196 O   0  0  0  0  0  0  0  0  0  0  0  0
    1.7031   -1.6407    3.9724 C   0  0  0  0  0  0  0  0  0  0  0  0
   -0.5749   -0.7444    2.3812 H   0  0  0  0  0  0  0  0  0  0  0  0
    1.5417   -2.8578    2.2140 H   0  0  0  0  0  0  0  0  0  0  0  0
    1.0675   -1.0333    4.6249 H   0  0  0  0  0  0  0  0  0  0  0  0
    2.1701   -2.4270    4.5728 H   0  0  0  0  0  0  0  0  0  0  0  0
    2.4913   -1.0024    3.5610 H   0  0  0  0  0  0  0  0  0  0  0  0
    0.0010   -4.5720    3.3779 N   0  0  0  0  0  0  0  0  0  0  0  0
   -1.0029   -5.5316    3.8184 C   0  0  0  0  0  0  0  0  0  0  0  0
    0.8091   -4.9094    2.8639 H   0  0  0  0  0  0  0  0  0  0  0  0
   -1.2987   -5.3316    4.8537 H   0  0  0  0  0  0  0  0  0  0  0  0
   -1.8908   -5.4750    3.1801 H   0  0  0  0  0  0  0  0  0  0  0  0
   -0.6008   -6.5478    3.7665 H   0  0  0  0  0  0  0  0  0  0  0  0
  1  2  2  0  0  0  0
  1  3  1  0  0  0  0
  1  7  1  0  0  0  0
  3  4  1  0  0  0  0
  3  5  1  0  0  0  0
  3  6  1  0  0  0  0
  7  8  1  0  0  0  0
  7 12  1  0  0  0  0
  8  9  1  0  0  0  0
  8 11  1  0  0  0  0
  8 13  1  0  0  0  0
  9 10  2  0  0  0  0
  9 17  1  0  0  0  0
 11 14  1  0  0  0  0
 11 15  1  0  0  0  0
 11 16  1  0  0  0  0
 17 18  1  0  0  0  0
 17 25  1  0  0  0  0
 18 19  1  0  0  0  0
 18 21  1  0  0  0  0
 18 26  1  0  0  0  0
 19 20  2  0  0  0  0
 19 29  1  0  0  0  0
 21 22  1  0  0  0  0
 21 27  1  0  0  0  0
 21 28  1  0  0  0  0
 22 23  1  0  0  0  0
 22 24  2  0  0  0  0
 29 30  1  0  0  0  0
 29 34  1  0  0  0  0
 30 31  1  0  0  0  0
 30 33  1  0  0  0  0
 30 35  1  0  0  0  0
 31 32  2  0  0  0  0
 31 39  1  0  0  0  0
 33 36  1  0  0  0  0
 33 37  1  0  0  0  0
 33 38  1  0  0  0  0
 39 40  1  0  0  0  0
 39 41  1  0  0  0  0
 40 42  1  0  0  0  0
 40 43  1  0  0  0  0
 40 44  1  0  0  0  0
M  CHG  1  23  -1
M  END
$$$$

  -OEChem-05262215553D

 44 43  0     1  0  0  0  0  0999 V2000
   -4.7229    0.1644   -3.9687 C   0  0  0  0  0  0  0  0  0  0  0  0
   -4.8375   -0.9833   -4.3761 O   0  0  0  0  0  0  0  0  0  0  0  0
   -5.8590    1.1526   -4.1580 C   0  0  0  0  0  0  0  0  0  0  0  0
   -5.5138    2.0085   -4.7433 H   0  0  0  0  0  0  0  0  0  0  0  0
   -6.6918    0.6771   -4.6832 H   0  0  0  0  0  0  0  0  0  0  0  0
   -6.2095    1.5053   -3.1845 H   0  0  0  0  0  0  0  0  0  0  0  0
   -3.5721    0.5764   -3.3355 N   0  0  0  0  0  0  0  0  0  0  0  0
   -2.5369   -0.3326   -2.8290 C   0  0  2  0  0  0  0  0  0  0  0  0
   -2.2046   -0.0182   -1.3533 C   0  0  0  0  0  0  0  0  0  0  0  0
   -2.9493    0.6979   -0.6953 O   0  0  0  0  0  0  0  0  0  0  0  0
   -1.3041   -0.1832   -3.7247 C   0  0  0  0  0  0  0  0  0  0  0  0
   -3.6199    1.4813   -2.8657 H   0  0  0  0  0  0  0  0  0  0  0  0
   -2.8826   -1.3700   -2.8679 H   0  0  0  0  0  0  0  0  0  0  0  0
   -0.9463    0.8517   -3.7121 H   0  0  0  0  0  0  0  0  0  0  0  0
   -0.4932   -0.8332   -3.3839 H   0  0  0  0  0  0  0  0  0  0  0  0
   -1.5527   -0.4516   -4.7558 H   0  0  0  0  0  0  0  0  0  0  0  0
   -1.2815   -0.7651   -0.6505 N   0  0  0  0  0  0  0  0  0  0  0  0
   -0.0655   -0.1718   -0.0560 C   0  0  2  0  0  0  0  0  0  0  0  0
    0.5271   -1.1650    0.9556 C   0  0  0  0  0  0  0  0  0  0  0  0
    1.4115   -1.9484    0.6251 O   0  0  0  0  0  0  0  0  0  0  0  0
   -0.1739    1.2426    0.5678 C   0  0  0  0  0  0  0  0  0  0  0  0
   -0.3937    2.3610   -0.4502 C   0  0  0  0  0  0  0  0  0  0  0  0
    0.0693    2.1900   -1.6080 O   0  5  0  0  0  0  0  0  0  0  0  0
   -0.8649    3.4422   -0.0247 O   0  0  0  0  0  0  0  0  0  0  0  0
   -1.0605   -1.6183   -1.1525 H   0  0  0  0  0  0  0  0  0  0  0  0
    0.6771   -0.0927   -0.8583 H   0  0  0  0  0  0  0  0  0  0  0  0
    0.7508    1.4697    1.1047 H   0  0  0  0  0  0  0  0  0  0  0  0
   -0.9976    1.2606    1.2868 H   0  0  0  0  0  0  0  0  0  0  0  0
   -0.0818   -1.3316    2.1847 N   0  0  0  0  0  0  0  0  0  0  0  0
    0.3968   -2.2250    3.2505 C   0  0  2  0  0  0  0  0  0  0  0  0
   -0.0044   -3.7073    3.0374 C   0  0  0  0  0  0  0  0  0  0  0  0
   -0.5288   -4.3721    3.9253 O   0  0  0  0  0  0  0  0  0  0  0  0
   -0.1221   -1.6527    4.5754 C   0  0  0  0  0  0  0  0  0  0  0  0
   -0.8750   -0.7208    2.3721 H   0  0  0  0  0  0  0  0  0  0  0  0
    1.4910   -2.1926    3.2770 H   0  0  0  0  0  0  0  0  0  0  0  0
   -1.2156   -1.6935    4.6095 H   0  0  0  0  0  0  0  0  0  0  0  0
    0.2735   -2.2275    5.4184 H   0  0  0  0  0  0  0  0  0  0  0  0
    0.1935   -0.6111    4.6904 H   0  0  0  0  0  0  0  0  0  0  0  0
    0.2756   -4.3147    1.8292 N   0  0  0  0  0  0  0  0  0  0  0  0
   -0.0297   -5.7018    1.5141 C   0  0  0  0  0  0  0  0  0  0  0  0
    0.7552   -3.7314    1.1379 H   0  0  0  0  0  0  0  0  0  0  0  0
    0.4910   -6.3749    2.2027 H   0  0  0  0  0  0  0  0  0  0  0  0
   -1.1070   -5.8817    1.5889 H   0  0  0  0  0  0  0  0  0  0  0  0
    0.2901   -5.9343    0.4941 H   0  0  0  0  0  0  0  0  0  0  0  0
  1  2  2  0  0  0  0
  1  3  1  0  0  0  0
  1  7  1  0  0  0  0
  3  4  1  0  0  0  0
  3  5  1  0  0  0  0
  3  6  1  0  0  0  0
  7  8  1  0  0  0  0
  7 12  1  0  0  0  0
  8  9  1  0  0  0  0
  8 11  1  0  0  0  0
  8 13  1  0  0  0  0
  9 10  2  0  0  0  0
  9 17  1  0  0  0  0
 11 14  1  0  0  0  0
 11 15  1  0  0  0  0
 11 16  1  0  0  0  0
 17 18  1  0  0  0  0
 17 25  1  0  0  0  0
 18 19  1  0  0  0  0
 18 21  1  0  0  0  0
 18 26  1  0  0  0  0
 19 20  2  0  0  0  0
 19 29  1  0  0  0  0
 21 22  1  0  0  0  0
 21 27  1  0  0  0  0
 21 28  1  0  0  0  0
 22 23  1  0  0  0  0
 22 24  2  0  0  0  0
 29 30  1  0  0  0  0
 29 34  1  0  0  0  0
 30 31  1  0  0  0  0
 30 33  1  0  0  0  0
 30 35  1  0  0  0  0
 31 32  2  0  0  0  0
 31 39  1  0  0  0  0
 33 36  1  0  0  0  0
 33 37  1  0  0  0  0
 33 38  1  0  0  0  0
 39 40  1  0  0  0  0
 39 41  1  0  0  0  0
 40 42  1  0  0  0  0
 40 43  1  0  0  0  0
 40 44  1  0  0  0  0
M  CHG  1  23  -1
M  END
$$$$

  -OEChem-05262215553D

 44 43  0     1  0  0  0  0  0999 V2000
   -3.8874    1.0193   -4.2258 C   0  0  0  0  0  0  0  0  0  0  0  0
   -4.6996    0.3203   -4.8184 O   0  0  0  0  0  0  0  0  0  0  0  0
   -3.6659    2.4590   -4.6498 C   0  0  0  0  0  0  0  0  0  0  0  0
   -2.6904    2.5579   -5.1316 H   0  0  0  0  0  0  0  0  0  0  0  0
   -4.4449    2.7744   -5.3487 H   0  0  0  0  0  0  0  0  0  0  0  0
   -3.6926    3.1108   -3.7718 H   0  0  0  0  0  0  0  0  0  0  0  0
   -3.1461    0.5041   -3.1880 N   0  0  0  0  0  0  0  0  0  0  0  0
   -3.4629   -0.7453   -2.4900 C   0  0  2  0  0  0  0  0  0  0  0  0
   -3.0900   -0.6309   -0.9969 C   0  0  0  0  0  0  0  0  0  0  0  0
   -3.9214   -0.2894   -0.1708 O   0  0  0  0  0  0  0  0  0  0  0  0
   -2.7346   -1.8961   -3.1963 C   0  0  0  0  0  0  0  0  0  0  0  0
   -2.5861    1.1997   -2.6713 H   0  0  0  0  0  0  0  0  0  0  0  0
   -4.5419   -0.9294   -2.5319 H   0  0  0  0  0  0  0  0  0  0  0  0
   -1.6554   -1.7147   -3.2224 H   0  0  0  0  0  0  0  0  0  0  0  0
   -2.9252   -2.8427   -2.6817 H   0  0  0  0  0  0  0  0  0  0  0  0
   -3.0923   -1.9876   -4.2268 H   0  0  0  0  0  0  0  0  0  0  0  0
   -1.8905   -1.0963   -0.4993 N   0  0  0  0  0  0  0  0  0  0  0  0
   -0.7916   -0.1898   -0.1038 C   0  0  2  0  0  0  0  0  0  0  0  0
    0.2127   -0.9841    0.7450 C   0  0  0  0  0  0  0  0  0  0  0  0
    1.3194   -1.2816    0.3079 O   0  0  0  0  0  0  0  0  0  0  0  0
   -1.1631    1.1355    0.6061 C   0  0  0  0  0  0  0  0  0  0  0  0
   -1.8689    2.1566   -0.2839 C   0  0  0  0  0  0  0  0  0  0  0  0
   -1.6070    2.1319   -1.5167 O   0  5  0  0  0  0  0  0  0  0  0  0
   -2.5401    3.0512    0.2774 O   0  0  0  0  0  0  0  0  0  0  0  0
   -1.5381   -1.8273   -1.1078 H   0  0  0  0  0  0  0  0  0  0  0  0
   -0.2565    0.0905   -1.0183 H   0  0  0  0  0  0  0  0  0  0  0  0
   -0.2510    1.6080    0.9800 H   0  0  0  0  0  0  0  0  0  0  0  0
   -1.8074    0.9171    1.4622 H   0  0  0  0  0  0  0  0  0  0  0  0
   -0.2164   -1.5647    1.9229 N   0  0  0  0  0  0  0  0  0  0  0  0
    0.6070   -2.4140    2.7959 C   0  0  2  0  0  0  0  0  0  0  0  0
    0.7319   -3.8703    2.2798 C   0  0  0  0  0  0  0  0  0  0  0  0
    0.4836   -4.8374    2.9926 O   0  0  0  0  0  0  0  0  0  0  0  0
    0.0052   -2.3277    4.2036 C   0  0  0  0  0  0  0  0  0  0  0  0
   -1.1846   -1.3801    2.1809 H   0  0  0  0  0  0  0  0  0  0  0  0
    1.6211   -2.0031    2.8400 H   0  0  0  0  0  0  0  0  0  0  0  0
   -1.0065   -2.7457    4.2149 H   0  0  0  0  0  0  0  0  0  0  0  0
    0.6208   -2.8868    4.9150 H   0  0  0  0  0  0  0  0  0  0  0  0
   -0.0424   -1.2855    4.5344 H   0  0  0  0  0  0  0  0  0  0  0  0
    1.1663   -4.0895    0.9872 N   0  0  0  0  0  0  0  0  0  0  0  0
    1.3442   -5.4042    0.3904 C   0  0  0  0  0  0  0  0  0  0  0  0
    1.4028   -3.2520    0.4478 H   0  0  0  0  0  0  0  0  0  0  0  0
    2.0980   -5.9757    0.9413 H   0  0  0  0  0  0  0  0  0  0  0  0
    0.4007   -5.9596    0.4006 H   0  0  0  0  0  0  0  0  0  0  0  0
    1.6749   -5.3034   -0.6477 H   0  0  0  0  0  0  0  0  0  0  0  0
  1  2  2  0  0  0  0
  1  3  1  0  0  0  0
  1  7  1  0  0  0  0
  3  4  1  0  0  0  0
  3  5  1  0  0  0  0
  3  6  1  0  0  0  0
  7  8  1  0  0  0  0
  7 12  1  0  0  0  0
  8  9  1  0  0  0  0
  8 11  1  0  0  0  0
  8 13  1  0  0  0  0
  9 10  2  0  0  0  0
  9 17  1  0  0  0  0
 11 14  1  0  0  0  0
 11 15  1  0  0  0  0
 11 16  1  0  0  0  0
 17 18  1  0  0  0  0
 17 25  1  0  0  0  0
 18 19  1  0  0  0  0
 18 21  1  0  0  0  0
 18 26  1  0  0  0  0
 19 20  2  0  0  0  0
 19 29  1  0  0  0  0
 21 22  1  0  0  0  0
 21 27  1  0  0  0  0
 21 28  1  0  0  0  0
 22 23  1  0  0  0  0
 22 24  2  0  0  0  0
 29 30  1  0  0  0  0
 29 34  1  0  0  0  0
 30 31  1  0  0  0  0
 30 33  1  0  0  0  0
 30 35  1  0  0  0  0
 31 32  2  0  0  0  0
 31 39  1  0  0  0  0
 33 36  1  0  0  0  0
 33 37  1  0  0  0  0
 33 38  1  0  0  0  0
 39 40  1  0  0  0  0
 39 41  1  0  0  0  0
 40 42  1  0  0  0  0
 40 43  1  0  0  0  0
 40 44  1  0  0  0  0
M  CHG  1  23  -1
M  END
$$$$

  -OEChem-05262215553D

 44 43  0     1  0  0  0  0  0999 V2000
   -4.3116    0.9062   -3.8779 C   0  0  0  0  0  0  0  0  0  0  0  0
   -5.1994    0.1537   -4.2611 O   0  0  0  0  0  0  0  0  0  0  0  0
   -4.4234    2.4000   -4.1187 C   0  0  0  0  0  0  0  0  0  0  0  0
   -3.6981    2.7107   -4.8740 H   0  0  0  0  0  0  0  0  0  0  0  0
   -5.4295    2.6573   -4.4590 H   0  0  0  0  0  0  0  0  0  0  0  0
   -4.2163    2.9390   -3.1891 H   0  0  0  0  0  0  0  0  0  0  0  0
   -3.1830    0.4124   -3.2652 N   0  0  0  0  0  0  0  0  0  0  0  0
   -3.1332   -0.8823   -2.5783 C   0  0  2  0  0  0  0  0  0  0  0  0
   -2.8341   -0.6590   -1.0802 C   0  0  0  0  0  0  0  0  0  0  0  0
   -3.7045   -0.2637   -0.3193 O   0  0  0  0  0  0  0  0  0  0  0  0
   -2.0789   -1.7463   -3.2797 C   0  0  0  0  0  0  0  0  0  0  0  0
   -2.5642    1.1448   -2.8849 H   0  0  0  0  0  0  0  0  0  0  0  0
   -4.1001   -1.3930   -2.6373 H   0  0  0  0  0  0  0  0  0  0  0  0
   -1.0983   -1.2598   -3.2501 H   0  0  0  0  0  0  0  0  0  0  0  0
   -2.0035   -2.7259   -2.7977 H   0  0  0  0  0  0  0  0  0  0  0  0
   -2.3577   -1.8974   -4.3272 H   0  0  0  0  0  0  0  0  0  0  0  0
   -1.6249   -0.9888   -0.5074 N   0  0  0  0  0  0  0  0  0  0  0  0
   -0.5850    0.0132   -0.1820 C   0  0  2  0  0  0  0  0  0  0  0  0
    0.4178   -0.6597    0.7666 C   0  0  0  0  0  0  0  0  0  0  0  0
    1.6067   -0.7603    0.4798 O   0  0  0  0  0  0  0  0  0  0  0  0
   -1.0478    1.3783    0.3816 C   0  0  0  0  0  0  0  0  0  0  0  0
   -1.7844    2.2621   -0.6246 C   0  0  0  0  0  0  0  0  0  0  0  0
   -1.4903    2.1317   -1.8437 O   0  5  0  0  0  0  0  0  0  0  0  0
   -2.5248    3.1655   -0.1728 O   0  0  0  0  0  0  0  0  0  0  0  0
   -1.2265   -1.8254   -0.9310 H   0  0  0  0  0  0  0  0  0  0  0  0
   -0.0341    0.2269   -1.1047 H   0  0  0  0  0  0  0  0  0  0  0  0
   -0.1735    1.9363    0.7261 H   0  0  0  0  0  0  0  0  0  0  0  0
   -1.7022    1.2082    1.2412 H   0  0  0  0  0  0  0  0  0  0  0  0
   -0.0924   -1.4104    1.8083 N   0  0  0  0  0  0  0  0  0  0  0  0
    0.5723   -2.6606    2.1885 C   0  0  2  0  0  0  0  0  0  0  0  0
    0.5257   -3.7196    1.0581 C   0  0  0  0  0  0  0  0  0  0  0  0
   -0.3928   -3.7378    0.2410 O   0  0  0  0  0  0  0  0  0  0  0  0
   -0.1176   -3.1934    3.4446 C   0  0  0  0  0  0  0  0  0  0  0  0
   -1.1122   -1.4210    1.8030 H   0  0  0  0  0  0  0  0  0  0  0  0
    1.6210   -2.4537    2.4256 H   0  0  0  0  0  0  0  0  0  0  0  0
   -1.1675   -3.4235    3.2357 H   0  0  0  0  0  0  0  0  0  0  0  0
    0.3760   -4.1052    3.7939 H   0  0  0  0  0  0  0  0  0  0  0  0
   -0.0760   -2.4476    4.2445 H   0  0  0  0  0  0  0  0  0  0  0  0
    1.5265   -4.6697    0.9628 N   0  0  0  0  0  0  0  0  0  0  0  0
    1.6140   -5.6163   -0.1414 C   0  0  0  0  0  0  0  0  0  0  0  0
    2.3422   -4.5331    1.5521 H   0  0  0  0  0  0  0  0  0  0  0  0
    0.7198   -6.2475   -0.1773 H   0  0  0  0  0  0  0  0  0  0  0  0
    1.7094   -5.0844   -1.0939 H   0  0  0  0  0  0  0  0  0  0  0  0
    2.4873   -6.2630   -0.0155 H   0  0  0  0  0  0  0  0  0  0  0  0
  1  2  2  0  0  0  0
  1  3  1  0  0  0  0
  1  7  1  0  0  0  0
  3  4  1  0  0  0  0
  3  5  1  0  0  0  0
  3  6  1  0  0  0  0
  7  8  1  0  0  0  0
  7 12  1  0  0  0  0
  8  9  1  0  0  0  0
  8 11  1  0  0  0  0
  8 13  1  0  0  0  0
  9 10  2  0  0  0  0
  9 17  1  0  0  0  0
 11 14  1  0  0  0  0
 11 15  1  0  0  0  0
 11 16  1  0  0  0  0
 17 18  1  0  0  0  0
 17 25  1  0  0  0  0
 18 19  1  0  0  0  0
 18 21  1  0  0  0  0
 18 26  1  0  0  0  0
 19 20  2  0  0  0  0
 19 29  1  0  0  0  0
 21 22  1  0  0  0  0
 21 27  1  0  0  0  0
 21 28  1  0  0  0  0
 22 23  1  0  0  0  0
 22 24  2  0  0  0  0
 29 30  1  0  0  0  0
 29 34  1  0  0  0  0
 30 31  1  0  0  0  0
 30 33  1  0  0  0  0
 30 35  1  0  0  0  0
 31 32  2  0  0  0  0
 31 39  1  0  0  0  0
 33 36  1  0  0  0  0
 33 37  1  0  0  0  0
 33 38  1  0  0  0  0
 39 40  1  0  0  0  0
 39 41  1  0  0  0  0
 40 42  1  0  0  0  0
 40 43  1  0  0  0  0
 40 44  1  0  0  0  0
M  CHG  1  23  -1
M  END
$$$$

  -OEChem-05262215553D

 44 43  0     1  0  0  0  0  0999 V2000
   -4.2356    0.7390   -3.9905 C   0  0  0  0  0  0  0  0  0  0  0  0
   -5.0413   -0.0677   -4.4390 O   0  0  0  0  0  0  0  0  0  0  0  0
   -4.3691    2.2138   -4.3202 C   0  0  0  0  0  0  0  0  0  0  0  0
   -3.5347    2.5314   -4.9498 H   0  0  0  0  0  0  0  0  0  0  0  0
   -5.3081    2.4038   -4.8461 H   0  0  0  0  0  0  0  0  0  0  0  0
   -4.3552    2.7994   -3.3963 H   0  0  0  0  0  0  0  0  0  0  0  0
   -3.1788    0.3232   -3.2148 N   0  0  0  0  0  0  0  0  0  0  0  0
   -3.1347   -0.9593   -2.5056 C   0  0  2  0  0  0  0  0  0  0  0  0
   -2.8414   -0.7183   -1.0090 C   0  0  0  0  0  0  0  0  0  0  0  0
   -3.7330   -0.3922   -0.2398 O   0  0  0  0  0  0  0  0  0  0  0  0
   -2.0809   -1.8383   -3.1891 C   0  0  0  0  0  0  0  0  0  0  0  0
   -2.6254    1.0904   -2.8035 H   0  0  0  0  0  0  0  0  0  0  0  0
   -4.1051   -1.4640   -2.5597 H   0  0  0  0  0  0  0  0  0  0  0  0
   -1.1012   -1.3499   -3.1721 H   0  0  0  0  0  0  0  0  0  0  0  0
   -2.0029   -2.8068   -2.6856 H   0  0  0  0  0  0  0  0  0  0  0  0
   -2.3611   -2.0133   -4.2324 H   0  0  0  0  0  0  0  0  0  0  0  0
   -1.6221   -1.0124   -0.4388 N   0  0  0  0  0  0  0  0  0  0  0  0
   -0.6132    0.0216   -0.1091 C   0  0  2  0  0  0  0  0  0  0  0  0
    0.4216   -0.6115    0.8381 C   0  0  0  0  0  0  0  0  0  0  0  0
    1.6260   -0.4805    0.6451 O   0  0  0  0  0  0  0  0  0  0  0  0
   -1.1274    1.3633    0.4653 C   0  0  0  0  0  0  0  0  0  0  0  0
   -1.8991    2.2270   -0.5321 C   0  0  0  0  0  0  0  0  0  0  0  0
   -1.6031    2.1191   -1.7529 O   0  5  0  0  0  0  0  0  0  0  0  0
   -2.6781    3.0929   -0.0718 O   0  0  0  0  0  0  0  0  0  0  0  0
   -1.1895   -1.8180   -0.8944 H   0  0  0  0  0  0  0  0  0  0  0  0
   -0.0741    0.2600   -1.0328 H   0  0  0  0  0  0  0  0  0  0  0  0
   -0.2740    1.9518    0.8116 H   0  0  0  0  0  0  0  0  0  0  0  0
   -1.7716    1.1620    1.3257 H   0  0  0  0  0  0  0  0  0  0  0  0
   -0.0120   -1.6208    1.6783 N   0  0  0  0  0  0  0  0  0  0  0  0
    0.7883   -2.8429    1.8023 C   0  0  2  0  0  0  0  0  0  0  0  0
    0.8311   -3.6429    0.4762 C   0  0  0  0  0  0  0  0  0  0  0  0
   -0.0949   -3.5794   -0.3315 O   0  0  0  0  0  0  0  0  0  0  0  0
    0.1810   -3.6931    2.9196 C   0  0  0  0  0  0  0  0  0  0  0  0
   -1.0213   -1.7514    1.6117 H   0  0  0  0  0  0  0  0  0  0  0  0
    1.8138   -2.5793    2.0818 H   0  0  0  0  0  0  0  0  0  0  0  0
   -0.8457   -3.9794    2.6691 H   0  0  0  0  0  0  0  0  0  0  0  0
    0.7698   -4.6031    3.0695 H   0  0  0  0  0  0  0  0  0  0  0  0
    0.1670   -3.1304    3.8582 H   0  0  0  0  0  0  0  0  0  0  0  0
    1.9230   -4.4417    0.1892 N   0  0  0  0  0  0  0  0  0  0  0  0
    2.0971   -5.1150   -1.0910 C   0  0  0  0  0  0  0  0  0  0  0  0
    2.7272   -4.3505    0.8026 H   0  0  0  0  0  0  0  0  0  0  0  0
    1.2589   -5.7918   -1.2863 H   0  0  0  0  0  0  0  0  0  0  0  0
    2.1571   -4.3830   -1.9031 H   0  0  0  0  0  0  0  0  0  0  0  0
    3.0197   -5.7030   -1.0847 H   0  0  0  0  0  0  0  0  0  0  0  0
  1  2  2  0  0  0  0
  1  3  1  0  0  0  0
  1  7  1  0  0  0  0
  3  4  1  0  0  0  0
  3  5  1  0  0  0  0
  3  6  1  0  0  0  0
  7  8  1  0  0  0  0
  7 12  1  0  0  0  0
  8  9  1  0  0  0  0
  8 11  1  0  0  0  0
  8 13  1  0  0  0  0
  9 10  2  0  0  0  0
  9 17  1  0  0  0  0
 11 14  1  0  0  0  0
 11 15  1  0  0  0  0
 11 16  1  0  0  0  0
 17 18  1  0  0  0  0
 17 25  1  0  0  0  0
 18 19  1  0  0  0  0
 18 21  1  0  0  0  0
 18 26  1  0  0  0  0
 19 20  2  0  0  0  0
 19 29  1  0  0  0  0
 21 22  1  0  0  0  0
 21 27  1  0  0  0  0
 21 28  1  0  0  0  0
 22 23  1  0  0  0  0
 22 24  2  0  0  0  0
 29 30  1  0  0  0  0
 29 34  1  0  0  0  0
 30 31  1  0  0  0  0
 30 33  1  0  0  0  0
 30 35  1  0  0  0  0
 31 32  2  0  0  0  0
 31 39  1  0  0  0  0
 33 36  1  0  0  0  0
 33 37  1  0  0  0  0
 33 38  1  0  0  0  0
 39 40  1  0  0  0  0
 39 41  1  0  0  0  0
 40 42  1  0  0  0  0
 40 43  1  0  0  0  0
 40 44  1  0  0  0  0
M  CHG  1  23  -1
M  END
$$$$

  -OEChem-05262215553D

 44 43  0     1  0  0  0  0  0999 V2000
   -4.1688    0.6924   -4.0147 C   0  0  0  0  0  0  0  0  0  0  0  0
   -4.9970   -0.1060   -4.4365 O   0  0  0  0  0  0  0  0  0  0  0  0
   -4.3198    2.1735   -4.3061 C   0  0  0  0  0  0  0  0  0  0  0  0
   -5.2626    2.3669   -4.8239 H   0  0  0  0  0  0  0  0  0  0  0  0
   -4.3092    2.7349   -3.3671 H   0  0  0  0  0  0  0  0  0  0  0  0
   -3.4906    2.5165   -4.9292 H   0  0  0  0  0  0  0  0  0  0  0  0
   -3.0746    0.2628   -3.3003 N   0  0  0  0  0  0  0  0  0  0  0  0
   -3.0217   -1.0125   -2.5788 C   0  0  2  0  0  0  0  0  0  0  0  0
   -2.7730   -0.7509   -1.0769 C   0  0  0  0  0  0  0  0  0  0  0  0
   -3.6918   -0.4288   -0.3388 O   0  0  0  0  0  0  0  0  0  0  0  0
   -1.9338   -1.8760   -3.2273 C   0  0  0  0  0  0  0  0  0  0  0  0
   -2.5044    1.0272   -2.9074 H   0  0  0  0  0  0  0  0  0  0  0  0
   -3.9782   -1.5405   -2.6540 H   0  0  0  0  0  0  0  0  0  0  0  0
   -0.9608   -1.3766   -3.1764 H   0  0  0  0  0  0  0  0  0  0  0  0
   -1.8611   -2.8442   -2.7224 H   0  0  0  0  0  0  0  0  0  0  0  0
   -2.1766   -2.0530   -4.2796 H   0  0  0  0  0  0  0  0  0  0  0  0
   -1.5748   -1.0431   -0.4610 N   0  0  0  0  0  0  0  0  0  0  0  0
   -0.5717   -0.0049   -0.1179 C   0  0  2  0  0  0  0  0  0  0  0  0
    0.4436   -0.6021    0.8784 C   0  0  0  0  0  0  0  0  0  0  0  0
    1.6273   -0.2843    0.8355 O   0  0  0  0  0  0  0  0  0  0  0  0
   -1.1067    1.3537    0.3988 C   0  0  0  0  0  0  0  0  0  0  0  0
   -1.8335    2.1926   -0.6524 C   0  0  0  0  0  0  0  0  0  0  0  0
   -1.4859    2.0516   -1.8561 O   0  5  0  0  0  0  0  0  0  0  0  0
   -2.6384    3.0645   -0.2518 O   0  0  0  0  0  0  0  0  0  0  0  0
   -1.1220   -1.8327   -0.9274 H   0  0  0  0  0  0  0  0  0  0  0  0
   -0.0022    0.2083   -1.0292 H   0  0  0  0  0  0  0  0  0  0  0  0
   -0.2682    1.9513    0.7654 H   0  0  0  0  0  0  0  0  0  0  0  0
   -1.7875    1.1759    1.2357 H   0  0  0  0  0  0  0  0  0  0  0  0
    0.1070   -1.7855    1.5114 N   0  0  0  0  0  0  0  0  0  0  0  0
    1.0377   -2.9173    1.4731 C   0  0  2  0  0  0  0  0  0  0  0  0
    1.1038   -3.5449    0.0599 C   0  0  0  0  0  0  0  0  0  0  0  0
    0.1449   -3.4627   -0.7066 O   0  0  0  0  0  0  0  0  0  0  0  0
    0.5637   -3.9514    2.4958 C   0  0  0  0  0  0  0  0  0  0  0  0
   -0.8748   -2.0165    1.3623 H   0  0  0  0  0  0  0  0  0  0  0  0
    2.0418   -2.5835    1.7555 H   0  0  0  0  0  0  0  0  0  0  0  0
   -0.4365   -4.3151    2.2383 H   0  0  0  0  0  0  0  0  0  0  0  0
    1.2486   -4.8045    2.5212 H   0  0  0  0  0  0  0  0  0  0  0  0
    0.5263   -3.5063    3.4951 H   0  0  0  0  0  0  0  0  0  0  0  0
    2.2412   -4.2168   -0.3482 N   0  0  0  0  0  0  0  0  0  0  0  0
    2.4108   -4.7500   -1.6937 C   0  0  0  0  0  0  0  0  0  0  0  0
    3.0568   -4.1442    0.2529 H   0  0  0  0  0  0  0  0  0  0  0  0
    1.6026   -5.4481   -1.9353 H   0  0  0  0  0  0  0  0  0  0  0  0
    2.4101   -3.9396   -2.4300 H   0  0  0  0  0  0  0  0  0  0  0  0
    3.3610   -5.2870   -1.7684 H   0  0  0  0  0  0  0  0  0  0  0  0
  1  2  2  0  0  0  0
  1  3  1  0  0  0  0
  1  7  1  0  0  0  0
  3  4  1  0  0  0  0
  3  5  1  0  0  0  0
  3  6  1  0  0  0  0
  7  8  1  0  0  0  0
  7 12  1  0  0  0  0
  8  9  1  0  0  0  0
  8 11  1  0  0  0  0
  8 13  1  0  0  0  0
  9 10  2  0  0  0  0
  9 17  1  0  0  0  0
 11 14  1  0  0  0  0
 11 15  1  0  0  0  0
 11 16  1  0  0  0  0
 17 18  1  0  0  0  0
 17 25  1  0  0  0  0
 18 19  1  0  0  0  0
 18 21  1  0  0  0  0
 18 26  1  0  0  0  0
 19 20  2  0  0  0  0
 19 29  1  0  0  0  0
 21 22  1  0  0  0  0
 21 27  1  0  0  0  0
 21 28  1  0  0  0  0
 22 23  1  0  0  0  0
 22 24  2  0  0  0  0
 29 30  1  0  0  0  0
 29 34  1  0  0  0  0
 30 31  1  0  0  0  0
 30 33  1  0  0  0  0
 30 35  1  0  0  0  0
 31 32  2  0  0  0  0
 31 39  1  0  0  0  0
 33 36  1  0  0  0  0
 33 37  1  0  0  0  0
 33 38  1  0  0  0  0
 39 40  1  0  0  0  0
 39 41  1  0  0  0  0
 40 42  1  0  0  0  0
 40 43  1  0  0  0  0
 40 44  1  0  0  0  0
M  CHG  1  23  -1
M  END
$$$$

  -OEChem-05262215553D

 44 43  0     1  0  0  0  0  0999 V2000
   -4.2966    1.1987   -3.9935 C   0  0  0  0  0  0  0  0  0  0  0  0
   -5.2418    0.5430   -4.4139 O   0  0  0  0  0  0  0  0  0  0  0  0
   -4.1275    2.6480   -4.4085 C   0  0  0  0  0  0  0  0  0  0  0  0
   -3.2122    2.7621   -4.9943 H   0  0  0  0  0  0  0  0  0  0  0  0
   -4.9804    2.9746   -5.0090 H   0  0  0  0  0  0  0  0  0  0  0  0
   -4.0567    3.2804   -3.5189 H   0  0  0  0  0  0  0  0  0  0  0  0
   -3.3615    0.6244   -3.1642 N   0  0  0  0  0  0  0  0  0  0  0  0
   -3.5455   -0.6501   -2.4653 C   0  0  2  0  0  0  0  0  0  0  0  0
   -2.9350   -0.5851   -1.0474 C   0  0  0  0  0  0  0  0  0  0  0  0
   -3.6288   -0.2764   -0.0919 O   0  0  0  0  0  0  0  0  0  0  0  0
   -2.9351   -1.7602   -3.3302 C   0  0  0  0  0  0  0  0  0  0  0  0
   -2.6554    1.2726   -2.7826 H   0  0  0  0  0  0  0  0  0  0  0  0
   -4.6150   -0.8506   -2.3359 H   0  0  0  0  0  0  0  0  0  0  0  0
   -1.8759   -1.5625   -3.5236 H   0  0  0  0  0  0  0  0  0  0  0  0
   -3.0330   -2.7305   -2.8341 H   0  0  0  0  0  0  0  0  0  0  0  0
   -3.4560   -1.8117   -4.2918 H   0  0  0  0  0  0  0  0  0  0  0  0
   -1.7200   -1.1633   -0.7384 N   0  0  0  0  0  0  0  0  0  0  0  0
   -0.4874   -0.3640   -0.5270 C   0  0  2  0  0  0  0  0  0  0  0  0
    0.5912   -1.2271    0.1669 C   0  0  0  0  0  0  0  0  0  0  0  0
    1.7547   -0.8516    0.2594 O   0  0  0  0  0  0  0  0  0  0  0  0
   -0.6554    1.0006    0.1920 C   0  0  0  0  0  0  0  0  0  0  0  0
   -1.3904    2.0587   -0.6292 C   0  0  0  0  0  0  0  0  0  0  0  0
   -1.2942    1.9885   -1.8846 O   0  5  0  0  0  0  0  0  0  0  0  0
   -1.9607    2.9901   -0.0185 O   0  0  0  0  0  0  0  0  0  0  0  0
   -1.5377   -1.8893   -1.4228 H   0  0  0  0  0  0  0  0  0  0  0  0
   -0.0757   -0.1425   -1.5179 H   0  0  0  0  0  0  0  0  0  0  0  0
    0.3302    1.4085    0.4308 H   0  0  0  0  0  0  0  0  0  0  0  0
   -1.1926    0.8478    1.1323 H   0  0  0  0  0  0  0  0  0  0  0  0
    0.3137   -2.5436    0.4941 N   0  0  0  0  0  0  0  0  0  0  0  0
    1.2532   -3.4396    1.1863 C   0  0  2  0  0  0  0  0  0  0  0  0
    2.2740   -4.0994    0.2244 C   0  0  0  0  0  0  0  0  0  0  0  0
    2.4191   -5.3165    0.1686 O   0  0  0  0  0  0  0  0  0  0  0  0
    0.4129   -4.4638    1.9590 C   0  0  0  0  0  0  0  0  0  0  0  0
   -0.6762   -2.7750    0.5208 H   0  0  0  0  0  0  0  0  0  0  0  0
    1.8294   -2.8626    1.9177 H   0  0  0  0  0  0  0  0  0  0  0  0
   -0.1712   -5.0816    1.2695 H   0  0  0  0  0  0  0  0  0  0  0  0
    1.0619   -5.1193    2.5482 H   0  0  0  0  0  0  0  0  0  0  0  0
   -0.2737   -3.9556    2.6429 H   0  0  0  0  0  0  0  0  0  0  0  0
    3.0535   -3.2954   -0.5835 N   0  0  0  0  0  0  0  0  0  0  0  0
    4.0592   -3.7883   -1.5123 C   0  0  0  0  0  0  0  0  0  0  0  0
    2.9028   -2.2862   -0.4892 H   0  0  0  0  0  0  0  0  0  0  0  0
    4.8565   -4.3081   -0.9714 H   0  0  0  0  0  0  0  0  0  0  0  0
    3.6096   -4.4797   -2.2325 H   0  0  0  0  0  0  0  0  0  0  0  0
    4.5015   -2.9531   -2.0639 H   0  0  0  0  0  0  0  0  0  0  0  0
  1  2  2  0  0  0  0
  1  3  1  0  0  0  0
  1  7  1  0  0  0  0
  3  4  1  0  0  0  0
  3  5  1  0  0  0  0
  3  6  1  0  0  0  0
  7  8  1  0  0  0  0
  7 12  1  0  0  0  0
  8  9  1  0  0  0  0
  8 11  1  0  0  0  0
  8 13  1  0  0  0  0
  9 10  2  0  0  0  0
  9 17  1  0  0  0  0
 11 14  1  0  0  0  0
 11 15  1  0  0  0  0
 11 16  1  0  0  0  0
 17 18  1  0  0  0  0
 17 25  1  0  0  0  0
 18 19  1  0  0  0  0
 18 21  1  0  0  0  0
 18 26  1  0  0  0  0
 19 20  2  0  0  0  0
 19 29  1  0  0  0  0
 21 22  1  0  0  0  0
 21 27  1  0  0  0  0
 21 28  1  0  0  0  0
 22 23  1  0  0  0  0
 22 24  2  0  0  0  0
 29 30  1  0  0  0  0
 29 34  1  0  0  0  0
 30 31  1  0  0  0  0
 30 33  1  0  0  0  0
 30 35  1  0  0  0  0
 31 32  2  0  0  0  0
 31 39  1  0  0  0  0
 33 36  1  0  0  0  0
 33 37  1  0  0  0  0
 33 38  1  0  0  0  0
 39 40  1  0  0  0  0
 39 41  1  0  0  0  0
 40 42  1  0  0  0  0
 40 43  1  0  0  0  0
 40 44  1  0  0  0  0
M  CHG  1  23  -1
M  END
$$$$

  -OEChem-05262215553D

 44 43  0     1  0  0  0  0  0999 V2000
   -4.6859    0.2833   -4.2360 C   0  0  0  0  0  0  0  0  0  0  0  0
   -4.5137   -0.7188   -4.9165 O   0  0  0  0  0  0  0  0  0  0  0  0
   -6.0372    0.9735   -4.2355 C   0  0  0  0  0  0  0  0  0  0  0  0
   -5.9264    2.0093   -4.5651 H   0  0  0  0  0  0  0  0  0  0  0  0
   -6.7272    0.4586   -4.9094 H   0  0  0  0  0  0  0  0  0  0  0  0
   -6.4559    0.9649   -3.2259 H   0  0  0  0  0  0  0  0  0  0  0  0
   -3.6699    0.7951   -3.4603 N   0  0  0  0  0  0  0  0  0  0  0  0
   -2.4535    0.0534   -3.1060 C   0  0  2  0  0  0  0  0  0  0  0  0
   -2.2515    0.0335   -1.5733 C   0  0  0  0  0  0  0  0  0  0  0  0
   -3.1973    0.2738   -0.8341 O   0  0  0  0  0  0  0  0  0  0  0  0
   -1.2770    0.7145   -3.8301 C   0  0  0  0  0  0  0  0  0  0  0  0
   -3.9434    1.5161   -2.7914 H   0  0  0  0  0  0  0  0  0  0  0  0
   -2.5288   -0.9884   -3.4328 H   0  0  0  0  0  0  0  0  0  0  0  0
   -1.1987    1.7697   -3.5491 H   0  0  0  0  0  0  0  0  0  0  0  0
   -0.3353    0.2182   -3.5794 H   0  0  0  0  0  0  0  0  0  0  0  0
   -1.4218    0.6553   -4.9131 H   0  0  0  0  0  0  0  0  0  0  0  0
   -1.1571   -0.5885   -1.0050 N   0  0  0  0  0  0  0  0  0  0  0  0
   -0.1673    0.1399   -0.1693 C   0  0  2  0  0  0  0  0  0  0  0  0
    0.7074   -0.8593    0.6301 C   0  0  0  0  0  0  0  0  0  0  0  0
    1.5530   -0.4864    1.4351 O   0  0  0  0  0  0  0  0  0  0  0  0
   -0.7148    1.2864    0.7248 C   0  0  0  0  0  0  0  0  0  0  0  0
   -1.1983    2.5078   -0.0594 C   0  0  0  0  0  0  0  0  0  0  0  0
   -0.6448    2.7401   -1.1672 O   0  5  0  0  0  0  0  0  0  0  0  0
   -2.0184    3.2772    0.4966 O   0  0  0  0  0  0  0  0  0  0  0  0
   -0.6860   -1.1285   -1.7222 H   0  0  0  0  0  0  0  0  0  0  0  0
    0.5372    0.6118   -0.8619 H   0  0  0  0  0  0  0  0  0  0  0  0
    0.0729    1.6348    1.3972 H   0  0  0  0  0  0  0  0  0  0  0  0
   -1.5361    0.9063    1.3383 H   0  0  0  0  0  0  0  0  0  0  0  0
    0.7146   -2.1981    0.2779 N   0  0  0  0  0  0  0  0  0  0  0  0
    1.7212   -3.1860    0.6820 C   0  0  2  0  0  0  0  0  0  0  0  0
    2.2062   -4.0182   -0.5230 C   0  0  0  0  0  0  0  0  0  0  0  0
    1.4865   -4.1655   -1.5064 O   0  0  0  0  0  0  0  0  0  0  0  0
    1.0976   -4.0889    1.7481 C   0  0  0  0  0  0  0  0  0  0  0  0
    0.0238   -2.4918   -0.4067 H   0  0  0  0  0  0  0  0  0  0  0  0
    2.5965   -2.6848    1.1076 H   0  0  0  0  0  0  0  0  0  0  0  0
    0.2228   -4.6091    1.3451 H   0  0  0  0  0  0  0  0  0  0  0  0
    1.8214   -4.8347    2.0896 H   0  0  0  0  0  0  0  0  0  0  0  0
    0.7820   -3.4918    2.6097 H   0  0  0  0  0  0  0  0  0  0  0  0
    3.4579   -4.6061   -0.5045 N   0  0  0  0  0  0  0  0  0  0  0  0
    4.0096   -5.3439   -1.6330 C   0  0  0  0  0  0  0  0  0  0  0  0
    4.0537   -4.4087    0.2943 H   0  0  0  0  0  0  0  0  0  0  0  0
    3.3885   -6.2164   -1.8609 H   0  0  0  0  0  0  0  0  0  0  0  0
    4.0601   -4.7043   -2.5204 H   0  0  0  0  0  0  0  0  0  0  0  0
    5.0204   -5.6907   -1.3991 H   0  0  0  0  0  0  0  0  0  0  0  0
  1  2  2  0  0  0  0
  1  3  1  0  0  0  0
  1  7  1  0  0  0  0
  3  4  1  0  0  0  0
  3  5  1  0  0  0  0
  3  6  1  0  0  0  0
  7  8  1  0  0  0  0
  7 12  1  0  0  0  0
  8  9  1  0  0  0  0
  8 11  1  0  0  0  0
  8 13  1  0  0  0  0
  9 10  2  0  0  0  0
  9 17  1  0  0  0  0
 11 14  1  0  0  0  0
 11 15  1  0  0  0  0
 11 16  1  0  0  0  0
 17 18  1  0  0  0  0
 17 25  1  0  0  0  0
 18 19  1  0  0  0  0
 18 21  1  0  0  0  0
 18 26  1  0  0  0  0
 19 20  2  0  0  0  0
 19 29  1  0  0  0  0
 21 22  1  0  0  0  0
 21 27  1  0  0  0  0
 21 28  1  0  0  0  0
 22 23  1  0  0  0  0
 22 24  2  0  0  0  0
 29 30  1  0  0  0  0
 29 34  1  0  0  0  0
 30 31  1  0  0  0  0
 30 33  1  0  0  0  0
 30 35  1  0  0  0  0
 31 32  2  0  0  0  0
 31 39  1  0  0  0  0
 33 36  1  0  0  0  0
 33 37  1  0  0  0  0
 33 38  1  0  0  0  0
 39 40  1  0  0  0  0
 39 41  1  0  0  0  0
 40 42  1  0  0  0  0
 40 43  1  0  0  0  0
 40 44  1  0  0  0  0
M  CHG  1  23  -1
M  END
$$$$

  -OEChem-05262215553D

 44 43  0     1  0  0  0  0  0999 V2000
   -4.5042    1.1857   -3.8909 C   0  0  0  0  0  0  0  0  0  0  0  0
   -5.1459    0.4244   -4.6049 O   0  0  0  0  0  0  0  0  0  0  0  0
   -5.0293    2.5767   -3.5890 C   0  0  0  0  0  0  0  0  0  0  0  0
   -4.3633    3.3281   -4.0197 H   0  0  0  0  0  0  0  0  0  0  0  0
   -6.0317    2.7052   -4.0047 H   0  0  0  0  0  0  0  0  0  0  0  0
   -5.0728    2.7256   -2.5058 H   0  0  0  0  0  0  0  0  0  0  0  0
   -3.2778    0.8151   -3.3899 N   0  0  0  0  0  0  0  0  0  0  0  0
   -2.8466   -0.5760   -3.2254 C   0  0  2  0  0  0  0  0  0  0  0  0
   -2.6028   -0.8810   -1.7292 C   0  0  0  0  0  0  0  0  0  0  0  0
   -3.5445   -1.1187   -0.9896 O   0  0  0  0  0  0  0  0  0  0  0  0
   -1.6007   -0.7755   -4.0957 C   0  0  0  0  0  0  0  0  0  0  0  0
   -2.8671    1.4962   -2.7336 H   0  0  0  0  0  0  0  0  0  0  0  0
   -3.6268   -1.2656   -3.5652 H   0  0  0  0  0  0  0  0  0  0  0  0
   -0.8007   -0.0952   -3.7855 H   0  0  0  0  0  0  0  0  0  0  0  0
   -1.2415   -1.8063   -4.0235 H   0  0  0  0  0  0  0  0  0  0  0  0
   -1.8414   -0.5675   -5.1431 H   0  0  0  0  0  0  0  0  0  0  0  0
   -1.3452   -1.1290   -1.2126 N   0  0  0  0  0  0  0  0  0  0  0  0
   -0.6066   -0.1206   -0.4093 C   0  0  2  0  0  0  0  0  0  0  0  0
    0.5729   -0.7863    0.3481 C   0  0  0  0  0  0  0  0  0  0  0  0
    1.0871   -0.2876    1.3430 O   0  0  0  0  0  0  0  0  0  0  0  0
   -1.4624    0.8174    0.4904 C   0  0  0  0  0  0  0  0  0  0  0  0
   -2.3152    1.8214   -0.2862 C   0  0  0  0  0  0  0  0  0  0  0  0
   -1.8844    2.1999   -1.4097 O   0  5  0  0  0  0  0  0  0  0  0  0
   -3.3472    2.2774    0.2554 O   0  0  0  0  0  0  0  0  0  0  0  0
   -0.7626   -1.4606   -1.9710 H   0  0  0  0  0  0  0  0  0  0  0  0
   -0.1077    0.5383   -1.1273 H   0  0  0  0  0  0  0  0  0  0  0  0
   -0.8068    1.4024    1.1401 H   0  0  0  0  0  0  0  0  0  0  0  0
   -2.1120    0.2109    1.1276 H   0  0  0  0  0  0  0  0  0  0  0  0
    1.2033   -1.8969   -0.1882 N   0  0  0  0  0  0  0  0  0  0  0  0
    2.3843   -2.5566    0.3811 C   0  0  2  0  0  0  0  0  0  0  0  0
    3.1484   -3.3798   -0.6773 C   0  0  0  0  0  0  0  0  0  0  0  0
    2.6202   -3.6638   -1.7486 O   0  0  0  0  0  0  0  0  0  0  0  0
    1.9358   -3.4650    1.5315 C   0  0  0  0  0  0  0  0  0  0  0  0
    0.7785   -2.3330   -1.0010 H   0  0  0  0  0  0  0  0  0  0  0  0
    3.0728   -1.7972    0.7667 H   0  0  0  0  0  0  0  0  0  0  0  0
    1.2447   -4.2311    1.1660 H   0  0  0  0  0  0  0  0  0  0  0  0
    2.7975   -3.9607    1.9878 H   0  0  0  0  0  0  0  0  0  0  0  0
    1.4283   -2.8795    2.3046 H   0  0  0  0  0  0  0  0  0  0  0  0
    4.4382   -3.8104   -0.4217 N   0  0  0  0  0  0  0  0  0  0  0  0
    5.2280   -4.5894   -1.3656 C   0  0  0  0  0  0  0  0  0  0  0  0
    4.8514   -3.5474    0.4684 H   0  0  0  0  0  0  0  0  0  0  0  0
    4.7138   -5.5229   -1.6168 H   0  0  0  0  0  0  0  0  0  0  0  0
    5.3974   -4.0201   -2.2855 H   0  0  0  0  0  0  0  0  0  0  0  0
    6.1995   -4.8374   -0.9275 H   0  0  0  0  0  0  0  0  0  0  0  0
  1  2  2  0  0  0  0
  1  3  1  0  0  0  0
  1  7  1  0  0  0  0
  3  4  1  0  0  0  0
  3  5  1  0  0  0  0
  3  6  1  0  0  0  0
  7  8  1  0  0  0  0
  7 12  1  0  0  0  0
  8  9  1  0  0  0  0
  8 11  1  0  0  0  0
  8 13  1  0  0  0  0
  9 10  2  0  0  0  0
  9 17  1  0  0  0  0
 11 14  1  0  0  0  0
 11 15  1  0  0  0  0
 11 16  1  0  0  0  0
 17 18  1  0  0  0  0
 17 25  1  0  0  0  0
 18 19  1  0  0  0  0
 18 21  1  0  0  0  0
 18 26  1  0  0  0  0
 19 20  2  0  0  0  0
 19 29  1  0  0  0  0
 21 22  1  0  0  0  0
 21 27  1  0  0  0  0
 21 28  1  0  0  0  0
 22 23  1  0  0  0  0
 22 24  2  0  0  0  0
 29 30  1  0  0  0  0
 29 34  1  0  0  0  0
 30 31  1  0  0  0  0
 30 33  1  0  0  0  0
 30 35  1  0  0  0  0
 31 32  2  0  0  0  0
 31 39  1  0  0  0  0
 33 36  1  0  0  0  0
 33 37  1  0  0  0  0
 33 38  1  0  0  0  0
 39 40  1  0  0  0  0
 39 41  1  0  0  0  0
 40 42  1  0  0  0  0
 40 43  1  0  0  0  0
 40 44  1  0  0  0  0
M  CHG  1  23  -1
M  END
$$$$

  -OEChem-05262215553D

 44 43  0     1  0  0  0  0  0999 V2000
   -4.6420    0.1322   -4.2423 C   0  0  0  0  0  0  0  0  0  0  0  0
   -4.3417   -0.7816   -4.9985 O   0  0  0  0  0  0  0  0  0  0  0  0
   -6.0598    0.6740   -4.2356 C   0  0  0  0  0  0  0  0  0  0  0  0
   -6.0491    1.7482   -4.4366 H   0  0  0  0  0  0  0  0  0  0  0  0
   -6.6591    0.1764   -5.0029 H   0  0  0  0  0  0  0  0  0  0  0  0
   -6.5190    0.5000   -3.2589 H   0  0  0  0  0  0  0  0  0  0  0  0
   -3.7095    0.6782   -3.3896 N   0  0  0  0  0  0  0  0  0  0  0  0
   -2.4113    0.0669   -3.0812 C   0  0  2  0  0  0  0  0  0  0  0  0
   -2.1729    0.0287   -1.5550 C   0  0  0  0  0  0  0  0  0  0  0  0
   -3.1129    0.2179   -0.7937 O   0  0  0  0  0  0  0  0  0  0  0  0
   -1.3292    0.8789   -3.7987 C   0  0  0  0  0  0  0  0  0  0  0  0
   -4.0734    1.3023   -2.6679 H   0  0  0  0  0  0  0  0  0  0  0  0
   -2.3803   -0.9670   -3.4385 H   0  0  0  0  0  0  0  0  0  0  0  0
   -1.3428    1.9191   -3.4565 H   0  0  0  0  0  0  0  0  0  0  0  0
   -0.3363    0.4635   -3.6044 H   0  0  0  0  0  0  0  0  0  0  0  0
   -1.5039    0.8673   -4.8788 H   0  0  0  0  0  0  0  0  0  0  0  0
   -1.0198   -0.5225   -1.0294 N   0  0  0  0  0  0  0  0  0  0  0  0
   -0.0963    0.2242   -0.1378 C   0  0  2  0  0  0  0  0  0  0  0  0
    0.8664   -0.7586    0.5752 C   0  0  0  0  0  0  0  0  0  0  0  0
    1.1345   -0.6939    1.7697 O   0  0  0  0  0  0  0  0  0  0  0  0
   -0.7192    1.2892    0.8063 C   0  0  0  0  0  0  0  0  0  0  0  0
   -1.2620    2.5186    0.0733 C   0  0  0  0  0  0  0  0  0  0  0  0
   -0.7059    2.8335   -1.0136 O   0  5  0  0  0  0  0  0  0  0  0  0
   -2.1187    3.2239    0.6587 O   0  0  0  0  0  0  0  0  0  0  0  0
   -0.5255   -1.0361   -1.7472 H   0  0  0  0  0  0  0  0  0  0  0  0
    0.5696    0.7873   -0.7991 H   0  0  0  0  0  0  0  0  0  0  0  0
    0.0408    1.6466    1.5055 H   0  0  0  0  0  0  0  0  0  0  0  0
   -1.5236    0.8317    1.3884 H   0  0  0  0  0  0  0  0  0  0  0  0
    1.4751   -1.7661   -0.1560 N   0  0  0  0  0  0  0  0  0  0  0  0
    2.4622   -2.7089    0.3822 C   0  0  2  0  0  0  0  0  0  0  0  0
    3.4823   -3.1364   -0.6924 C   0  0  0  0  0  0  0  0  0  0  0  0
    3.2323   -2.9782   -1.8837 O   0  0  0  0  0  0  0  0  0  0  0  0
    1.7127   -3.9274    0.9270 C   0  0  0  0  0  0  0  0  0  0  0  0
    1.3953   -1.7241   -1.1684 H   0  0  0  0  0  0  0  0  0  0  0  0
    3.0234   -2.2359    1.1950 H   0  0  0  0  0  0  0  0  0  0  0  0
    1.1459   -4.4162    0.1281 H   0  0  0  0  0  0  0  0  0  0  0  0
    2.4134   -4.6515    1.3527 H   0  0  0  0  0  0  0  0  0  0  0  0
    1.0137   -3.6209    1.7120 H   0  0  0  0  0  0  0  0  0  0  0  0
    4.6939   -3.6894   -0.3199 N   0  0  0  0  0  0  0  0  0  0  0  0
    5.7375   -4.0443   -1.2718 C   0  0  0  0  0  0  0  0  0  0  0  0
    4.8907   -3.7553    0.6745 H   0  0  0  0  0  0  0  0  0  0  0  0
    5.3724   -4.7978   -1.9771 H   0  0  0  0  0  0  0  0  0  0  0  0
    6.0599   -3.1609   -1.8327 H   0  0  0  0  0  0  0  0  0  0  0  0
    6.6037   -4.4552   -0.7450 H   0  0  0  0  0  0  0  0  0  0  0  0
  1  2  2  0  0  0  0
  1  3  1  0  0  0  0
  1  7  1  0  0  0  0
  3  4  1  0  0  0  0
  3  5  1  0  0  0  0
  3  6  1  0  0  0  0
  7  8  1  0  0  0  0
  7 12  1  0  0  0  0
  8  9  1  0  0  0  0
  8 11  1  0  0  0  0
  8 13  1  0  0  0  0
  9 10  2  0  0  0  0
  9 17  1  0  0  0  0
 11 14  1  0  0  0  0
 11 15  1  0  0  0  0
 11 16  1  0  0  0  0
 17 18  1  0  0  0  0
 17 25  1  0  0  0  0
 18 19  1  0  0  0  0
 18 21  1  0  0  0  0
 18 26  1  0  0  0  0
 19 20  2  0  0  0  0
 19 29  1  0  0  0  0
 21 22  1  0  0  0  0
 21 27  1  0  0  0  0
 21 28  1  0  0  0  0
 22 23  1  0  0  0  0
 22 24  2  0  0  0  0
 29 30  1  0  0  0  0
 29 34  1  0  0  0  0
 30 31  1  0  0  0  0
 30 33  1  0  0  0  0
 30 35  1  0  0  0  0
 31 32  2  0  0  0  0
 31 39  1  0  0  0  0
 33 36  1  0  0  0  0
 33 37  1  0  0  0  0
 33 38  1  0  0  0  0
 39 40  1  0  0  0  0
 39 41  1  0  0  0  0
 40 42  1  0  0  0  0
 40 43  1  0  0  0  0
 40 44  1  0  0  0  0
M  CHG  1  23  -1
M  END
$$$$

  -OEChem-05262215553D

 44 43  0     1  0  0  0  0  0999 V2000
   -4.5958    0.0793   -4.2422 C   0  0  0  0  0  0  0  0  0  0  0  0
   -4.2744   -0.8319   -4.9926 O   0  0  0  0  0  0  0  0  0  0  0  0
   -6.0167    0.6127   -4.2646 C   0  0  0  0  0  0  0  0  0  0  0  0
   -6.0078    1.6878   -4.4605 H   0  0  0  0  0  0  0  0  0  0  0  0
   -6.5966    0.1157   -5.0471 H   0  0  0  0  0  0  0  0  0  0  0  0
   -6.4961    0.4310   -3.2992 H   0  0  0  0  0  0  0  0  0  0  0  0
   -3.6841    0.6268   -3.3680 N   0  0  0  0  0  0  0  0  0  0  0  0
   -2.3831    0.0296   -3.0448 C   0  0  2  0  0  0  0  0  0  0  0  0
   -2.1421    0.0318   -1.5185 C   0  0  0  0  0  0  0  0  0  0  0  0
   -3.0769    0.2632   -0.7626 O   0  0  0  0  0  0  0  0  0  0  0  0
   -1.3041    0.8295   -3.7803 C   0  0  0  0  0  0  0  0  0  0  0  0
   -4.0614    1.2505   -2.6526 H   0  0  0  0  0  0  0  0  0  0  0  0
   -2.3487   -1.0126   -3.3770 H   0  0  0  0  0  0  0  0  0  0  0  0
   -1.3180    1.8754   -3.4557 H   0  0  0  0  0  0  0  0  0  0  0  0
   -0.3103    0.4185   -3.5810 H   0  0  0  0  0  0  0  0  0  0  0  0
   -1.4814    0.7986   -4.8597 H   0  0  0  0  0  0  0  0  0  0  0  0
   -0.9913   -0.5132   -0.9812 N   0  0  0  0  0  0  0  0  0  0  0  0
   -0.0681    0.2397   -0.0979 C   0  0  2  0  0  0  0  0  0  0  0  0
    0.8833   -0.7439    0.6227 C   0  0  0  0  0  0  0  0  0  0  0  0
    0.9336   -0.8641    1.8416 O   0  0  0  0  0  0  0  0  0  0  0  0
   -0.6771    1.3186    0.8371 C   0  0  0  0  0  0  0  0  0  0  0  0
   -1.2116    2.5443    0.0911 C   0  0  0  0  0  0  0  0  0  0  0  0
   -0.6557    2.8406   -1.0015 O   0  5  0  0  0  0  0  0  0  0  0  0
   -2.0506    3.2706    0.6763 O   0  0  0  0  0  0  0  0  0  0  0  0
   -0.4977   -1.0564   -1.6780 H   0  0  0  0  0  0  0  0  0  0  0  0
    0.6007    0.7930   -0.7644 H   0  0  0  0  0  0  0  0  0  0  0  0
    0.0897    1.6722    1.5311 H   0  0  0  0  0  0  0  0  0  0  0  0
   -1.4841    0.8751    1.4266 H   0  0  0  0  0  0  0  0  0  0  0  0
    1.7157   -1.5505   -0.1365 N   0  0  0  0  0  0  0  0  0  0  0  0
    2.7206   -2.4625    0.4239 C   0  0  2  0  0  0  0  0  0  0  0  0
    3.9479   -2.6007   -0.4995 C   0  0  0  0  0  0  0  0  0  0  0  0
    3.8655   -2.3118   -1.6892 O   0  0  0  0  0  0  0  0  0  0  0  0
    2.0636   -3.8281    0.6454 C   0  0  0  0  0  0  0  0  0  0  0  0
    1.8069   -1.3248   -1.1247 H   0  0  0  0  0  0  0  0  0  0  0  0
    3.0779   -2.0737    1.3832 H   0  0  0  0  0  0  0  0  0  0  0  0
    1.7148   -4.2434   -0.3056 H   0  0  0  0  0  0  0  0  0  0  0  0
    2.7753   -4.5285    1.0929 H   0  0  0  0  0  0  0  0  0  0  0  0
    1.2058   -3.7303    1.3188 H   0  0  0  0  0  0  0  0  0  0  0  0
    5.1526   -3.0507    0.0099 N   0  0  0  0  0  0  0  0  0  0  0  0
    6.3700   -3.1520   -0.7836 C   0  0  0  0  0  0  0  0  0  0  0  0
    5.1990   -3.2295    1.0089 H   0  0  0  0  0  0  0  0  0  0  0  0
    6.2167   -3.8201   -1.6372 H   0  0  0  0  0  0  0  0  0  0  0  0
    6.6674   -2.1660   -1.1551 H   0  0  0  0  0  0  0  0  0  0  0  0
    7.1853   -3.5532   -0.1742 H   0  0  0  0  0  0  0  0  0  0  0  0
  1  2  2  0  0  0  0
  1  3  1  0  0  0  0
  1  7  1  0  0  0  0
  3  4  1  0  0  0  0
  3  5  1  0  0  0  0
  3  6  1  0  0  0  0
  7  8  1  0  0  0  0
  7 12  1  0  0  0  0
  8  9  1  0  0  0  0
  8 11  1  0  0  0  0
  8 13  1  0  0  0  0
  9 10  2  0  0  0  0
  9 17  1  0  0  0  0
 11 14  1  0  0  0  0
 11 15  1  0  0  0  0
 11 16  1  0  0  0  0
 17 18  1  0  0  0  0
 17 25  1  0  0  0  0
 18 19  1  0  0  0  0
 18 21  1  0  0  0  0
 18 26  1  0  0  0  0
 19 20  2  0  0  0  0
 19 29  1  0  0  0  0
 21 22  1  0  0  0  0
 21 27  1  0  0  0  0
 21 28  1  0  0  0  0
 22 23  1  0  0  0  0
 22 24  2  0  0  0  0
 29 30  1  0  0  0  0
 29 34  1  0  0  0  0
 30 31  1  0  0  0  0
 30 33  1  0  0  0  0
 30 35  1  0  0  0  0
 31 32  2  0  0  0  0
 31 39  1  0  0  0  0
 33 36  1  0  0  0  0
 33 37  1  0  0  0  0
 33 38  1  0  0  0  0
 39 40  1  0  0  0  0
 39 41  1  0  0  0  0
 40 42  1  0  0  0  0
 40 43  1  0  0  0  0
 40 44  1  0  0  0  0
M  CHG  1  23  -1
M  END
$$$$

  -OEChem-05262215553D

 44 43  0     1  0  0  0  0  0999 V2000
   -4.5755    0.0416   -4.2128 C   0  0  0  0  0  0  0  0  0  0  0  0
   -4.2707   -0.8972   -4.9356 O   0  0  0  0  0  0  0  0  0  0  0  0
   -5.9917    0.5868   -4.2375 C   0  0  0  0  0  0  0  0  0  0  0  0
   -5.9755    1.6545   -4.4690 H   0  0  0  0  0  0  0  0  0  0  0  0
   -6.5839    0.0694   -4.9968 H   0  0  0  0  0  0  0  0  0  0  0  0
   -6.4623    0.4414   -3.2618 H   0  0  0  0  0  0  0  0  0  0  0  0
   -3.6478    0.6131   -3.3713 N   0  0  0  0  0  0  0  0  0  0  0  0
   -2.3505    0.0123   -3.0383 C   0  0  2  0  0  0  0  0  0  0  0  0
   -2.1148    0.0265   -1.5111 C   0  0  0  0  0  0  0  0  0  0  0  0
   -3.0487    0.2809   -0.7613 O   0  0  0  0  0  0  0  0  0  0  0  0
   -1.2650    0.8014   -3.7758 C   0  0  0  0  0  0  0  0  0  0  0  0
   -4.0148    1.2580   -2.6698 H   0  0  0  0  0  0  0  0  0  0  0  0
   -2.3188   -1.0324   -3.3621 H   0  0  0  0  0  0  0  0  0  0  0  0
   -1.2699    1.8482   -3.4535 H   0  0  0  0  0  0  0  0  0  0  0  0
   -0.2749    0.3823   -3.5751 H   0  0  0  0  0  0  0  0  0  0  0  0
   -1.4426    0.7694   -4.8551 H   0  0  0  0  0  0  0  0  0  0  0  0
   -0.9675   -0.5173   -0.9652 N   0  0  0  0  0  0  0  0  0  0  0  0
   -0.0433    0.2406   -0.0891 C   0  0  2  0  0  0  0  0  0  0  0  0
    0.9024   -0.7361    0.6445 C   0  0  0  0  0  0  0  0  0  0  0  0
    0.7547   -1.0545    1.8191 O   0  0  0  0  0  0  0  0  0  0  0  0
   -0.6460    1.3204    0.8466 C   0  0  0  0  0  0  0  0  0  0  0  0
   -1.1869    2.5452    0.1045 C   0  0  0  0  0  0  0  0  0  0  0  0
   -0.6388    2.8403   -0.9922 O   0  5  0  0  0  0  0  0  0  0  0  0
   -2.0119    3.2779    0.7013 O   0  0  0  0  0  0  0  0  0  0  0  0
   -0.4744   -1.0779   -1.6489 H   0  0  0  0  0  0  0  0  0  0  0  0
    0.6223    0.7928   -0.7597 H   0  0  0  0  0  0  0  0  0  0  0  0
    0.1260    1.6723    1.5357 H   0  0  0  0  0  0  0  0  0  0  0  0
   -1.4504    0.8769    1.4403 H   0  0  0  0  0  0  0  0  0  0  0  0
    1.9430   -1.3226   -0.0568 N   0  0  0  0  0  0  0  0  0  0  0  0
    2.9419   -2.2169    0.5426 C   0  0  2  0  0  0  0  0  0  0  0  0
    4.3188   -2.0841   -0.1385 C   0  0  0  0  0  0  0  0  0  0  0  0
    4.4044   -1.6670   -1.2889 O   0  0  0  0  0  0  0  0  0  0  0  0
    2.4295   -3.6556    0.4304 C   0  0  0  0  0  0  0  0  0  0  0  0
    2.1593   -0.9428   -0.9769 H   0  0  0  0  0  0  0  0  0  0  0  0
    3.0771   -1.9638    1.5996 H   0  0  0  0  0  0  0  0  0  0  0  0
    2.2923   -3.9311   -0.6200 H   0  0  0  0  0  0  0  0  0  0  0  0
    3.1398   -4.3527    0.8850 H   0  0  0  0  0  0  0  0  0  0  0  0
    1.4691   -3.7567    0.9460 H   0  0  0  0  0  0  0  0  0  0  0  0
    5.4679   -2.4401    0.5445 N   0  0  0  0  0  0  0  0  0  0  0  0
    6.8075   -2.2717   -0.0022 C   0  0  0  0  0  0  0  0  0  0  0  0
    5.3645   -2.7158    1.5168 H   0  0  0  0  0  0  0  0  0  0  0  0
    6.9160   -2.8370   -0.9337 H   0  0  0  0  0  0  0  0  0  0  0  0
    7.0069   -1.2142   -0.2043 H   0  0  0  0  0  0  0  0  0  0  0  0
    7.5537   -2.6354    0.7104 H   0  0  0  0  0  0  0  0  0  0  0  0
  1  2  2  0  0  0  0
  1  3  1  0  0  0  0
  1  7  1  0  0  0  0
  3  4  1  0  0  0  0
  3  5  1  0  0  0  0
  3  6  1  0  0  0  0
  7  8  1  0  0  0  0
  7 12  1  0  0  0  0
  8  9  1  0  0  0  0
  8 11  1  0  0  0  0
  8 13  1  0  0  0  0
  9 10  2  0  0  0  0
  9 17  1  0  0  0  0
 11 14  1  0  0  0  0
 11 15  1  0  0  0  0
 11 16  1  0  0  0  0
 17 18  1  0  0  0  0
 17 25  1  0  0  0  0
 18 19  1  0  0  0  0
 18 21  1  0  0  0  0
 18 26  1  0  0  0  0
 19 20  2  0  0  0  0
 19 29  1  0  0  0  0
 21 22  1  0  0  0  0
 21 27  1  0  0  0  0
 21 28  1  0  0  0  0
 22 23  1  0  0  0  0
 22 24  2  0  0  0  0
 29 30  1  0  0  0  0
 29 34  1  0  0  0  0
 30 31  1  0  0  0  0
 30 33  1  0  0  0  0
 30 35  1  0  0  0  0
 31 32  2  0  0  0  0
 31 39  1  0  0  0  0
 33 36  1  0  0  0  0
 33 37  1  0  0  0  0
 33 38  1  0  0  0  0
 39 40  1  0  0  0  0
 39 41  1  0  0  0  0
 40 42  1  0  0  0  0
 40 43  1  0  0  0  0
 40 44  1  0  0  0  0
M  CHG  1  23  -1
M  END
$$$$

  -OEChem-05262215553D

 44 43  0     1  0  0  0  0  0999 V2000
   -4.5430    0.0106   -4.2168 C   0  0  0  0  0  0  0  0  0  0  0  0
   -4.2053   -0.9115   -4.9463 O   0  0  0  0  0  0  0  0  0  0  0  0
   -5.9721    0.5207   -4.2523 C   0  0  0  0  0  0  0  0  0  0  0  0
   -5.9803    1.5925   -4.4660 H   0  0  0  0  0  0  0  0  0  0  0  0
   -6.5414    0.0014   -5.0280 H   0  0  0  0  0  0  0  0  0  0  0  0
   -6.4512    0.3470   -3.2852 H   0  0  0  0  0  0  0  0  0  0  0  0
   -3.6423    0.5906   -3.3526 N   0  0  0  0  0  0  0  0  0  0  0  0
   -2.3347    0.0191   -3.0113 C   0  0  2  0  0  0  0  0  0  0  0  0
   -2.0978    0.0590   -1.4855 C   0  0  0  0  0  0  0  0  0  0  0  0
   -3.0183    0.3702   -0.7406 O   0  0  0  0  0  0  0  0  0  0  0  0
   -1.2618    0.8203   -3.7540 C   0  0  0  0  0  0  0  0  0  0  0  0
   -4.0306    1.2240   -2.6519 H   0  0  0  0  0  0  0  0  0  0  0  0
   -2.2838   -1.0292   -3.3216 H   0  0  0  0  0  0  0  0  0  0  0  0
   -1.2897    1.8711   -3.4457 H   0  0  0  0  0  0  0  0  0  0  0  0
   -0.2647    0.4242   -3.5415 H   0  0  0  0  0  0  0  0  0  0  0  0
   -1.4315    0.7698   -4.8338 H   0  0  0  0  0  0  0  0  0  0  0  0
   -0.9606   -0.5028   -0.9379 N   0  0  0  0  0  0  0  0  0  0  0  0
   -0.0202    0.2367   -0.0657 C   0  0  2  0  0  0  0  0  0  0  0  0
    0.9097   -0.7501    0.6715 C   0  0  0  0  0  0  0  0  0  0  0  0
    0.5973   -1.2901    1.7266 O   0  0  0  0  0  0  0  0  0  0  0  0
   -0.5873    1.3264    0.8783 C   0  0  0  0  0  0  0  0  0  0  0  0
   -1.1073    2.5663    0.1470 C   0  0  0  0  0  0  0  0  0  0  0  0
   -0.5640    2.8528   -0.9546 O   0  5  0  0  0  0  0  0  0  0  0  0
   -1.8916    3.3245    0.7667 O   0  0  0  0  0  0  0  0  0  0  0  0
   -0.4817   -1.0862   -1.6126 H   0  0  0  0  0  0  0  0  0  0  0  0
    0.6481    0.7760   -0.7439 H   0  0  0  0  0  0  0  0  0  0  0  0
    0.2000    1.6559    1.5610 H   0  0  0  0  0  0  0  0  0  0  0  0
   -1.3966    0.8999    1.4777 H   0  0  0  0  0  0  0  0  0  0  0  0
    2.1099   -1.1170    0.0867 N   0  0  0  0  0  0  0  0  0  0  0  0
    3.1025   -1.9915    0.7239 C   0  0  2  0  0  0  0  0  0  0  0  0
    4.5447   -1.5927    0.3511 C   0  0  0  0  0  0  0  0  0  0  0  0
    4.7755   -1.0146   -0.7057 O   0  0  0  0  0  0  0  0  0  0  0  0
    2.8206   -3.4346    0.2969 C   0  0  0  0  0  0  0  0  0  0  0  0
    2.4264   -0.5655   -0.7099 H   0  0  0  0  0  0  0  0  0  0  0  0
    3.0155   -1.9156    1.8132 H   0  0  0  0  0  0  0  0  0  0  0  0
    2.9007   -3.5350   -0.7900 H   0  0  0  0  0  0  0  0  0  0  0  0
    3.5352   -4.1180    0.7649 H   0  0  0  0  0  0  0  0  0  0  0  0
    1.8110   -3.7289    0.6007 H   0  0  0  0  0  0  0  0  0  0  0  0
    5.5905   -1.8895    1.2065 N   0  0  0  0  0  0  0  0  0  0  0  0
    6.9648   -1.4729    0.9621 C   0  0  0  0  0  0  0  0  0  0  0  0
    5.3535   -2.2996    2.1051 H   0  0  0  0  0  0  0  0  0  0  0  0
    7.3261   -1.8811    0.0125 H   0  0  0  0  0  0  0  0  0  0  0  0
    7.0326   -0.3807    0.9260 H   0  0  0  0  0  0  0  0  0  0  0  0
    7.6159   -1.8344    1.7635 H   0  0  0  0  0  0  0  0  0  0  0  0
  1  2  2  0  0  0  0
  1  3  1  0  0  0  0
  1  7  1  0  0  0  0
  3  4  1  0  0  0  0
  3  5  1  0  0  0  0
  3  6  1  0  0  0  0
  7  8  1  0  0  0  0
  7 12  1  0  0  0  0
  8  9  1  0  0  0  0
  8 11  1  0  0  0  0
  8 13  1  0  0  0  0
  9 10  2  0  0  0  0
  9 17  1  0  0  0  0
 11 14  1  0  0  0  0
 11 15  1  0  0  0  0
 11 16  1  0  0  0  0
 17 18  1  0  0  0  0
 17 25  1  0  0  0  0
 18 19  1  0  0  0  0
 18 21  1  0  0  0  0
 18 26  1  0  0  0  0
 19 20  2  0  0  0  0
 19 29  1  0  0  0  0
 21 22  1  0  0  0  0
 21 27  1  0  0  0  0
 21 28  1  0  0  0  0
 22 23  1  0  0  0  0
 22 24  2  0  0  0  0
 29 30  1  0  0  0  0
 29 34  1  0  0  0  0
 30 31  1  0  0  0  0
 30 33  1  0  0  0  0
 30 35  1  0  0  0  0
 31 32  2  0  0  0  0
 31 39  1  0  0  0  0
 33 36  1  0  0  0  0
 33 37  1  0  0  0  0
 33 38  1  0  0  0  0
 39 40  1  0  0  0  0
 39 41  1  0  0  0  0
 40 42  1  0  0  0  0
 40 43  1  0  0  0  0
 40 44  1  0  0  0  0
M  CHG  1  23  -1
M  END
$$$$

  -OEChem-05262215553D

 44 43  0     1  0  0  0  0  0999 V2000
   -4.5441   -0.0345   -4.2044 C   0  0  0  0  0  0  0  0  0  0  0  0
   -4.1785   -0.9360   -4.9462 O   0  0  0  0  0  0  0  0  0  0  0  0
   -5.9846    0.4420   -4.2431 C   0  0  0  0  0  0  0  0  0  0  0  0
   -6.0184    1.4977   -4.5233 H   0  0  0  0  0  0  0  0  0  0  0  0
   -6.5573   -0.1368   -4.9729 H   0  0  0  0  0  0  0  0  0  0  0  0
   -6.4420    0.3206   -3.2576 H   0  0  0  0  0  0  0  0  0  0  0  0
   -3.6640    0.5543   -3.3250 N   0  0  0  0  0  0  0  0  0  0  0  0
   -2.3378    0.0210   -2.9931 C   0  0  2  0  0  0  0  0  0  0  0  0
   -2.0818    0.0873   -1.4714 C   0  0  0  0  0  0  0  0  0  0  0  0
   -2.9885    0.4357   -0.7255 O   0  0  0  0  0  0  0  0  0  0  0  0
   -1.2928    0.8404   -3.7551 C   0  0  0  0  0  0  0  0  0  0  0  0
   -4.0692    1.1706   -2.6183 H   0  0  0  0  0  0  0  0  0  0  0  0
   -2.2653   -1.0293   -3.2918 H   0  0  0  0  0  0  0  0  0  0  0  0
   -1.3452    1.8942   -3.4599 H   0  0  0  0  0  0  0  0  0  0  0  0
   -0.2842    0.4739   -3.5439 H   0  0  0  0  0  0  0  0  0  0  0  0
   -1.4691    0.7703   -4.8328 H   0  0  0  0  0  0  0  0  0  0  0  0
   -0.9471   -0.4808   -0.9239 N   0  0  0  0  0  0  0  0  0  0  0  0
    0.0006    0.2502   -0.0527 C   0  0  2  0  0  0  0  0  0  0  0  0
    0.9325   -0.7290    0.6919 C   0  0  0  0  0  0  0  0  0  0  0  0
    0.5124   -1.4990    1.5482 O   0  0  0  0  0  0  0  0  0  0  0  0
   -0.5477    1.3479    0.8909 C   0  0  0  0  0  0  0  0  0  0  0  0
   -1.0521    2.5945    0.1596 C   0  0  0  0  0  0  0  0  0  0  0  0
   -0.5084    2.8729   -0.9439 O   0  5  0  0  0  0  0  0  0  0  0  0
   -1.8173    3.3665    0.7860 O   0  0  0  0  0  0  0  0  0  0  0  0
   -0.4767   -1.0821   -1.5889 H   0  0  0  0  0  0  0  0  0  0  0  0
    0.6673    0.7794   -0.7400 H   0  0  0  0  0  0  0  0  0  0  0  0
    0.2457    1.6677    1.5712 H   0  0  0  0  0  0  0  0  0  0  0  0
   -1.3609    0.9329    1.4927 H   0  0  0  0  0  0  0  0  0  0  0  0
    2.2505   -0.8673    0.2898 N   0  0  0  0  0  0  0  0  0  0  0  0
    3.2246   -1.7422    0.9561 C   0  0  2  0  0  0  0  0  0  0  0  0
    4.6406   -1.1322    0.9802 C   0  0  0  0  0  0  0  0  0  0  0  0
    4.9973   -0.3508    0.1053 O   0  0  0  0  0  0  0  0  0  0  0  0
    3.2377   -3.0888    0.2283 C   0  0  0  0  0  0  0  0  0  0  0  0
    2.6227   -0.1497   -0.3317 H   0  0  0  0  0  0  0  0  0  0  0  0
    2.9254   -1.9014    1.9975 H   0  0  0  0  0  0  0  0  0  0  0  0
    3.5378   -2.9552   -0.8158 H   0  0  0  0  0  0  0  0  0  0  0  0
    3.9390   -3.7776    0.7085 H   0  0  0  0  0  0  0  0  0  0  0  0
    2.2405   -3.5397    0.2514 H   0  0  0  0  0  0  0  0  0  0  0  0
    5.5258   -1.4796    1.9848 N   0  0  0  0  0  0  0  0  0  0  0  0
    6.8587   -0.9057    2.1109 C   0  0  0  0  0  0  0  0  0  0  0  0
    5.1758   -2.0787    2.7267 H   0  0  0  0  0  0  0  0  0  0  0  0
    7.4555   -1.1235    1.2192 H   0  0  0  0  0  0  0  0  0  0  0  0
    6.7976    0.1801    2.2394 H   0  0  0  0  0  0  0  0  0  0  0  0
    7.3700   -1.3294    2.9804 H   0  0  0  0  0  0  0  0  0  0  0  0
  1  2  2  0  0  0  0
  1  3  1  0  0  0  0
  1  7  1  0  0  0  0
  3  4  1  0  0  0  0
  3  5  1  0  0  0  0
  3  6  1  0  0  0  0
  7  8  1  0  0  0  0
  7 12  1  0  0  0  0
  8  9  1  0  0  0  0
  8 11  1  0  0  0  0
  8 13  1  0  0  0  0
  9 10  2  0  0  0  0
  9 17  1  0  0  0  0
 11 14  1  0  0  0  0
 11 15  1  0  0  0  0
 11 16  1  0  0  0  0
 17 18  1  0  0  0  0
 17 25  1  0  0  0  0
 18 19  1  0  0  0  0
 18 21  1  0  0  0  0
 18 26  1  0  0  0  0
 19 20  2  0  0  0  0
 19 29  1  0  0  0  0
 21 22  1  0  0  0  0
 21 27  1  0  0  0  0
 21 28  1  0  0  0  0
 22 23  1  0  0  0  0
 22 24  2  0  0  0  0
 29 30  1  0  0  0  0
 29 34  1  0  0  0  0
 30 31  1  0  0  0  0
 30 33  1  0  0  0  0
 30 35  1  0  0  0  0
 31 32  2  0  0  0  0
 31 39  1  0  0  0  0
 33 36  1  0  0  0  0
 33 37  1  0  0  0  0
 33 38  1  0  0  0  0
 39 40  1  0  0  0  0
 39 41  1  0  0  0  0
 40 42  1  0  0  0  0
 40 43  1  0  0  0  0
 40 44  1  0  0  0  0
M  CHG  1  23  -1
M  END
$$$$

  -OEChem-05262215553D

 44 43  0     1  0  0  0  0  0999 V2000
   -4.5053   -0.1106   -4.1984 C   0  0  0  0  0  0  0  0  0  0  0  0
   -4.0928   -1.0056   -4.9230 O   0  0  0  0  0  0  0  0  0  0  0  0
   -5.9687    0.2883   -4.2477 C   0  0  0  0  0  0  0  0  0  0  0  0
   -6.0583    1.3392   -4.5337 H   0  0  0  0  0  0  0  0  0  0  0  0
   -6.5053   -0.3246   -4.9772 H   0  0  0  0  0  0  0  0  0  0  0  0
   -6.4245    0.1467   -3.2647 H   0  0  0  0  0  0  0  0  0  0  0  0
   -3.6572    0.5370   -3.3285 N   0  0  0  0  0  0  0  0  0  0  0  0
   -2.3089    0.0712   -2.9846 C   0  0  2  0  0  0  0  0  0  0  0  0
   -2.0631    0.1592   -1.4631 C   0  0  0  0  0  0  0  0  0  0  0  0
   -2.9608    0.5540   -0.7294 O   0  0  0  0  0  0  0  0  0  0  0  0
   -1.2978    0.9360   -3.7413 C   0  0  0  0  0  0  0  0  0  0  0  0
   -4.0931    1.1437   -2.6323 H   0  0  0  0  0  0  0  0  0  0  0  0
   -2.1829   -0.9752   -3.2782 H   0  0  0  0  0  0  0  0  0  0  0  0
   -1.3880    1.9838   -3.4348 H   0  0  0  0  0  0  0  0  0  0  0  0
   -0.2759    0.6046   -3.5357 H   0  0  0  0  0  0  0  0  0  0  0  0
   -1.4736    0.8706   -4.8192 H   0  0  0  0  0  0  0  0  0  0  0  0
   -0.9456   -0.4314   -0.9060 N   0  0  0  0  0  0  0  0  0  0  0  0
    0.0149    0.2676   -0.0238 C   0  0  2  0  0  0  0  0  0  0  0  0
    0.9216   -0.7308    0.7261 C   0  0  0  0  0  0  0  0  0  0  0  0
    0.4608   -1.6835    1.3455 O   0  0  0  0  0  0  0  0  0  0  0  0
   -0.5061    1.3727    0.9258 C   0  0  0  0  0  0  0  0  0  0  0  0
   -0.9716    2.6395    0.2042 C   0  0  0  0  0  0  0  0  0  0  0  0
   -0.4153    2.9120   -0.8942 O   0  5  0  0  0  0  0  0  0  0  0  0
   -1.7050    3.4326    0.8424 O   0  0  0  0  0  0  0  0  0  0  0  0
   -0.4910   -1.0624   -1.5542 H   0  0  0  0  0  0  0  0  0  0  0  0
    0.6968    0.7803   -0.7090 H   0  0  0  0  0  0  0  0  0  0  0  0
    0.2918    1.6639    1.6136 H   0  0  0  0  0  0  0  0  0  0  0  0
   -1.3342    0.9753    1.5193 H   0  0  0  0  0  0  0  0  0  0  0  0
    2.2940   -0.6779    0.5533 N   0  0  0  0  0  0  0  0  0  0  0  0
    3.2441   -1.5521    1.2537 C   0  0  2  0  0  0  0  0  0  0  0  0
    4.5508   -0.8178    1.6149 C   0  0  0  0  0  0  0  0  0  0  0  0
    4.9743    0.0838    0.9005 O   0  0  0  0  0  0  0  0  0  0  0  0
    3.5420   -2.7594    0.3610 C   0  0  0  0  0  0  0  0  0  0  0  0
    2.6726    0.1618    0.1148 H   0  0  0  0  0  0  0  0  0  0  0  0
    2.7998   -1.9018    2.1914 H   0  0  0  0  0  0  0  0  0  0  0  0
    3.9891   -2.4350   -0.5840 H   0  0  0  0  0  0  0  0  0  0  0  0
    4.2363   -3.4416    0.8604 H   0  0  0  0  0  0  0  0  0  0  0  0
    2.6190   -3.3053    0.1418 H   0  0  0  0  0  0  0  0  0  0  0  0
    5.2629   -1.1813    2.7439 N   0  0  0  0  0  0  0  0  0  0  0  0
    6.4554   -0.4757    3.1937 C   0  0  0  0  0  0  0  0  0  0  0  0
    4.8378   -1.8686    3.3593 H   0  0  0  0  0  0  0  0  0  0  0  0
    7.2243   -0.4865    2.4142 H   0  0  0  0  0  0  0  0  0  0  0  0
    6.2139    0.5641    3.4382 H   0  0  0  0  0  0  0  0  0  0  0  0
    6.8643   -0.9569    4.0872 H   0  0  0  0  0  0  0  0  0  0  0  0
  1  2  2  0  0  0  0
  1  3  1  0  0  0  0
  1  7  1  0  0  0  0
  3  4  1  0  0  0  0
  3  5  1  0  0  0  0
  3  6  1  0  0  0  0
  7  8  1  0  0  0  0
  7 12  1  0  0  0  0
  8  9  1  0  0  0  0
  8 11  1  0  0  0  0
  8 13  1  0  0  0  0
  9 10  2  0  0  0  0
  9 17  1  0  0  0  0
 11 14  1  0  0  0  0
 11 15  1  0  0  0  0
 11 16  1  0  0  0  0
 17 18  1  0  0  0  0
 17 25  1  0  0  0  0
 18 19  1  0  0  0  0
 18 21  1  0  0  0  0
 18 26  1  0  0  0  0
 19 20  2  0  0  0  0
 19 29  1  0  0  0  0
 21 22  1  0  0  0  0
 21 27  1  0  0  0  0
 21 28  1  0  0  0  0
 22 23  1  0  0  0  0
 22 24  2  0  0  0  0
 29 30  1  0  0  0  0
 29 34  1  0  0  0  0
 30 31  1  0  0  0  0
 30 33  1  0  0  0  0
 30 35  1  0  0  0  0
 31 32  2  0  0  0  0
 31 39  1  0  0  0  0
 33 36  1  0  0  0  0
 33 37  1  0  0  0  0
 33 38  1  0  0  0  0
 39 40  1  0  0  0  0
 39 41  1  0  0  0  0
 40 42  1  0  0  0  0
 40 43  1  0  0  0  0
 40 44  1  0  0  0  0
M  CHG  1  23  -1
M  END
$$$$

  -OEChem-05262215553D

 44 43  0     1  0  0  0  0  0999 V2000
   -4.6007   -0.2968   -4.1156 C   0  0  0  0  0  0  0  0  0  0  0  0
   -4.3623   -1.4148   -4.5497 O   0  0  0  0  0  0  0  0  0  0  0  0
   -5.9608    0.3342   -4.3512 C   0  0  0  0  0  0  0  0  0  0  0  0
   -5.8520    1.2353   -4.9596 H   0  0  0  0  0  0  0  0  0  0  0  0
   -6.6185   -0.3664   -4.8723 H   0  0  0  0  0  0  0  0  0  0  0  0
   -6.4172    0.6024   -3.3949 H   0  0  0  0  0  0  0  0  0  0  0  0
   -3.6435    0.3997   -3.4126 N   0  0  0  0  0  0  0  0  0  0  0  0
   -2.3849   -0.1755   -2.9227 C   0  0  2  0  0  0  0  0  0  0  0  0
   -1.9406    0.5045   -1.6070 C   0  0  0  0  0  0  0  0  0  0  0  0
   -2.6831    1.3371   -1.1118 O   0  0  0  0  0  0  0  0  0  0  0  0
   -1.3181   -0.0093   -4.0102 C   0  0  0  0  0  0  0  0  0  0  0  0
   -3.9486    1.2466   -2.9285 H   0  0  0  0  0  0  0  0  0  0  0  0
   -2.5243   -1.2403   -2.7092 H   0  0  0  0  0  0  0  0  0  0  0  0
   -1.1411    1.0527   -4.2098 H   0  0  0  0  0  0  0  0  0  0  0  0
   -0.3748   -0.4679   -3.6995 H   0  0  0  0  0  0  0  0  0  0  0  0
   -1.6440   -0.4895   -4.9379 H   0  0  0  0  0  0  0  0  0  0  0  0
   -0.8160    0.0294   -0.9576 N   0  0  0  0  0  0  0  0  0  0  0  0
    0.0368    0.6284    0.0938 C   0  0  2  0  0  0  0  0  0  0  0  0
    0.9284   -0.4530    0.7355 C   0  0  0  0  0  0  0  0  0  0  0  0
    0.5535   -1.6218    0.7910 O   0  0  0  0  0  0  0  0  0  0  0  0
   -0.5667    1.5628    1.1681 C   0  0  0  0  0  0  0  0  0  0  0  0
   -1.0363    2.9274    0.6632 C   0  0  0  0  0  0  0  0  0  0  0  0
   -0.4394    3.4101   -0.3368 O   0  5  0  0  0  0  0  0  0  0  0  0
   -1.7996    3.5768    1.4213 O   0  0  0  0  0  0  0  0  0  0  0  0
   -0.4535   -0.8390   -1.3379 H   0  0  0  0  0  0  0  0  0  0  0  0
    0.7379    1.2609   -0.4601 H   0  0  0  0  0  0  0  0  0  0  0  0
    0.1834    1.7513    1.9404 H   0  0  0  0  0  0  0  0  0  0  0  0
   -1.4141    1.0558    1.6373 H   0  0  0  0  0  0  0  0  0  0  0  0
    2.2686   -0.1963    0.9614 N   0  0  0  0  0  0  0  0  0  0  0  0
    3.2218   -1.1792    1.4924 C   0  0  2  0  0  0  0  0  0  0  0  0
    4.2763   -0.5386    2.4177 C   0  0  0  0  0  0  0  0  0  0  0  0
    4.6070    0.6321    2.2708 O   0  0  0  0  0  0  0  0  0  0  0  0
    3.9061   -1.8700    0.3100 C   0  0  0  0  0  0  0  0  0  0  0  0
    2.5591    0.7824    0.9510 H   0  0  0  0  0  0  0  0  0  0  0  0
    2.6845   -1.9275    2.0842 H   0  0  0  0  0  0  0  0  0  0  0  0
    4.4521   -1.1387   -0.2948 H   0  0  0  0  0  0  0  0  0  0  0  0
    4.6116   -2.6270    0.6647 H   0  0  0  0  0  0  0  0  0  0  0  0
    3.1615   -2.3611   -0.3245 H   0  0  0  0  0  0  0  0  0  0  0  0
    4.8785   -1.2929    3.4091 N   0  0  0  0  0  0  0  0  0  0  0  0
    5.8436   -0.7449    4.3529 C   0  0  0  0  0  0  0  0  0  0  0  0
    4.5386   -2.2400    3.5463 H   0  0  0  0  0  0  0  0  0  0  0  0
    6.7036   -0.3245    3.8215 H   0  0  0  0  0  0  0  0  0  0  0  0
    5.3818    0.0430    4.9567 H   0  0  0  0  0  0  0  0  0  0  0  0
    6.2033   -1.5308    5.0239 H   0  0  0  0  0  0  0  0  0  0  0  0
  1  2  2  0  0  0  0
  1  3  1  0  0  0  0
  1  7  1  0  0  0  0
  3  4  1  0  0  0  0
  3  5  1  0  0  0  0
  3  6  1  0  0  0  0
  7  8  1  0  0  0  0
  7 12  1  0  0  0  0
  8  9  1  0  0  0  0
  8 11  1  0  0  0  0
  8 13  1  0  0  0  0
  9 10  2  0  0  0  0
  9 17  1  0  0  0  0
 11 14  1  0  0  0  0
 11 15  1  0  0  0  0
 11 16  1  0  0  0  0
 17 18  1  0  0  0  0
 17 25  1  0  0  0  0
 18 19  1  0  0  0  0
 18 21  1  0  0  0  0
 18 26  1  0  0  0  0
 19 20  2  0  0  0  0
 19 29  1  0  0  0  0
 21 22  1  0  0  0  0
 21 27  1  0  0  0  0
 21 28  1  0  0  0  0
 22 23  1  0  0  0  0
 22 24  2  0  0  0  0
 29 30  1  0  0  0  0
 29 34  1  0  0  0  0
 30 31  1  0  0  0  0
 30 33  1  0  0  0  0
 30 35  1  0  0  0  0
 31 32  2  0  0  0  0
 31 39  1  0  0  0  0
 33 36  1  0  0  0  0
 33 37  1  0  0  0  0
 33 38  1  0  0  0  0
 39 40  1  0  0  0  0
 39 41  1  0  0  0  0
 40 42  1  0  0  0  0
 40 43  1  0  0  0  0
 40 44  1  0  0  0  0
M  CHG  1  23  -1
M  END
$$$$

  -OEChem-05262215553D

 44 43  0     1  0  0  0  0  0999 V2000
   -4.5900   -0.3058   -4.1256 C   0  0  0  0  0  0  0  0  0  0  0  0
   -4.3390   -1.4174   -4.5690 O   0  0  0  0  0  0  0  0  0  0  0  0
   -5.9519    0.3185   -4.3688 C   0  0  0  0  0  0  0  0  0  0  0  0
   -5.8414    1.2296   -4.9621 H   0  0  0  0  0  0  0  0  0  0  0  0
   -6.5983   -0.3794   -4.9081 H   0  0  0  0  0  0  0  0  0  0  0  0
   -6.4220    0.5699   -3.4146 H   0  0  0  0  0  0  0  0  0  0  0  0
   -3.6442    0.3911   -3.4082 N   0  0  0  0  0  0  0  0  0  0  0  0
   -2.3805   -0.1733   -2.9196 C   0  0  2  0  0  0  0  0  0  0  0  0
   -1.9555    0.4943   -1.5915 C   0  0  0  0  0  0  0  0  0  0  0  0
   -2.7126    1.3103   -1.0896 O   0  0  0  0  0  0  0  0  0  0  0  0
   -1.3100    0.0276   -3.9976 C   0  0  0  0  0  0  0  0  0  0  0  0
   -3.9585    1.2319   -2.9195 H   0  0  0  0  0  0  0  0  0  0  0  0
   -2.5041   -1.2434   -2.7232 H   0  0  0  0  0  0  0  0  0  0  0  0
   -1.1571    1.0951   -4.1876 H   0  0  0  0  0  0  0  0  0  0  0  0
   -0.3585   -0.4106   -3.6830 H   0  0  0  0  0  0  0  0  0  0  0  0
   -1.6172   -0.4529   -4.9315 H   0  0  0  0  0  0  0  0  0  0  0  0
   -0.8381    0.0186   -0.9304 N   0  0  0  0  0  0  0  0  0  0  0  0
    0.0206    0.6325    0.1073 C   0  0  2  0  0  0  0  0  0  0  0  0
    0.9001   -0.4411    0.7803 C   0  0  0  0  0  0  0  0  0  0  0  0
    0.6382   -1.6357    0.6525 O   0  0  0  0  0  0  0  0  0  0  0  0
   -0.5843    1.6038    1.1490 C   0  0  0  0  0  0  0  0  0  0  0  0
   -1.0341    2.9572    0.5969 C   0  0  0  0  0  0  0  0  0  0  0  0
   -0.4219    3.4026   -0.4109 O   0  5  0  0  0  0  0  0  0  0  0  0
   -1.7944    3.6394    1.3286 O   0  0  0  0  0  0  0  0  0  0  0  0
   -0.4625   -0.8434   -1.3133 H   0  0  0  0  0  0  0  0  0  0  0  0
    0.7354    1.2398   -0.4572 H   0  0  0  0  0  0  0  0  0  0  0  0
    0.1548    1.8085    1.9273 H   0  0  0  0  0  0  0  0  0  0  0  0
   -1.4445    1.1198    1.6195 H   0  0  0  0  0  0  0  0  0  0  0  0
    2.1432   -0.1027    1.2840 N   0  0  0  0  0  0  0  0  0  0  0  0
    3.0866   -1.0598    1.8768 C   0  0  2  0  0  0  0  0  0  0  0  0
    3.8846   -0.4581    3.0514 C   0  0  0  0  0  0  0  0  0  0  0  0
    4.1254    0.7424    3.0960 O   0  0  0  0  0  0  0  0  0  0  0  0
    4.0418   -1.5365    0.7792 C   0  0  0  0  0  0  0  0  0  0  0  0
    2.3331    0.8917    1.4168 H   0  0  0  0  0  0  0  0  0  0  0  0
    2.5351   -1.9198    2.2707 H   0  0  0  0  0  0  0  0  0  0  0  0
    4.6098   -0.6925    0.3742 H   0  0  0  0  0  0  0  0  0  0  0  0
    4.7462   -2.2728    1.1780 H   0  0  0  0  0  0  0  0  0  0  0  0
    3.4795   -2.0022   -0.0362 H   0  0  0  0  0  0  0  0  0  0  0  0
    4.3620   -1.2819    4.0552 N   0  0  0  0  0  0  0  0  0  0  0  0
    5.0850   -0.7869    5.2190 C   0  0  0  0  0  0  0  0  0  0  0  0
    4.0989   -2.2619    4.0187 H   0  0  0  0  0  0  0  0  0  0  0  0
    6.0011   -0.2731    4.9103 H   0  0  0  0  0  0  0  0  0  0  0  0
    4.4624   -0.0883    5.7874 H   0  0  0  0  0  0  0  0  0  0  0  0
    5.3596   -1.6187    5.8745 H   0  0  0  0  0  0  0  0  0  0  0  0
  1  2  2  0  0  0  0
  1  3  1  0  0  0  0
  1  7  1  0  0  0  0
  3  4  1  0  0  0  0
  3  5  1  0  0  0  0
  3  6  1  0  0  0  0
  7  8  1  0  0  0  0
  7 12  1  0  0  0  0
  8  9  1  0  0  0  0
  8 11  1  0  0  0  0
  8 13  1  0  0  0  0
  9 10  2  0  0  0  0
  9 17  1  0  0  0  0
 11 14  1  0  0  0  0
 11 15  1  0  0  0  0
 11 16  1  0  0  0  0
 17 18  1  0  0  0  0
 17 25  1  0  0  0  0
 18 19  1  0  0  0  0
 18 21  1  0  0  0  0
 18 26  1  0  0  0  0
 19 20  2  0  0  0  0
 19 29  1  0  0  0  0
 21 22  1  0  0  0  0
 21 27  1  0  0  0  0
 21 28  1  0  0  0  0
 22 23  1  0  0  0  0
 22 24  2  0  0  0  0
 29 30  1  0  0  0  0
 29 34  1  0  0  0  0
 30 31  1  0  0  0  0
 30 33  1  0  0  0  0
 30 35  1  0  0  0  0
 31 32  2  0  0  0  0
 31 39  1  0  0  0  0
 33 36  1  0  0  0  0
 33 37  1  0  0  0  0
 33 38  1  0  0  0  0
 39 40  1  0  0  0  0
 39 41  1  0  0  0  0
 40 42  1  0  0  0  0
 40 43  1  0  0  0  0
 40 44  1  0  0  0  0
M  CHG  1  23  -1
M  END
$$$$

  -OEChem-05262215553D

 44 43  0     1  0  0  0  0  0999 V2000
   -4.5642   -0.2956   -4.1501 C   0  0  0  0  0  0  0  0  0  0  0  0
   -4.2867   -1.3902   -4.6193 O   0  0  0  0  0  0  0  0  0  0  0  0
   -5.9391    0.3025   -4.3852 C   0  0  0  0  0  0  0  0  0  0  0  0
   -5.8472    1.2287   -4.9577 H   0  0  0  0  0  0  0  0  0  0  0  0
   -6.5664   -0.3981   -4.9429 H   0  0  0  0  0  0  0  0  0  0  0  0
   -6.4196    0.5205   -3.4279 H   0  0  0  0  0  0  0  0  0  0  0  0
   -3.6399    0.4008   -3.4046 N   0  0  0  0  0  0  0  0  0  0  0  0
   -2.3776   -0.1605   -2.9091 C   0  0  2  0  0  0  0  0  0  0  0  0
   -1.9958    0.4611   -1.5471 C   0  0  0  0  0  0  0  0  0  0  0  0
   -2.7872    1.2243   -1.0139 O   0  0  0  0  0  0  0  0  0  0  0  0
   -1.2860    0.0992   -3.9529 C   0  0  0  0  0  0  0  0  0  0  0  0
   -3.9772    1.2209   -2.8964 H   0  0  0  0  0  0  0  0  0  0  0  0
   -2.4853   -1.2394   -2.7561 H   0  0  0  0  0  0  0  0  0  0  0  0
   -1.1487    1.1755   -4.0997 H   0  0  0  0  0  0  0  0  0  0  0  0
   -0.3334   -0.3329   -3.6322 H   0  0  0  0  0  0  0  0  0  0  0  0
   -1.5630   -0.3513   -4.9109 H   0  0  0  0  0  0  0  0  0  0  0  0
   -0.8857   -0.0196   -0.8795 N   0  0  0  0  0  0  0  0  0  0  0  0
   -0.0052    0.6248    0.1198 C   0  0  2  0  0  0  0  0  0  0  0  0
    0.8516   -0.4441    0.8319 C   0  0  0  0  0  0  0  0  0  0  0  0
    0.7094   -1.6367    0.5650 O   0  0  0  0  0  0  0  0  0  0  0  0
   -0.5963    1.6551    1.1140 C   0  0  0  0  0  0  0  0  0  0  0  0
   -1.0275    2.9809    0.4845 C   0  0  0  0  0  0  0  0  0  0  0  0
   -0.4093    3.3592   -0.5469 O   0  5  0  0  0  0  0  0  0  0  0  0
   -1.7798    3.7142    1.1731 O   0  0  0  0  0  0  0  0  0  0  0  0
   -0.4814   -0.8546   -1.2926 H   0  0  0  0  0  0  0  0  0  0  0  0
    0.7237    1.1887   -0.4706 H   0  0  0  0  0  0  0  0  0  0  0  0
    0.1452    1.8968    1.8790 H   0  0  0  0  0  0  0  0  0  0  0  0
   -1.4609    1.2079    1.6119 H   0  0  0  0  0  0  0  0  0  0  0  0
    1.9568   -0.0772    1.5780 N   0  0  0  0  0  0  0  0  0  0  0  0
    2.8653   -1.0239    2.2376 C   0  0  2  0  0  0  0  0  0  0  0  0
    3.3708   -0.5105    3.6008 C   0  0  0  0  0  0  0  0  0  0  0  0
    3.4813    0.6905    3.8165 O   0  0  0  0  0  0  0  0  0  0  0  0
    4.0456   -1.2853    1.2986 C   0  0  0  0  0  0  0  0  0  0  0  0
    2.0396    0.9098    1.8255 H   0  0  0  0  0  0  0  0  0  0  0  0
    2.3408   -1.9666    2.4249 H   0  0  0  0  0  0  0  0  0  0  0  0
    4.5888   -0.3554    1.1012 H   0  0  0  0  0  0  0  0  0  0  0  0
    4.7371   -2.0066    1.7441 H   0  0  0  0  0  0  0  0  0  0  0  0
    3.6890   -1.6900    0.3461 H   0  0  0  0  0  0  0  0  0  0  0  0
    3.7353   -1.4120    4.5848 N   0  0  0  0  0  0  0  0  0  0  0  0
    4.1918   -1.0096    5.9080 C   0  0  0  0  0  0  0  0  0  0  0  0
    3.5851   -2.3977    4.3932 H   0  0  0  0  0  0  0  0  0  0  0  0
    5.1049   -0.4103    5.8313 H   0  0  0  0  0  0  0  0  0  0  0  0
    3.4223   -0.4185    6.4154 H   0  0  0  0  0  0  0  0  0  0  0  0
    4.4078   -1.8925    6.5167 H   0  0  0  0  0  0  0  0  0  0  0  0
  1  2  2  0  0  0  0
  1  3  1  0  0  0  0
  1  7  1  0  0  0  0
  3  4  1  0  0  0  0
  3  5  1  0  0  0  0
  3  6  1  0  0  0  0
  7  8  1  0  0  0  0
  7 12  1  0  0  0  0
  8  9  1  0  0  0  0
  8 11  1  0  0  0  0
  8 13  1  0  0  0  0
  9 10  2  0  0  0  0
  9 17  1  0  0  0  0
 11 14  1  0  0  0  0
 11 15  1  0  0  0  0
 11 16  1  0  0  0  0
 17 18  1  0  0  0  0
 17 25  1  0  0  0  0
 18 19  1  0  0  0  0
 18 21  1  0  0  0  0
 18 26  1  0  0  0  0
 19 20  2  0  0  0  0
 19 29  1  0  0  0  0
 21 22  1  0  0  0  0
 21 27  1  0  0  0  0
 21 28  1  0  0  0  0
 22 23  1  0  0  0  0
 22 24  2  0  0  0  0
 29 30  1  0  0  0  0
 29 34  1  0  0  0  0
 30 31  1  0  0  0  0
 30 33  1  0  0  0  0
 30 35  1  0  0  0  0
 31 32  2  0  0  0  0
 31 39  1  0  0  0  0
 33 36  1  0  0  0  0
 33 37  1  0  0  0  0
 33 38  1  0  0  0  0
 39 40  1  0  0  0  0
 39 41  1  0  0  0  0
 40 42  1  0  0  0  0
 40 43  1  0  0  0  0
 40 44  1  0  0  0  0
M  CHG  1  23  -1
M  END
$$$$
