
  -OEChem-05262214473D

 44 43  0     1  0  0  0  0  0999 V2000
   -4.0256   -1.8030   -2.1581 C   0  0  0  0  0  0  0  0  0  0  0  0
   -3.7513   -2.6782   -2.9709 O   0  0  0  0  0  0  0  0  0  0  0  0
   -5.3491   -1.1169   -2.2339 C   0  0  0  0  0  0  0  0  0  0  0  0
   -5.3223   -0.2211   -2.8750 H   0  0  0  0  0  0  0  0  0  0  0  0
   -6.1322   -1.7605   -2.6658 H   0  0  0  0  0  0  0  0  0  0  0  0
   -5.7568   -0.7715   -1.2704 H   0  0  0  0  0  0  0  0  0  0  0  0
   -3.2124   -1.3578   -1.1289 N   0  0  0  0  0  0  0  0  0  0  0  0
   -1.8971   -1.8843   -0.8752 C   0  0  2  0  0  0  0  0  0  0  0  0
   -1.2676   -1.0599    0.2399 C   0  0  0  0  0  0  0  0  0  0  0  0
   -1.6270    0.0833    0.5138 O   0  0  0  0  0  0  0  0  0  0  0  0
   -1.0364   -1.8506   -2.1285 C   0  0  0  0  0  0  0  0  0  0  0  0
   -3.5631   -0.6202   -0.5206 H   0  0  0  0  0  0  0  0  0  0  0  0
   -2.0301   -2.9174   -0.5360 H   0  0  0  0  0  0  0  0  0  0  0  0
   -0.8921   -0.8236   -2.4833 H   0  0  0  0  0  0  0  0  0  0  0  0
   -0.0457   -2.2777   -1.9410 H   0  0  0  0  0  0  0  0  0  0  0  0
   -1.5052   -2.4193   -2.9387 H   0  0  0  0  0  0  0  0  0  0  0  0
   -0.2267   -1.7335    0.8672 N   0  0  0  0  0  0  0  0  0  0  0  0
    0.5363   -1.1590    1.9465 C   0  0  2  0  0  0  0  0  0  0  0  0
    1.5757   -2.1932    2.3633 C   0  0  0  0  0  0  0  0  0  0  0  0
    1.7066   -3.2773    1.7987 O   0  0  0  0  0  0  0  0  0  0  0  0
   -0.3506   -0.7825    3.1311 C   0  0  0  0  0  0  0  0  0  0  0  0
   -1.3142    0.3915    2.9154 C   0  0  0  0  0  0  0  0  0  0  0  0
   -0.9054    1.2478    2.0784 O   0  5  0  0  0  0  0  0  0  0  0  0
   -2.3806    0.3785    3.5887 O   0  0  0  0  0  0  0  0  0  0  0  0
   -0.0113   -2.6869    0.5854 H   0  0  0  0  0  0  0  0  0  0  0  0
    1.0467   -0.2793    1.5384 H   0  0  0  0  0  0  0  0  0  0  0  0
    0.2766   -0.5484    4.0022 H   0  0  0  0  0  0  0  0  0  0  0  0
   -0.9701   -1.6426    3.4169 H   0  0  0  0  0  0  0  0  0  0  0  0
    2.3731   -1.7408    3.4053 N   0  0  0  0  0  0  0  0  0  0  0  0
    3.4527   -2.5234    3.9606 C   0  0  2  0  0  0  0  0  0  0  0  0
    3.5829   -2.1655    5.4352 C   0  0  0  0  0  0  0  0  0  0  0  0
    3.1729   -1.1072    5.9073 O   0  0  0  0  0  0  0  0  0  0  0  0
    4.7575   -2.2687    3.2222 C   0  0  0  0  0  0  0  0  0  0  0  0
    2.2234   -0.8087    3.7802 H   0  0  0  0  0  0  0  0  0  0  0  0
    3.1630   -3.5755    3.8638 H   0  0  0  0  0  0  0  0  0  0  0  0
    5.0638   -1.2197    3.3079 H   0  0  0  0  0  0  0  0  0  0  0  0
    5.5685   -2.8838    3.6258 H   0  0  0  0  0  0  0  0  0  0  0  0
    4.6533   -2.4984    2.1562 H   0  0  0  0  0  0  0  0  0  0  0  0
    4.2494   -3.1481    6.1539 N   0  0  0  0  0  0  0  0  0  0  0  0
    4.5096   -3.0370    7.5702 C   0  0  0  0  0  0  0  0  0  0  0  0
    4.5374   -4.0017    5.6846 H   0  0  0  0  0  0  0  0  0  0  0  0
    5.5001   -2.5851    7.7271 H   0  0  0  0  0  0  0  0  0  0  0  0
    3.7399   -2.4038    8.0357 H   0  0  0  0  0  0  0  0  0  0  0  0
    4.4866   -4.0375    8.0267 H   0  0  0  0  0  0  0  0  0  0  0  0
  1  3  1  0  0  0  0
  1  7  1  0  0  0  0
  1  2  2  0  0  0  0
 30 31  1  0  0  0  0
 31 39  1  0  0  0  0
 31 32  2  0  0  0  0
  8  9  1  0  0  0  0
  9 17  1  0  0  0  0
  9 10  2  0  0  0  0
 18 19  1  0  0  0  0
 19 29  1  0  0  0  0
 19 20  2  0  0  0  0
 21 22  1  0  0  0  0
 22 23  1  0  0  0  0
 22 24  2  0  0  0  0
 30 33  1  0  0  0  0
  8 11  1  0  0  0  0
 39 40  1  0  0  0  0
 18 21  1  0  0  0  0
 29 30  1  0  0  0  0
  7  8  1  0  0  0  0
 17 18  1  0  0  0  0
  3  4  1  0  0  0  0
  3  5  1  0  0  0  0
  3  6  1  0  0  0  0
 33 36  1  0  0  0  0
 33 37  1  0  0  0  0
 33 38  1  0  0  0  0
 11 14  1  0  0  0  0
 11 15  1  0  0  0  0
 11 16  1  0  0  0  0
 40 42  1  0  0  0  0
 40 43  1  0  0  0  0
 40 44  1  0  0  0  0
 21 27  1  0  0  0  0
 21 28  1  0  0  0  0
 30 35  1  0  0  0  0
  8 13  1  0  0  0  0
 18 26  1  0  0  0  0
 39 41  1  0  0  0  0
  7 12  1  0  0  0  0
 29 34  1  0  0  0  0
 17 25  1  0  0  0  0
M  CHG  1  23  -1
M  END
$$$$

  -OEChem-05262214473D

 44 43  0     1  0  0  0  0  0999 V2000
   -4.0256   -1.8030   -2.1581 C   0  0  0  0  0  0  0  0  0  0  0  0
   -3.7513   -2.6782   -2.9709 O   0  0  0  0  0  0  0  0  0  0  0  0
   -5.3491   -1.1169   -2.2339 C   0  0  0  0  0  0  0  0  0  0  0  0
   -5.3223   -0.2211   -2.8750 H   0  0  0  0  0  0  0  0  0  0  0  0
   -6.1322   -1.7605   -2.6658 H   0  0  0  0  0  0  0  0  0  0  0  0
   -5.7568   -0.7715   -1.2704 H   0  0  0  0  0  0  0  0  0  0  0  0
   -3.2124   -1.3578   -1.1289 N   0  0  0  0  0  0  0  0  0  0  0  0
   -1.8971   -1.8843   -0.8752 C   0  0  2  0  0  0  0  0  0  0  0  0
   -1.2676   -1.0599    0.2399 C   0  0  0  0  0  0  0  0  0  0  0  0
   -1.6270    0.0833    0.5138 O   0  0  0  0  0  0  0  0  0  0  0  0
   -1.0364   -1.8506   -2.1285 C   0  0  0  0  0  0  0  0  0  0  0  0
   -3.5631   -0.6202   -0.5206 H   0  0  0  0  0  0  0  0  0  0  0  0
   -2.0301   -2.9174   -0.5360 H   0  0  0  0  0  0  0  0  0  0  0  0
   -0.8921   -0.8236   -2.4833 H   0  0  0  0  0  0  0  0  0  0  0  0
   -0.0457   -2.2777   -1.9410 H   0  0  0  0  0  0  0  0  0  0  0  0
   -1.5052   -2.4193   -2.9387 H   0  0  0  0  0  0  0  0  0  0  0  0
   -0.2267   -1.7335    0.8672 N   0  0  0  0  0  0  0  0  0  0  0  0
    0.5363   -1.1590    1.9465 C   0  0  2  0  0  0  0  0  0  0  0  0
    1.5757   -2.1932    2.3633 C   0  0  0  0  0  0  0  0  0  0  0  0
    1.8936   -3.1470    1.6558 O   0  0  0  0  0  0  0  0  0  0  0  0
   -0.3506   -0.7825    3.1311 C   0  0  0  0  0  0  0  0  0  0  0  0
   -1.3142    0.3915    2.9154 C   0  0  0  0  0  0  0  0  0  0  0  0
   -0.9054    1.2478    2.0784 O   0  5  0  0  0  0  0  0  0  0  0  0
   -2.3806    0.3785    3.5887 O   0  0  0  0  0  0  0  0  0  0  0  0
   -0.0113   -2.6869    0.5854 H   0  0  0  0  0  0  0  0  0  0  0  0
    1.0467   -0.2793    1.5384 H   0  0  0  0  0  0  0  0  0  0  0  0
    0.2766   -0.5484    4.0022 H   0  0  0  0  0  0  0  0  0  0  0  0
   -0.9701   -1.6426    3.4169 H   0  0  0  0  0  0  0  0  0  0  0  0
    2.1430   -1.8958    3.5945 N   0  0  0  0  0  0  0  0  0  0  0  0
    3.1767   -2.7061    4.1956 C   0  0  2  0  0  0  0  0  0  0  0  0
    3.0240   -2.6172    5.7083 C   0  0  0  0  0  0  0  0  0  0  0  0
    2.4500   -1.6872    6.2710 O   0  0  0  0  0  0  0  0  0  0  0  0
    4.5606   -2.2493    3.7611 C   0  0  0  0  0  0  0  0  0  0  0  0
    1.8520   -1.0576    4.0890 H   0  0  0  0  0  0  0  0  0  0  0  0
    2.9998   -3.7370    3.8700 H   0  0  0  0  0  0  0  0  0  0  0  0
    4.7561   -1.2185    4.0784 H   0  0  0  0  0  0  0  0  0  0  0  0
    5.3418   -2.8823    4.1949 H   0  0  0  0  0  0  0  0  0  0  0  0
    4.6586   -2.2856    2.6708 H   0  0  0  0  0  0  0  0  0  0  0  0
    3.6417   -3.6765    6.3583 N   0  0  0  0  0  0  0  0  0  0  0  0
    3.6479   -3.8119    7.7962 C   0  0  0  0  0  0  0  0  0  0  0  0
    4.0778   -4.4127    5.8110 H   0  0  0  0  0  0  0  0  0  0  0  0
    4.5547   -3.3426    8.2054 H   0  0  0  0  0  0  0  0  0  0  0  0
    2.7587   -3.3178    8.2148 H   0  0  0  0  0  0  0  0  0  0  0  0
    3.6347   -4.8788    8.0639 H   0  0  0  0  0  0  0  0  0  0  0  0
  1  3  1  0  0  0  0
  1  7  1  0  0  0  0
  1  2  2  0  0  0  0
 30 31  1  0  0  0  0
 31 39  1  0  0  0  0
 31 32  2  0  0  0  0
  8  9  1  0  0  0  0
  9 17  1  0  0  0  0
  9 10  2  0  0  0  0
 18 19  1  0  0  0  0
 19 29  1  0  0  0  0
 19 20  2  0  0  0  0
 21 22  1  0  0  0  0
 22 23  1  0  0  0  0
 22 24  2  0  0  0  0
 30 33  1  0  0  0  0
  8 11  1  0  0  0  0
 39 40  1  0  0  0  0
 18 21  1  0  0  0  0
 29 30  1  0  0  0  0
  7  8  1  0  0  0  0
 17 18  1  0  0  0  0
  3  4  1  0  0  0  0
  3  5  1  0  0  0  0
  3  6  1  0  0  0  0
 33 36  1  0  0  0  0
 33 37  1  0  0  0  0
 33 38  1  0  0  0  0
 11 14  1  0  0  0  0
 11 15  1  0  0  0  0
 11 16  1  0  0  0  0
 40 42  1  0  0  0  0
 40 43  1  0  0  0  0
 40 44  1  0  0  0  0
 21 27  1  0  0  0  0
 21 28  1  0  0  0  0
 30 35  1  0  0  0  0
  8 13  1  0  0  0  0
 18 26  1  0  0  0  0
 39 41  1  0  0  0  0
  7 12  1  0  0  0  0
 29 34  1  0  0  0  0
 17 25  1  0  0  0  0
M  CHG  1  23  -1
M  END
$$$$

  -OEChem-05262214473D

 44 43  0     1  0  0  0  0  0999 V2000
   -4.0256   -1.8030   -2.1581 C   0  0  0  0  0  0  0  0  0  0  0  0
   -3.7513   -2.6782   -2.9709 O   0  0  0  0  0  0  0  0  0  0  0  0
   -5.3491   -1.1169   -2.2339 C   0  0  0  0  0  0  0  0  0  0  0  0
   -5.3223   -0.2211   -2.8750 H   0  0  0  0  0  0  0  0  0  0  0  0
   -6.1322   -1.7605   -2.6658 H   0  0  0  0  0  0  0  0  0  0  0  0
   -5.7568   -0.7715   -1.2704 H   0  0  0  0  0  0  0  0  0  0  0  0
   -3.2124   -1.3578   -1.1289 N   0  0  0  0  0  0  0  0  0  0  0  0
   -1.8971   -1.8843   -0.8752 C   0  0  2  0  0  0  0  0  0  0  0  0
   -1.2676   -1.0599    0.2399 C   0  0  0  0  0  0  0  0  0  0  0  0
   -1.6270    0.0833    0.5138 O   0  0  0  0  0  0  0  0  0  0  0  0
   -1.0364   -1.8506   -2.1285 C   0  0  0  0  0  0  0  0  0  0  0  0
   -3.5631   -0.6202   -0.5206 H   0  0  0  0  0  0  0  0  0  0  0  0
   -2.0301   -2.9174   -0.5360 H   0  0  0  0  0  0  0  0  0  0  0  0
   -0.8921   -0.8236   -2.4833 H   0  0  0  0  0  0  0  0  0  0  0  0
   -0.0457   -2.2777   -1.9410 H   0  0  0  0  0  0  0  0  0  0  0  0
   -1.5052   -2.4193   -2.9387 H   0  0  0  0  0  0  0  0  0  0  0  0
   -0.2267   -1.7335    0.8672 N   0  0  0  0  0  0  0  0  0  0  0  0
    0.5363   -1.1590    1.9465 C   0  0  2  0  0  0  0  0  0  0  0  0
    1.5757   -2.1932    2.3633 C   0  0  0  0  0  0  0  0  0  0  0  0
    2.0901   -2.9826    1.5737 O   0  0  0  0  0  0  0  0  0  0  0  0
   -0.3506   -0.7825    3.1311 C   0  0  0  0  0  0  0  0  0  0  0  0
   -1.3142    0.3915    2.9154 C   0  0  0  0  0  0  0  0  0  0  0  0
   -0.9054    1.2478    2.0784 O   0  5  0  0  0  0  0  0  0  0  0  0
   -2.3806    0.3785    3.5887 O   0  0  0  0  0  0  0  0  0  0  0  0
   -0.0113   -2.6869    0.5854 H   0  0  0  0  0  0  0  0  0  0  0  0
    1.0467   -0.2793    1.5384 H   0  0  0  0  0  0  0  0  0  0  0  0
    0.2766   -0.5484    4.0022 H   0  0  0  0  0  0  0  0  0  0  0  0
   -0.9701   -1.6426    3.4169 H   0  0  0  0  0  0  0  0  0  0  0  0
    1.8986   -2.0951    3.7095 N   0  0  0  0  0  0  0  0  0  0  0  0
    2.8818   -2.9436    4.3418 C   0  0  2  0  0  0  0  0  0  0  0  0
    2.4682   -3.1412    5.7942 C   0  0  0  0  0  0  0  0  0  0  0  0
    1.7290   -2.3628    6.3930 O   0  0  0  0  0  0  0  0  0  0  0  0
    4.2745   -2.3396    4.2506 C   0  0  0  0  0  0  0  0  0  0  0  0
    1.4566   -1.3787    4.2781 H   0  0  0  0  0  0  0  0  0  0  0  0
    2.8524   -3.9058    3.8189 H   0  0  0  0  0  0  0  0  0  0  0  0
    4.3235   -1.3750    4.7689 H   0  0  0  0  0  0  0  0  0  0  0  0
    5.0227   -2.9973    4.7051 H   0  0  0  0  0  0  0  0  0  0  0  0
    4.5584   -2.1706    3.2063 H   0  0  0  0  0  0  0  0  0  0  0  0
    3.0563   -4.2659    6.3559 N   0  0  0  0  0  0  0  0  0  0  0  0
    2.8307   -4.6614    7.7265 C   0  0  0  0  0  0  0  0  0  0  0  0
    3.6407   -4.8646    5.7799 H   0  0  0  0  0  0  0  0  0  0  0  0
    3.6111   -4.2256    8.3676 H   0  0  0  0  0  0  0  0  0  0  0  0
    1.8441   -4.3018    8.0541 H   0  0  0  0  0  0  0  0  0  0  0  0
    2.8647   -5.7583    7.8018 H   0  0  0  0  0  0  0  0  0  0  0  0
  1  3  1  0  0  0  0
  1  7  1  0  0  0  0
  1  2  2  0  0  0  0
 30 31  1  0  0  0  0
 31 39  1  0  0  0  0
 31 32  2  0  0  0  0
  8  9  1  0  0  0  0
  9 17  1  0  0  0  0
  9 10  2  0  0  0  0
 18 19  1  0  0  0  0
 19 29  1  0  0  0  0
 19 20  2  0  0  0  0
 21 22  1  0  0  0  0
 22 23  1  0  0  0  0
 22 24  2  0  0  0  0
 30 33  1  0  0  0  0
  8 11  1  0  0  0  0
 39 40  1  0  0  0  0
 18 21  1  0  0  0  0
 29 30  1  0  0  0  0
  7  8  1  0  0  0  0
 17 18  1  0  0  0  0
  3  4  1  0  0  0  0
  3  5  1  0  0  0  0
  3  6  1  0  0  0  0
 33 36  1  0  0  0  0
 33 37  1  0  0  0  0
 33 38  1  0  0  0  0
 11 14  1  0  0  0  0
 11 15  1  0  0  0  0
 11 16  1  0  0  0  0
 40 42  1  0  0  0  0
 40 43  1  0  0  0  0
 40 44  1  0  0  0  0
 21 27  1  0  0  0  0
 21 28  1  0  0  0  0
 30 35  1  0  0  0  0
  8 13  1  0  0  0  0
 18 26  1  0  0  0  0
 39 41  1  0  0  0  0
  7 12  1  0  0  0  0
 29 34  1  0  0  0  0
 17 25  1  0  0  0  0
M  CHG  1  23  -1
M  END
$$$$

  -OEChem-05262214473D

 44 43  0     1  0  0  0  0  0999 V2000
   -4.0256   -1.8030   -2.1581 C   0  0  0  0  0  0  0  0  0  0  0  0
   -3.7513   -2.6782   -2.9709 O   0  0  0  0  0  0  0  0  0  0  0  0
   -5.3491   -1.1169   -2.2339 C   0  0  0  0  0  0  0  0  0  0  0  0
   -5.3223   -0.2211   -2.8750 H   0  0  0  0  0  0  0  0  0  0  0  0
   -6.1322   -1.7605   -2.6658 H   0  0  0  0  0  0  0  0  0  0  0  0
   -5.7568   -0.7715   -1.2704 H   0  0  0  0  0  0  0  0  0  0  0  0
   -3.2124   -1.3578   -1.1289 N   0  0  0  0  0  0  0  0  0  0  0  0
   -1.8971   -1.8843   -0.8752 C   0  0  2  0  0  0  0  0  0  0  0  0
   -1.2676   -1.0599    0.2399 C   0  0  0  0  0  0  0  0  0  0  0  0
   -1.6270    0.0833    0.5138 O   0  0  0  0  0  0  0  0  0  0  0  0
   -1.0364   -1.8506   -2.1285 C   0  0  0  0  0  0  0  0  0  0  0  0
   -3.5631   -0.6202   -0.5206 H   0  0  0  0  0  0  0  0  0  0  0  0
   -2.0301   -2.9174   -0.5360 H   0  0  0  0  0  0  0  0  0  0  0  0
   -0.8921   -0.8236   -2.4833 H   0  0  0  0  0  0  0  0  0  0  0  0
   -0.0457   -2.2777   -1.9410 H   0  0  0  0  0  0  0  0  0  0  0  0
   -1.5052   -2.4193   -2.9387 H   0  0  0  0  0  0  0  0  0  0  0  0
   -0.2267   -1.7335    0.8672 N   0  0  0  0  0  0  0  0  0  0  0  0
    0.5363   -1.1590    1.9465 C   0  0  2  0  0  0  0  0  0  0  0  0
    1.5757   -2.1932    2.3633 C   0  0  0  0  0  0  0  0  0  0  0  0
    2.2826   -2.7955    1.5578 O   0  0  0  0  0  0  0  0  0  0  0  0
   -0.3506   -0.7825    3.1311 C   0  0  0  0  0  0  0  0  0  0  0  0
   -1.3142    0.3915    2.9154 C   0  0  0  0  0  0  0  0  0  0  0  0
   -0.9054    1.2478    2.0784 O   0  5  0  0  0  0  0  0  0  0  0  0
   -2.3806    0.3785    3.5887 O   0  0  0  0  0  0  0  0  0  0  0  0
   -0.0113   -2.6869    0.5854 H   0  0  0  0  0  0  0  0  0  0  0  0
    1.0467   -0.2793    1.5384 H   0  0  0  0  0  0  0  0  0  0  0  0
    0.2766   -0.5484    4.0022 H   0  0  0  0  0  0  0  0  0  0  0  0
   -0.9701   -1.6426    3.4169 H   0  0  0  0  0  0  0  0  0  0  0  0
    1.6564   -2.3253    3.7425 N   0  0  0  0  0  0  0  0  0  0  0  0
    2.5881   -3.2197    4.3894 C   0  0  2  0  0  0  0  0  0  0  0  0
    1.9533   -3.7019    5.6871 C   0  0  0  0  0  0  0  0  0  0  0  0
    1.0588   -3.0879    6.2650 O   0  0  0  0  0  0  0  0  0  0  0  0
    3.9186   -2.5335    4.6572 C   0  0  0  0  0  0  0  0  0  0  0  0
    1.0643   -1.7503    4.3346 H   0  0  0  0  0  0  0  0  0  0  0  0
    2.7309   -4.0702    3.7139 H   0  0  0  0  0  0  0  0  0  0  0  0
    3.7954   -1.6787    5.3322 H   0  0  0  0  0  0  0  0  0  0  0  0
    4.6332   -3.2211    5.1216 H   0  0  0  0  0  0  0  0  0  0  0  0
    4.3594   -2.1611    3.7262 H   0  0  0  0  0  0  0  0  0  0  0  0
    2.5329   -4.8762    6.1467 N   0  0  0  0  0  0  0  0  0  0  0  0
    2.1137   -5.5274    7.3658 C   0  0  0  0  0  0  0  0  0  0  0  0
    3.2560   -5.3264    5.5933 H   0  0  0  0  0  0  0  0  0  0  0  0
    2.7337   -5.1739    8.2028 H   0  0  0  0  0  0  0  0  0  0  0  0
    1.0586   -5.2886    7.5648 H   0  0  0  0  0  0  0  0  0  0  0  0
    2.2293   -6.6160    7.2582 H   0  0  0  0  0  0  0  0  0  0  0  0
  1  3  1  0  0  0  0
  1  7  1  0  0  0  0
  1  2  2  0  0  0  0
 30 31  1  0  0  0  0
 31 39  1  0  0  0  0
 31 32  2  0  0  0  0
  8  9  1  0  0  0  0
  9 17  1  0  0  0  0
  9 10  2  0  0  0  0
 18 19  1  0  0  0  0
 19 29  1  0  0  0  0
 19 20  2  0  0  0  0
 21 22  1  0  0  0  0
 22 23  1  0  0  0  0
 22 24  2  0  0  0  0
 30 33  1  0  0  0  0
  8 11  1  0  0  0  0
 39 40  1  0  0  0  0
 18 21  1  0  0  0  0
 29 30  1  0  0  0  0
  7  8  1  0  0  0  0
 17 18  1  0  0  0  0
  3  4  1  0  0  0  0
  3  5  1  0  0  0  0
  3  6  1  0  0  0  0
 33 36  1  0  0  0  0
 33 37  1  0  0  0  0
 33 38  1  0  0  0  0
 11 14  1  0  0  0  0
 11 15  1  0  0  0  0
 11 16  1  0  0  0  0
 40 42  1  0  0  0  0
 40 43  1  0  0  0  0
 40 44  1  0  0  0  0
 21 27  1  0  0  0  0
 21 28  1  0  0  0  0
 30 35  1  0  0  0  0
  8 13  1  0  0  0  0
 18 26  1  0  0  0  0
 39 41  1  0  0  0  0
  7 12  1  0  0  0  0
 29 34  1  0  0  0  0
 17 25  1  0  0  0  0
M  CHG  1  23  -1
M  END
$$$$

  -OEChem-05262214473D

 44 43  0     1  0  0  0  0  0999 V2000
   -4.0256   -1.8030   -2.1581 C   0  0  0  0  0  0  0  0  0  0  0  0
   -3.7513   -2.6782   -2.9709 O   0  0  0  0  0  0  0  0  0  0  0  0
   -5.3491   -1.1169   -2.2339 C   0  0  0  0  0  0  0  0  0  0  0  0
   -5.3223   -0.2211   -2.8750 H   0  0  0  0  0  0  0  0  0  0  0  0
   -6.1322   -1.7605   -2.6658 H   0  0  0  0  0  0  0  0  0  0  0  0
   -5.7568   -0.7715   -1.2704 H   0  0  0  0  0  0  0  0  0  0  0  0
   -3.2124   -1.3578   -1.1289 N   0  0  0  0  0  0  0  0  0  0  0  0
   -1.8971   -1.8843   -0.8752 C   0  0  2  0  0  0  0  0  0  0  0  0
   -1.2676   -1.0599    0.2399 C   0  0  0  0  0  0  0  0  0  0  0  0
   -1.6270    0.0833    0.5138 O   0  0  0  0  0  0  0  0  0  0  0  0
   -1.0364   -1.8506   -2.1285 C   0  0  0  0  0  0  0  0  0  0  0  0
   -3.5631   -0.6202   -0.5206 H   0  0  0  0  0  0  0  0  0  0  0  0
   -2.0301   -2.9174   -0.5360 H   0  0  0  0  0  0  0  0  0  0  0  0
   -0.8921   -0.8236   -2.4833 H   0  0  0  0  0  0  0  0  0  0  0  0
   -0.0457   -2.2777   -1.9410 H   0  0  0  0  0  0  0  0  0  0  0  0
   -1.5052   -2.4193   -2.9387 H   0  0  0  0  0  0  0  0  0  0  0  0
   -0.2267   -1.7335    0.8672 N   0  0  0  0  0  0  0  0  0  0  0  0
    0.5363   -1.1590    1.9465 C   0  0  2  0  0  0  0  0  0  0  0  0
    1.5757   -2.1932    2.3633 C   0  0  0  0  0  0  0  0  0  0  0  0
    2.4582   -2.5983    1.6093 O   0  0  0  0  0  0  0  0  0  0  0  0
   -0.3506   -0.7825    3.1311 C   0  0  0  0  0  0  0  0  0  0  0  0
   -1.3142    0.3915    2.9154 C   0  0  0  0  0  0  0  0  0  0  0  0
   -0.9054    1.2478    2.0784 O   0  5  0  0  0  0  0  0  0  0  0  0
   -2.3806    0.3785    3.5887 O   0  0  0  0  0  0  0  0  0  0  0  0
   -0.0113   -2.6869    0.5854 H   0  0  0  0  0  0  0  0  0  0  0  0
    1.0467   -0.2793    1.5384 H   0  0  0  0  0  0  0  0  0  0  0  0
    0.2766   -0.5484    4.0022 H   0  0  0  0  0  0  0  0  0  0  0  0
   -0.9701   -1.6426    3.4169 H   0  0  0  0  0  0  0  0  0  0  0  0
    1.4329   -2.5706    3.6912 N   0  0  0  0  0  0  0  0  0  0  0  0
    2.3155   -3.5155    4.3350 C   0  0  2  0  0  0  0  0  0  0  0  0
    1.5145   -4.2610    5.3942 C   0  0  0  0  0  0  0  0  0  0  0  0
    0.4854   -3.8131    5.8957 O   0  0  0  0  0  0  0  0  0  0  0  0
    3.5171   -2.8177    4.9532 C   0  0  0  0  0  0  0  0  0  0  0  0
    0.7016   -2.1470    4.2548 H   0  0  0  0  0  0  0  0  0  0  0  0
    2.6437   -4.2190    3.5621 H   0  0  0  0  0  0  0  0  0  0  0  0
    3.2080   -2.1088    5.7300 H   0  0  0  0  0  0  0  0  0  0  0  0
    4.1995   -3.5382    5.4160 H   0  0  0  0  0  0  0  0  0  0  0  0
    4.0752   -2.2577    4.1952 H   0  0  0  0  0  0  0  0  0  0  0  0
    2.1073   -5.4658    5.7450 N   0  0  0  0  0  0  0  0  0  0  0  0
    1.5458   -6.3510    6.7386 C   0  0  0  0  0  0  0  0  0  0  0  0
    2.9498   -5.7669    5.2640 H   0  0  0  0  0  0  0  0  0  0  0  0
    1.9822   -6.1229    7.7222 H   0  0  0  0  0  0  0  0  0  0  0  0
    0.4555   -6.2109    6.7800 H   0  0  0  0  0  0  0  0  0  0  0  0
    1.7716   -7.3936    6.4702 H   0  0  0  0  0  0  0  0  0  0  0  0
  1  3  1  0  0  0  0
  1  7  1  0  0  0  0
  1  2  2  0  0  0  0
 30 31  1  0  0  0  0
 31 39  1  0  0  0  0
 31 32  2  0  0  0  0
  8  9  1  0  0  0  0
  9 17  1  0  0  0  0
  9 10  2  0  0  0  0
 18 19  1  0  0  0  0
 19 29  1  0  0  0  0
 19 20  2  0  0  0  0
 21 22  1  0  0  0  0
 22 23  1  0  0  0  0
 22 24  2  0  0  0  0
 30 33  1  0  0  0  0
  8 11  1  0  0  0  0
 39 40  1  0  0  0  0
 18 21  1  0  0  0  0
 29 30  1  0  0  0  0
  7  8  1  0  0  0  0
 17 18  1  0  0  0  0
  3  4  1  0  0  0  0
  3  5  1  0  0  0  0
  3  6  1  0  0  0  0
 33 36  1  0  0  0  0
 33 37  1  0  0  0  0
 33 38  1  0  0  0  0
 11 14  1  0  0  0  0
 11 15  1  0  0  0  0
 11 16  1  0  0  0  0
 40 42  1  0  0  0  0
 40 43  1  0  0  0  0
 40 44  1  0  0  0  0
 21 27  1  0  0  0  0
 21 28  1  0  0  0  0
 30 35  1  0  0  0  0
  8 13  1  0  0  0  0
 18 26  1  0  0  0  0
 39 41  1  0  0  0  0
  7 12  1  0  0  0  0
 29 34  1  0  0  0  0
 17 25  1  0  0  0  0
M  CHG  1  23  -1
M  END
$$$$

  -OEChem-05262214473D

 44 43  0     1  0  0  0  0  0999 V2000
   -4.0256   -1.8030   -2.1581 C   0  0  0  0  0  0  0  0  0  0  0  0
   -3.7513   -2.6782   -2.9709 O   0  0  0  0  0  0  0  0  0  0  0  0
   -5.3491   -1.1169   -2.2339 C   0  0  0  0  0  0  0  0  0  0  0  0
   -5.3223   -0.2211   -2.8750 H   0  0  0  0  0  0  0  0  0  0  0  0
   -6.1322   -1.7605   -2.6658 H   0  0  0  0  0  0  0  0  0  0  0  0
   -5.7568   -0.7715   -1.2704 H   0  0  0  0  0  0  0  0  0  0  0  0
   -3.2124   -1.3578   -1.1289 N   0  0  0  0  0  0  0  0  0  0  0  0
   -1.8971   -1.8843   -0.8752 C   0  0  2  0  0  0  0  0  0  0  0  0
   -1.2676   -1.0599    0.2399 C   0  0  0  0  0  0  0  0  0  0  0  0
   -1.6270    0.0833    0.5138 O   0  0  0  0  0  0  0  0  0  0  0  0
   -1.0364   -1.8506   -2.1285 C   0  0  0  0  0  0  0  0  0  0  0  0
   -3.5631   -0.6202   -0.5206 H   0  0  0  0  0  0  0  0  0  0  0  0
   -2.0301   -2.9174   -0.5360 H   0  0  0  0  0  0  0  0  0  0  0  0
   -0.8921   -0.8236   -2.4833 H   0  0  0  0  0  0  0  0  0  0  0  0
   -0.0457   -2.2777   -1.9410 H   0  0  0  0  0  0  0  0  0  0  0  0
   -1.5052   -2.4193   -2.9387 H   0  0  0  0  0  0  0  0  0  0  0  0
   -0.2267   -1.7335    0.8672 N   0  0  0  0  0  0  0  0  0  0  0  0
    0.5363   -1.1590    1.9465 C   0  0  2  0  0  0  0  0  0  0  0  0
    1.5757   -2.1932    2.3633 C   0  0  0  0  0  0  0  0  0  0  0  0
    2.6047   -2.4045    1.7247 O   0  0  0  0  0  0  0  0  0  0  0  0
   -0.3506   -0.7825    3.1311 C   0  0  0  0  0  0  0  0  0  0  0  0
   -1.3142    0.3915    2.9154 C   0  0  0  0  0  0  0  0  0  0  0  0
   -0.9054    1.2478    2.0784 O   0  5  0  0  0  0  0  0  0  0  0  0
   -2.3806    0.3785    3.5887 O   0  0  0  0  0  0  0  0  0  0  0  0
   -0.0113   -2.6869    0.5854 H   0  0  0  0  0  0  0  0  0  0  0  0
    1.0467   -0.2793    1.5384 H   0  0  0  0  0  0  0  0  0  0  0  0
    0.2766   -0.5484    4.0022 H   0  0  0  0  0  0  0  0  0  0  0  0
   -0.9701   -1.6426    3.4169 H   0  0  0  0  0  0  0  0  0  0  0  0
    1.2434   -2.8142    3.5592 N   0  0  0  0  0  0  0  0  0  0  0  0
    2.0828   -3.8109    4.1824 C   0  0  2  0  0  0  0  0  0  0  0  0
    1.1816   -4.7804    4.9357 C   0  0  0  0  0  0  0  0  0  0  0  0
    0.0476   -4.4890    5.3103 O   0  0  0  0  0  0  0  0  0  0  0  0
    3.0974   -3.1730    5.1185 C   0  0  0  0  0  0  0  0  0  0  0  0
    0.3934   -2.5417    4.0440 H   0  0  0  0  0  0  0  0  0  0  0  0
    2.5966   -4.3422    3.3739 H   0  0  0  0  0  0  0  0  0  0  0  0
    2.6012   -2.6360    5.9352 H   0  0  0  0  0  0  0  0  0  0  0  0
    3.7514   -3.9273    5.5683 H   0  0  0  0  0  0  0  0  0  0  0  0
    3.7252   -2.4539    4.5812 H   0  0  0  0  0  0  0  0  0  0  0  0
    1.8085   -5.9946    5.1782 N   0  0  0  0  0  0  0  0  0  0  0  0
    1.1656   -7.0760    5.8877 C   0  0  0  0  0  0  0  0  0  0  0  0
    2.7431   -6.1558    4.8145 H   0  0  0  0  0  0  0  0  0  0  0  0
    1.4079   -7.0079    6.9585 H   0  0  0  0  0  0  0  0  0  0  0  0
    0.0761   -7.0061    5.7532 H   0  0  0  0  0  0  0  0  0  0  0  0
    1.5230   -8.0379    5.4915 H   0  0  0  0  0  0  0  0  0  0  0  0
  1  3  1  0  0  0  0
  1  7  1  0  0  0  0
  1  2  2  0  0  0  0
 30 31  1  0  0  0  0
 31 39  1  0  0  0  0
 31 32  2  0  0  0  0
  8  9  1  0  0  0  0
  9 17  1  0  0  0  0
  9 10  2  0  0  0  0
 18 19  1  0  0  0  0
 19 29  1  0  0  0  0
 19 20  2  0  0  0  0
 21 22  1  0  0  0  0
 22 23  1  0  0  0  0
 22 24  2  0  0  0  0
 30 33  1  0  0  0  0
  8 11  1  0  0  0  0
 39 40  1  0  0  0  0
 18 21  1  0  0  0  0
 29 30  1  0  0  0  0
  7  8  1  0  0  0  0
 17 18  1  0  0  0  0
  3  4  1  0  0  0  0
  3  5  1  0  0  0  0
  3  6  1  0  0  0  0
 33 36  1  0  0  0  0
 33 37  1  0  0  0  0
 33 38  1  0  0  0  0
 11 14  1  0  0  0  0
 11 15  1  0  0  0  0
 11 16  1  0  0  0  0
 40 42  1  0  0  0  0
 40 43  1  0  0  0  0
 40 44  1  0  0  0  0
 21 27  1  0  0  0  0
 21 28  1  0  0  0  0
 30 35  1  0  0  0  0
  8 13  1  0  0  0  0
 18 26  1  0  0  0  0
 39 41  1  0  0  0  0
  7 12  1  0  0  0  0
 29 34  1  0  0  0  0
 17 25  1  0  0  0  0
M  CHG  1  23  -1
M  END
$$$$

  -OEChem-05262214473D

 44 43  0     1  0  0  0  0  0999 V2000
   -4.0256   -1.8030   -2.1581 C   0  0  0  0  0  0  0  0  0  0  0  0
   -3.7513   -2.6782   -2.9709 O   0  0  0  0  0  0  0  0  0  0  0  0
   -5.3491   -1.1169   -2.2339 C   0  0  0  0  0  0  0  0  0  0  0  0
   -5.3223   -0.2211   -2.8750 H   0  0  0  0  0  0  0  0  0  0  0  0
   -6.1322   -1.7605   -2.6658 H   0  0  0  0  0  0  0  0  0  0  0  0
   -5.7568   -0.7715   -1.2704 H   0  0  0  0  0  0  0  0  0  0  0  0
   -3.2124   -1.3578   -1.1289 N   0  0  0  0  0  0  0  0  0  0  0  0
   -1.8971   -1.8843   -0.8752 C   0  0  2  0  0  0  0  0  0  0  0  0
   -1.2676   -1.0599    0.2399 C   0  0  0  0  0  0  0  0  0  0  0  0
   -1.6270    0.0833    0.5138 O   0  0  0  0  0  0  0  0  0  0  0  0
   -1.0364   -1.8506   -2.1285 C   0  0  0  0  0  0  0  0  0  0  0  0
   -3.5631   -0.6202   -0.5206 H   0  0  0  0  0  0  0  0  0  0  0  0
   -2.0301   -2.9174   -0.5360 H   0  0  0  0  0  0  0  0  0  0  0  0
   -0.8921   -0.8236   -2.4833 H   0  0  0  0  0  0  0  0  0  0  0  0
   -0.0457   -2.2777   -1.9410 H   0  0  0  0  0  0  0  0  0  0  0  0
   -1.5052   -2.4193   -2.9387 H   0  0  0  0  0  0  0  0  0  0  0  0
   -0.2267   -1.7335    0.8672 N   0  0  0  0  0  0  0  0  0  0  0  0
    0.5363   -1.1590    1.9465 C   0  0  2  0  0  0  0  0  0  0  0  0
    1.5757   -2.1932    2.3633 C   0  0  0  0  0  0  0  0  0  0  0  0
    2.7123   -2.2273    1.8961 O   0  0  0  0  0  0  0  0  0  0  0  0
   -0.3506   -0.7825    3.1311 C   0  0  0  0  0  0  0  0  0  0  0  0
   -1.3142    0.3915    2.9154 C   0  0  0  0  0  0  0  0  0  0  0  0
   -0.9054    1.2478    2.0784 O   0  5  0  0  0  0  0  0  0  0  0  0
   -2.3806    0.3785    3.5887 O   0  0  0  0  0  0  0  0  0  0  0  0
   -0.0113   -2.6869    0.5854 H   0  0  0  0  0  0  0  0  0  0  0  0
    1.0467   -0.2793    1.5384 H   0  0  0  0  0  0  0  0  0  0  0  0
    0.2766   -0.5484    4.0022 H   0  0  0  0  0  0  0  0  0  0  0  0
   -0.9701   -1.6426    3.4169 H   0  0  0  0  0  0  0  0  0  0  0  0
    1.1008   -3.0397    3.3553 N   0  0  0  0  0  0  0  0  0  0  0  0
    1.9056   -4.0858    3.9421 C   0  0  2  0  0  0  0  0  0  0  0  0
    0.9773   -5.2248    4.3426 C   0  0  0  0  0  0  0  0  0  0  0  0
   -0.2246   -5.0696    4.5486 O   0  0  0  0  0  0  0  0  0  0  0  0
    2.6881   -3.5749    5.1418 C   0  0  0  0  0  0  0  0  0  0  0  0
    0.1607   -2.9075    3.7166 H   0  0  0  0  0  0  0  0  0  0  0  0
    2.5929   -4.4312    3.1621 H   0  0  0  0  0  0  0  0  0  0  0  0
    2.0163   -3.2245    5.9338 H   0  0  0  0  0  0  0  0  0  0  0  0
    3.3194   -4.3616    5.5680 H   0  0  0  0  0  0  0  0  0  0  0  0
    3.3332   -2.7364    4.8580 H   0  0  0  0  0  0  0  0  0  0  0  0
    1.6568   -6.4265    4.4849 N   0  0  0  0  0  0  0  0  0  0  0  0
    0.9991   -7.6530    4.8711 C   0  0  0  0  0  0  0  0  0  0  0  0
    2.6498   -6.4669    4.2753 H   0  0  0  0  0  0  0  0  0  0  0  0
    1.0499   -7.7686    5.9638 H   0  0  0  0  0  0  0  0  0  0  0  0
   -0.0538   -7.6197    4.5545 H   0  0  0  0  0  0  0  0  0  0  0  0
    1.5003   -8.5052    4.3887 H   0  0  0  0  0  0  0  0  0  0  0  0
  1  3  1  0  0  0  0
  1  7  1  0  0  0  0
  1  2  2  0  0  0  0
 30 31  1  0  0  0  0
 31 39  1  0  0  0  0
 31 32  2  0  0  0  0
  8  9  1  0  0  0  0
  9 17  1  0  0  0  0
  9 10  2  0  0  0  0
 18 19  1  0  0  0  0
 19 29  1  0  0  0  0
 19 20  2  0  0  0  0
 21 22  1  0  0  0  0
 22 23  1  0  0  0  0
 22 24  2  0  0  0  0
 30 33  1  0  0  0  0
  8 11  1  0  0  0  0
 39 40  1  0  0  0  0
 18 21  1  0  0  0  0
 29 30  1  0  0  0  0
  7  8  1  0  0  0  0
 17 18  1  0  0  0  0
  3  4  1  0  0  0  0
  3  5  1  0  0  0  0
  3  6  1  0  0  0  0
 33 36  1  0  0  0  0
 33 37  1  0  0  0  0
 33 38  1  0  0  0  0
 11 14  1  0  0  0  0
 11 15  1  0  0  0  0
 11 16  1  0  0  0  0
 40 42  1  0  0  0  0
 40 43  1  0  0  0  0
 40 44  1  0  0  0  0
 21 27  1  0  0  0  0
 21 28  1  0  0  0  0
 30 35  1  0  0  0  0
  8 13  1  0  0  0  0
 18 26  1  0  0  0  0
 39 41  1  0  0  0  0
  7 12  1  0  0  0  0
 29 34  1  0  0  0  0
 17 25  1  0  0  0  0
M  CHG  1  23  -1
M  END
$$$$

  -OEChem-05262214473D

 44 43  0     1  0  0  0  0  0999 V2000
   -4.0256   -1.8030   -2.1581 C   0  0  0  0  0  0  0  0  0  0  0  0
   -3.7513   -2.6782   -2.9709 O   0  0  0  0  0  0  0  0  0  0  0  0
   -5.3491   -1.1169   -2.2339 C   0  0  0  0  0  0  0  0  0  0  0  0
   -5.3223   -0.2211   -2.8750 H   0  0  0  0  0  0  0  0  0  0  0  0
   -6.1322   -1.7605   -2.6658 H   0  0  0  0  0  0  0  0  0  0  0  0
   -5.7568   -0.7715   -1.2704 H   0  0  0  0  0  0  0  0  0  0  0  0
   -3.2124   -1.3578   -1.1289 N   0  0  0  0  0  0  0  0  0  0  0  0
   -1.8971   -1.8843   -0.8752 C   0  0  2  0  0  0  0  0  0  0  0  0
   -1.2676   -1.0599    0.2399 C   0  0  0  0  0  0  0  0  0  0  0  0
   -1.6270    0.0833    0.5138 O   0  0  0  0  0  0  0  0  0  0  0  0
   -1.0364   -1.8506   -2.1285 C   0  0  0  0  0  0  0  0  0  0  0  0
   -3.5631   -0.6202   -0.5206 H   0  0  0  0  0  0  0  0  0  0  0  0
   -2.0301   -2.9174   -0.5360 H   0  0  0  0  0  0  0  0  0  0  0  0
   -0.8921   -0.8236   -2.4833 H   0  0  0  0  0  0  0  0  0  0  0  0
   -0.0457   -2.2777   -1.9410 H   0  0  0  0  0  0  0  0  0  0  0  0
   -1.5052   -2.4193   -2.9387 H   0  0  0  0  0  0  0  0  0  0  0  0
   -0.2267   -1.7335    0.8672 N   0  0  0  0  0  0  0  0  0  0  0  0
    0.5363   -1.1590    1.9465 C   0  0  2  0  0  0  0  0  0  0  0  0
    1.5757   -2.1932    2.3633 C   0  0  0  0  0  0  0  0  0  0  0  0
    2.7736   -2.0787    2.1118 O   0  0  0  0  0  0  0  0  0  0  0  0
   -0.3506   -0.7825    3.1311 C   0  0  0  0  0  0  0  0  0  0  0  0
   -1.3142    0.3915    2.9154 C   0  0  0  0  0  0  0  0  0  0  0  0
   -0.9054    1.2478    2.0784 O   0  5  0  0  0  0  0  0  0  0  0  0
   -2.3806    0.3785    3.5887 O   0  0  0  0  0  0  0  0  0  0  0  0
   -0.0113   -2.6869    0.5854 H   0  0  0  0  0  0  0  0  0  0  0  0
    1.0467   -0.2793    1.5384 H   0  0  0  0  0  0  0  0  0  0  0  0
    0.2766   -0.5484    4.0022 H   0  0  0  0  0  0  0  0  0  0  0  0
   -0.9701   -1.6426    3.4169 H   0  0  0  0  0  0  0  0  0  0  0  0
    1.0148   -3.2316    3.0936 N   0  0  0  0  0  0  0  0  0  0  0  0
    1.7962   -4.3215    3.6302 C   0  0  2  0  0  0  0  0  0  0  0  0
    0.9155   -5.5638    3.6554 C   0  0  0  0  0  0  0  0  0  0  0  0
   -0.3128   -5.5152    3.6627 O   0  0  0  0  0  0  0  0  0  0  0  0
    2.3172   -3.9963    5.0215 C   0  0  0  0  0  0  0  0  0  0  0  0
    0.0193   -3.2196    3.2949 H   0  0  0  0  0  0  0  0  0  0  0  0
    2.6328   -4.4802    2.9411 H   0  0  0  0  0  0  0  0  0  0  0  0
    1.4932   -3.8340    5.7259 H   0  0  0  0  0  0  0  0  0  0  0  0
    2.9329   -4.8117    5.4152 H   0  0  0  0  0  0  0  0  0  0  0  0
    2.9259   -3.0858    5.0067 H   0  0  0  0  0  0  0  0  0  0  0  0
    1.6625   -6.7320    3.7124 N   0  0  0  0  0  0  0  0  0  0  0  0
    1.0577   -8.0428    3.7580 C   0  0  0  0  0  0  0  0  0  0  0  0
    2.6765   -6.6787    3.6832 H   0  0  0  0  0  0  0  0  0  0  0  0
    0.9326   -8.3532    4.8059 H   0  0  0  0  0  0  0  0  0  0  0  0
    0.0746   -8.0101    3.2655 H   0  0  0  0  0  0  0  0  0  0  0  0
    1.7050   -8.7635    3.2370 H   0  0  0  0  0  0  0  0  0  0  0  0
  1  3  1  0  0  0  0
  1  7  1  0  0  0  0
  1  2  2  0  0  0  0
 30 31  1  0  0  0  0
 31 39  1  0  0  0  0
 31 32  2  0  0  0  0
  8  9  1  0  0  0  0
  9 17  1  0  0  0  0
  9 10  2  0  0  0  0
 18 19  1  0  0  0  0
 19 29  1  0  0  0  0
 19 20  2  0  0  0  0
 21 22  1  0  0  0  0
 22 23  1  0  0  0  0
 22 24  2  0  0  0  0
 30 33  1  0  0  0  0
  8 11  1  0  0  0  0
 39 40  1  0  0  0  0
 18 21  1  0  0  0  0
 29 30  1  0  0  0  0
  7  8  1  0  0  0  0
 17 18  1  0  0  0  0
  3  4  1  0  0  0  0
  3  5  1  0  0  0  0
  3  6  1  0  0  0  0
 33 36  1  0  0  0  0
 33 37  1  0  0  0  0
 33 38  1  0  0  0  0
 11 14  1  0  0  0  0
 11 15  1  0  0  0  0
 11 16  1  0  0  0  0
 40 42  1  0  0  0  0
 40 43  1  0  0  0  0
 40 44  1  0  0  0  0
 21 27  1  0  0  0  0
 21 28  1  0  0  0  0
 30 35  1  0  0  0  0
  8 13  1  0  0  0  0
 18 26  1  0  0  0  0
 39 41  1  0  0  0  0
  7 12  1  0  0  0  0
 29 34  1  0  0  0  0
 17 25  1  0  0  0  0
M  CHG  1  23  -1
M  END
$$$$

  -OEChem-05262214473D

 44 43  0     1  0  0  0  0  0999 V2000
   -4.0256   -1.8030   -2.1581 C   0  0  0  0  0  0  0  0  0  0  0  0
   -3.7513   -2.6782   -2.9709 O   0  0  0  0  0  0  0  0  0  0  0  0
   -5.3491   -1.1169   -2.2339 C   0  0  0  0  0  0  0  0  0  0  0  0
   -5.3223   -0.2211   -2.8750 H   0  0  0  0  0  0  0  0  0  0  0  0
   -6.1322   -1.7605   -2.6658 H   0  0  0  0  0  0  0  0  0  0  0  0
   -5.7568   -0.7715   -1.2704 H   0  0  0  0  0  0  0  0  0  0  0  0
   -3.2124   -1.3578   -1.1289 N   0  0  0  0  0  0  0  0  0  0  0  0
   -1.8971   -1.8843   -0.8752 C   0  0  2  0  0  0  0  0  0  0  0  0
   -1.2676   -1.0599    0.2399 C   0  0  0  0  0  0  0  0  0  0  0  0
   -1.6270    0.0833    0.5138 O   0  0  0  0  0  0  0  0  0  0  0  0
   -1.0364   -1.8506   -2.1285 C   0  0  0  0  0  0  0  0  0  0  0  0
   -3.5631   -0.6202   -0.5206 H   0  0  0  0  0  0  0  0  0  0  0  0
   -2.0301   -2.9174   -0.5360 H   0  0  0  0  0  0  0  0  0  0  0  0
   -0.8921   -0.8236   -2.4833 H   0  0  0  0  0  0  0  0  0  0  0  0
   -0.0457   -2.2777   -1.9410 H   0  0  0  0  0  0  0  0  0  0  0  0
   -1.5052   -2.4193   -2.9387 H   0  0  0  0  0  0  0  0  0  0  0  0
   -0.2267   -1.7335    0.8672 N   0  0  0  0  0  0  0  0  0  0  0  0
    0.5363   -1.1590    1.9465 C   0  0  2  0  0  0  0  0  0  0  0  0
    1.5757   -2.1932    2.3633 C   0  0  0  0  0  0  0  0  0  0  0  0
    2.7844   -1.9690    2.3572 O   0  0  0  0  0  0  0  0  0  0  0  0
   -0.3506   -0.7825    3.1311 C   0  0  0  0  0  0  0  0  0  0  0  0
   -1.3142    0.3915    2.9154 C   0  0  0  0  0  0  0  0  0  0  0  0
   -0.9054    1.2478    2.0784 O   0  5  0  0  0  0  0  0  0  0  0  0
   -2.3806    0.3785    3.5887 O   0  0  0  0  0  0  0  0  0  0  0  0
   -0.0113   -2.6869    0.5854 H   0  0  0  0  0  0  0  0  0  0  0  0
    1.0467   -0.2793    1.5384 H   0  0  0  0  0  0  0  0  0  0  0  0
    0.2766   -0.5484    4.0022 H   0  0  0  0  0  0  0  0  0  0  0  0
   -0.9701   -1.6426    3.4169 H   0  0  0  0  0  0  0  0  0  0  0  0
    0.9913   -3.3769    2.7918 N   0  0  0  0  0  0  0  0  0  0  0  0
    1.7619   -4.5018    3.2682 C   0  0  2  0  0  0  0  0  0  0  0  0
    1.0005   -5.7743    2.9210 C   0  0  0  0  0  0  0  0  0  0  0  0
   -0.2108   -5.7955    2.7128 O   0  0  0  0  0  0  0  0  0  0  0  0
    2.0098   -4.4083    4.7657 C   0  0  0  0  0  0  0  0  0  0  0  0
   -0.0212   -3.4567    2.8077 H   0  0  0  0  0  0  0  0  0  0  0  0
    2.7137   -4.4856    2.7261 H   0  0  0  0  0  0  0  0  0  0  0  0
    1.0676   -4.4231    5.3257 H   0  0  0  0  0  0  0  0  0  0  0  0
    2.6182   -5.2468    5.1204 H   0  0  0  0  0  0  0  0  0  0  0  0
    2.5312   -3.4783    5.0171 H   0  0  0  0  0  0  0  0  0  0  0  0
    1.8254   -6.8904    2.9133 N   0  0  0  0  0  0  0  0  0  0  0  0
    1.3372   -8.2187    2.6244 C   0  0  0  0  0  0  0  0  0  0  0  0
    2.8211   -6.7770    3.0786 H   0  0  0  0  0  0  0  0  0  0  0  0
    1.0639   -8.7218    3.5636 H   0  0  0  0  0  0  0  0  0  0  0  0
    0.4526   -8.1507    1.9741 H   0  0  0  0  0  0  0  0  0  0  0  0
    2.1233   -8.7953    2.1149 H   0  0  0  0  0  0  0  0  0  0  0  0
  1  3  1  0  0  0  0
  1  7  1  0  0  0  0
  1  2  2  0  0  0  0
 30 31  1  0  0  0  0
 31 39  1  0  0  0  0
 31 32  2  0  0  0  0
  8  9  1  0  0  0  0
  9 17  1  0  0  0  0
  9 10  2  0  0  0  0
 18 19  1  0  0  0  0
 19 29  1  0  0  0  0
 19 20  2  0  0  0  0
 21 22  1  0  0  0  0
 22 23  1  0  0  0  0
 22 24  2  0  0  0  0
 30 33  1  0  0  0  0
  8 11  1  0  0  0  0
 39 40  1  0  0  0  0
 18 21  1  0  0  0  0
 29 30  1  0  0  0  0
  7  8  1  0  0  0  0
 17 18  1  0  0  0  0
  3  4  1  0  0  0  0
  3  5  1  0  0  0  0
  3  6  1  0  0  0  0
 33 36  1  0  0  0  0
 33 37  1  0  0  0  0
 33 38  1  0  0  0  0
 11 14  1  0  0  0  0
 11 15  1  0  0  0  0
 11 16  1  0  0  0  0
 40 42  1  0  0  0  0
 40 43  1  0  0  0  0
 40 44  1  0  0  0  0
 21 27  1  0  0  0  0
 21 28  1  0  0  0  0
 30 35  1  0  0  0  0
  8 13  1  0  0  0  0
 18 26  1  0  0  0  0
 39 41  1  0  0  0  0
  7 12  1  0  0  0  0
 29 34  1  0  0  0  0
 17 25  1  0  0  0  0
M  CHG  1  23  -1
M  END
$$$$

  -OEChem-05262214473D

 44 43  0     1  0  0  0  0  0999 V2000
   -4.0256   -1.8030   -2.1581 C   0  0  0  0  0  0  0  0  0  0  0  0
   -3.7513   -2.6782   -2.9709 O   0  0  0  0  0  0  0  0  0  0  0  0
   -5.3491   -1.1169   -2.2339 C   0  0  0  0  0  0  0  0  0  0  0  0
   -5.3223   -0.2211   -2.8750 H   0  0  0  0  0  0  0  0  0  0  0  0
   -6.1322   -1.7605   -2.6658 H   0  0  0  0  0  0  0  0  0  0  0  0
   -5.7568   -0.7715   -1.2704 H   0  0  0  0  0  0  0  0  0  0  0  0
   -3.2124   -1.3578   -1.1289 N   0  0  0  0  0  0  0  0  0  0  0  0
   -1.8971   -1.8843   -0.8752 C   0  0  2  0  0  0  0  0  0  0  0  0
   -1.2676   -1.0599    0.2399 C   0  0  0  0  0  0  0  0  0  0  0  0
   -1.6270    0.0833    0.5138 O   0  0  0  0  0  0  0  0  0  0  0  0
   -1.0364   -1.8506   -2.1285 C   0  0  0  0  0  0  0  0  0  0  0  0
   -3.5631   -0.6202   -0.5206 H   0  0  0  0  0  0  0  0  0  0  0  0
   -2.0301   -2.9174   -0.5360 H   0  0  0  0  0  0  0  0  0  0  0  0
   -0.8921   -0.8236   -2.4833 H   0  0  0  0  0  0  0  0  0  0  0  0
   -0.0457   -2.2777   -1.9410 H   0  0  0  0  0  0  0  0  0  0  0  0
   -1.5052   -2.4193   -2.9387 H   0  0  0  0  0  0  0  0  0  0  0  0
   -0.2267   -1.7335    0.8672 N   0  0  0  0  0  0  0  0  0  0  0  0
    0.5363   -1.1590    1.9465 C   0  0  2  0  0  0  0  0  0  0  0  0
    1.5757   -2.1932    2.3633 C   0  0  0  0  0  0  0  0  0  0  0  0
    2.7440   -1.9055    2.6154 O   0  0  0  0  0  0  0  0  0  0  0  0
   -0.3506   -0.7825    3.1311 C   0  0  0  0  0  0  0  0  0  0  0  0
   -1.3142    0.3915    2.9154 C   0  0  0  0  0  0  0  0  0  0  0  0
   -0.9054    1.2478    2.0784 O   0  5  0  0  0  0  0  0  0  0  0  0
   -2.3806    0.3785    3.5887 O   0  0  0  0  0  0  0  0  0  0  0  0
   -0.0113   -2.6869    0.5854 H   0  0  0  0  0  0  0  0  0  0  0  0
    1.0467   -0.2793    1.5384 H   0  0  0  0  0  0  0  0  0  0  0  0
    0.2766   -0.5484    4.0022 H   0  0  0  0  0  0  0  0  0  0  0  0
   -0.9701   -1.6426    3.4169 H   0  0  0  0  0  0  0  0  0  0  0  0
    1.0319   -3.4656    2.4705 N   0  0  0  0  0  0  0  0  0  0  0  0
    1.8051   -4.6146    2.8807 C   0  0  2  0  0  0  0  0  0  0  0  0
    1.2265   -5.8421    2.1894 C   0  0  0  0  0  0  0  0  0  0  0  0
    0.0743   -5.8915    1.7638 O   0  0  0  0  0  0  0  0  0  0  0  0
    1.7870   -4.7828    4.3920 C   0  0  0  0  0  0  0  0  0  0  0  0
    0.0420   -3.6025    2.2881 H   0  0  0  0  0  0  0  0  0  0  0  0
    2.8299   -4.4472    2.5316 H   0  0  0  0  0  0  0  0  0  0  0  0
    0.7685   -4.9516    4.7604 H   0  0  0  0  0  0  0  0  0  0  0  0
    2.3968   -5.6373    4.7035 H   0  0  0  0  0  0  0  0  0  0  0  0
    2.1758   -3.8873    4.8886 H   0  0  0  0  0  0  0  0  0  0  0  0
    2.1341   -6.8909    2.1421 N   0  0  0  0  0  0  0  0  0  0  0  0
    1.8187   -8.1687    1.5474 C   0  0  0  0  0  0  0  0  0  0  0  0
    3.0740   -6.7549    2.5026 H   0  0  0  0  0  0  0  0  0  0  0  0
    1.4350   -8.8493    2.3217 H   0  0  0  0  0  0  0  0  0  0  0  0
    1.0544   -8.0317    0.7683 H   0  0  0  0  0  0  0  0  0  0  0  0
    2.7266   -8.5984    1.0990 H   0  0  0  0  0  0  0  0  0  0  0  0
  1  3  1  0  0  0  0
  1  7  1  0  0  0  0
  1  2  2  0  0  0  0
 30 31  1  0  0  0  0
 31 39  1  0  0  0  0
 31 32  2  0  0  0  0
  8  9  1  0  0  0  0
  9 17  1  0  0  0  0
  9 10  2  0  0  0  0
 18 19  1  0  0  0  0
 19 29  1  0  0  0  0
 19 20  2  0  0  0  0
 21 22  1  0  0  0  0
 22 23  1  0  0  0  0
 22 24  2  0  0  0  0
 30 33  1  0  0  0  0
  8 11  1  0  0  0  0
 39 40  1  0  0  0  0
 18 21  1  0  0  0  0
 29 30  1  0  0  0  0
  7  8  1  0  0  0  0
 17 18  1  0  0  0  0
  3  4  1  0  0  0  0
  3  5  1  0  0  0  0
  3  6  1  0  0  0  0
 33 36  1  0  0  0  0
 33 37  1  0  0  0  0
 33 38  1  0  0  0  0
 11 14  1  0  0  0  0
 11 15  1  0  0  0  0
 11 16  1  0  0  0  0
 40 42  1  0  0  0  0
 40 43  1  0  0  0  0
 40 44  1  0  0  0  0
 21 27  1  0  0  0  0
 21 28  1  0  0  0  0
 30 35  1  0  0  0  0
  8 13  1  0  0  0  0
 18 26  1  0  0  0  0
 39 41  1  0  0  0  0
  7 12  1  0  0  0  0
 29 34  1  0  0  0  0
 17 25  1  0  0  0  0
M  CHG  1  23  -1
M  END
$$$$

  -OEChem-05262214473D

 44 43  0     1  0  0  0  0  0999 V2000
   -4.0256   -1.8030   -2.1581 C   0  0  0  0  0  0  0  0  0  0  0  0
   -3.7513   -2.6782   -2.9709 O   0  0  0  0  0  0  0  0  0  0  0  0
   -5.3491   -1.1169   -2.2339 C   0  0  0  0  0  0  0  0  0  0  0  0
   -5.3223   -0.2211   -2.8750 H   0  0  0  0  0  0  0  0  0  0  0  0
   -6.1322   -1.7605   -2.6658 H   0  0  0  0  0  0  0  0  0  0  0  0
   -5.7568   -0.7715   -1.2704 H   0  0  0  0  0  0  0  0  0  0  0  0
   -3.2124   -1.3578   -1.1289 N   0  0  0  0  0  0  0  0  0  0  0  0
   -1.8971   -1.8843   -0.8752 C   0  0  2  0  0  0  0  0  0  0  0  0
   -1.2676   -1.0599    0.2399 C   0  0  0  0  0  0  0  0  0  0  0  0
   -1.6270    0.0833    0.5138 O   0  0  0  0  0  0  0  0  0  0  0  0
   -1.0364   -1.8506   -2.1285 C   0  0  0  0  0  0  0  0  0  0  0  0
   -3.5631   -0.6202   -0.5206 H   0  0  0  0  0  0  0  0  0  0  0  0
   -2.0301   -2.9174   -0.5360 H   0  0  0  0  0  0  0  0  0  0  0  0
   -0.8921   -0.8236   -2.4833 H   0  0  0  0  0  0  0  0  0  0  0  0
   -0.0457   -2.2777   -1.9410 H   0  0  0  0  0  0  0  0  0  0  0  0
   -1.5052   -2.4193   -2.9387 H   0  0  0  0  0  0  0  0  0  0  0  0
   -0.2267   -1.7335    0.8672 N   0  0  0  0  0  0  0  0  0  0  0  0
    0.5363   -1.1590    1.9465 C   0  0  2  0  0  0  0  0  0  0  0  0
    1.5757   -2.1932    2.3633 C   0  0  0  0  0  0  0  0  0  0  0  0
    2.6551   -1.8926    2.8690 O   0  0  0  0  0  0  0  0  0  0  0  0
   -0.3506   -0.7825    3.1311 C   0  0  0  0  0  0  0  0  0  0  0  0
   -1.3142    0.3915    2.9154 C   0  0  0  0  0  0  0  0  0  0  0  0
   -0.9054    1.2478    2.0784 O   0  5  0  0  0  0  0  0  0  0  0  0
   -2.3806    0.3785    3.5887 O   0  0  0  0  0  0  0  0  0  0  0  0
   -0.0113   -2.6869    0.5854 H   0  0  0  0  0  0  0  0  0  0  0  0
    1.0467   -0.2793    1.5384 H   0  0  0  0  0  0  0  0  0  0  0  0
    0.2766   -0.5484    4.0022 H   0  0  0  0  0  0  0  0  0  0  0  0
   -0.9701   -1.6426    3.4169 H   0  0  0  0  0  0  0  0  0  0  0  0
    1.1337   -3.4917    2.1517 N   0  0  0  0  0  0  0  0  0  0  0  0
    1.9229   -4.6520    2.4941 C   0  0  2  0  0  0  0  0  0  0  0  0
    1.5780   -5.7624    1.5104 C   0  0  0  0  0  0  0  0  0  0  0  0
    0.5231   -5.7964    0.8802 O   0  0  0  0  0  0  0  0  0  0  0  0
    1.6638   -5.0945    3.9259 C   0  0  0  0  0  0  0  0  0  0  0  0
    0.2046   -3.6472    1.7716 H   0  0  0  0  0  0  0  0  0  0  0  0
    2.9735   -4.3675    2.3709 H   0  0  0  0  0  0  0  0  0  0  0  0
    0.6162   -5.3834    4.0685 H   0  0  0  0  0  0  0  0  0  0  0  0
    2.2838   -5.9566    4.1930 H   0  0  0  0  0  0  0  0  0  0  0  0
    1.8841   -4.2848    4.6299 H   0  0  0  0  0  0  0  0  0  0  0  0
    2.5679   -6.7333    1.4513 N   0  0  0  0  0  0  0  0  0  0  0  0
    2.4694   -7.8963    0.6005 C   0  0  0  0  0  0  0  0  0  0  0  0
    3.4178   -6.6141    1.9946 H   0  0  0  0  0  0  0  0  0  0  0  0
    2.0205   -8.7271    1.1648 H   0  0  0  0  0  0  0  0  0  0  0  0
    1.8390   -7.6615   -0.2698 H   0  0  0  0  0  0  0  0  0  0  0  0
    3.4738   -8.1862    0.2583 H   0  0  0  0  0  0  0  0  0  0  0  0
  1  3  1  0  0  0  0
  1  7  1  0  0  0  0
  1  2  2  0  0  0  0
 30 31  1  0  0  0  0
 31 39  1  0  0  0  0
 31 32  2  0  0  0  0
  8  9  1  0  0  0  0
  9 17  1  0  0  0  0
  9 10  2  0  0  0  0
 18 19  1  0  0  0  0
 19 29  1  0  0  0  0
 19 20  2  0  0  0  0
 21 22  1  0  0  0  0
 22 23  1  0  0  0  0
 22 24  2  0  0  0  0
 30 33  1  0  0  0  0
  8 11  1  0  0  0  0
 39 40  1  0  0  0  0
 18 21  1  0  0  0  0
 29 30  1  0  0  0  0
  7  8  1  0  0  0  0
 17 18  1  0  0  0  0
  3  4  1  0  0  0  0
  3  5  1  0  0  0  0
  3  6  1  0  0  0  0
 33 36  1  0  0  0  0
 33 37  1  0  0  0  0
 33 38  1  0  0  0  0
 11 14  1  0  0  0  0
 11 15  1  0  0  0  0
 11 16  1  0  0  0  0
 40 42  1  0  0  0  0
 40 43  1  0  0  0  0
 40 44  1  0  0  0  0
 21 27  1  0  0  0  0
 21 28  1  0  0  0  0
 30 35  1  0  0  0  0
  8 13  1  0  0  0  0
 18 26  1  0  0  0  0
 39 41  1  0  0  0  0
  7 12  1  0  0  0  0
 29 34  1  0  0  0  0
 17 25  1  0  0  0  0
M  CHG  1  23  -1
M  END
$$$$

  -OEChem-05262214473D

 44 43  0     1  0  0  0  0  0999 V2000
   -4.0256   -1.8030   -2.1581 C   0  0  0  0  0  0  0  0  0  0  0  0
   -3.7513   -2.6782   -2.9709 O   0  0  0  0  0  0  0  0  0  0  0  0
   -5.3491   -1.1169   -2.2339 C   0  0  0  0  0  0  0  0  0  0  0  0
   -5.3223   -0.2211   -2.8750 H   0  0  0  0  0  0  0  0  0  0  0  0
   -6.1322   -1.7605   -2.6658 H   0  0  0  0  0  0  0  0  0  0  0  0
   -5.7568   -0.7715   -1.2704 H   0  0  0  0  0  0  0  0  0  0  0  0
   -3.2124   -1.3578   -1.1289 N   0  0  0  0  0  0  0  0  0  0  0  0
   -1.8971   -1.8843   -0.8752 C   0  0  2  0  0  0  0  0  0  0  0  0
   -1.2676   -1.0599    0.2399 C   0  0  0  0  0  0  0  0  0  0  0  0
   -1.6270    0.0833    0.5138 O   0  0  0  0  0  0  0  0  0  0  0  0
   -1.0364   -1.8506   -2.1285 C   0  0  0  0  0  0  0  0  0  0  0  0
   -3.5631   -0.6202   -0.5206 H   0  0  0  0  0  0  0  0  0  0  0  0
   -2.0301   -2.9174   -0.5360 H   0  0  0  0  0  0  0  0  0  0  0  0
   -0.8921   -0.8236   -2.4833 H   0  0  0  0  0  0  0  0  0  0  0  0
   -0.0457   -2.2777   -1.9410 H   0  0  0  0  0  0  0  0  0  0  0  0
   -1.5052   -2.4193   -2.9387 H   0  0  0  0  0  0  0  0  0  0  0  0
   -0.2267   -1.7335    0.8672 N   0  0  0  0  0  0  0  0  0  0  0  0
    0.5363   -1.1590    1.9465 C   0  0  2  0  0  0  0  0  0  0  0  0
    1.5757   -2.1932    2.3633 C   0  0  0  0  0  0  0  0  0  0  0  0
    2.5239   -1.9313    3.1006 O   0  0  0  0  0  0  0  0  0  0  0  0
   -0.3506   -0.7825    3.1311 C   0  0  0  0  0  0  0  0  0  0  0  0
   -1.3142    0.3915    2.9154 C   0  0  0  0  0  0  0  0  0  0  0  0
   -0.9054    1.2478    2.0784 O   0  5  0  0  0  0  0  0  0  0  0  0
   -2.3806    0.3785    3.5887 O   0  0  0  0  0  0  0  0  0  0  0  0
   -0.0113   -2.6869    0.5854 H   0  0  0  0  0  0  0  0  0  0  0  0
    1.0467   -0.2793    1.5384 H   0  0  0  0  0  0  0  0  0  0  0  0
    0.2766   -0.5484    4.0022 H   0  0  0  0  0  0  0  0  0  0  0  0
   -0.9701   -1.6426    3.4169 H   0  0  0  0  0  0  0  0  0  0  0  0
    1.2899   -3.4535    1.8570 N   0  0  0  0  0  0  0  0  0  0  0  0
    2.1072   -4.6116    2.1347 C   0  0  2  0  0  0  0  0  0  0  0  0
    2.0311   -5.5407    0.9304 C   0  0  0  0  0  0  0  0  0  0  0  0
    1.1051   -5.5169    0.1223 O   0  0  0  0  0  0  0  0  0  0  0  0
    1.6488   -5.3219    3.3989 C   0  0  0  0  0  0  0  0  0  0  0  0
    0.4556   -3.5877    1.2934 H   0  0  0  0  0  0  0  0  0  0  0  0
    3.1349   -4.2521    2.2550 H   0  0  0  0  0  0  0  0  0  0  0  0
    0.6211   -5.6893    3.2973 H   0  0  0  0  0  0  0  0  0  0  0  0
    2.2868   -6.1829    3.6238 H   0  0  0  0  0  0  0  0  0  0  0  0
    1.6758   -4.6437    4.2586 H   0  0  0  0  0  0  0  0  0  0  0  0
    3.0970   -6.4286    0.8880 N   0  0  0  0  0  0  0  0  0  0  0  0
    3.2449   -7.4200   -0.1518 C   0  0  0  0  0  0  0  0  0  0  0  0
    3.8292   -6.3641    1.5891 H   0  0  0  0  0  0  0  0  0  0  0  0
    2.7806   -8.3633    0.1716 H   0  0  0  0  0  0  0  0  0  0  0  0
    2.7530   -7.0651   -1.0694 H   0  0  0  0  0  0  0  0  0  0  0  0
    4.3140   -7.5867   -0.3498 H   0  0  0  0  0  0  0  0  0  0  0  0
  1  3  1  0  0  0  0
  1  7  1  0  0  0  0
  1  2  2  0  0  0  0
 30 31  1  0  0  0  0
 31 39  1  0  0  0  0
 31 32  2  0  0  0  0
  8  9  1  0  0  0  0
  9 17  1  0  0  0  0
  9 10  2  0  0  0  0
 18 19  1  0  0  0  0
 19 29  1  0  0  0  0
 19 20  2  0  0  0  0
 21 22  1  0  0  0  0
 22 23  1  0  0  0  0
 22 24  2  0  0  0  0
 30 33  1  0  0  0  0
  8 11  1  0  0  0  0
 39 40  1  0  0  0  0
 18 21  1  0  0  0  0
 29 30  1  0  0  0  0
  7  8  1  0  0  0  0
 17 18  1  0  0  0  0
  3  4  1  0  0  0  0
  3  5  1  0  0  0  0
  3  6  1  0  0  0  0
 33 36  1  0  0  0  0
 33 37  1  0  0  0  0
 33 38  1  0  0  0  0
 11 14  1  0  0  0  0
 11 15  1  0  0  0  0
 11 16  1  0  0  0  0
 40 42  1  0  0  0  0
 40 43  1  0  0  0  0
 40 44  1  0  0  0  0
 21 27  1  0  0  0  0
 21 28  1  0  0  0  0
 30 35  1  0  0  0  0
  8 13  1  0  0  0  0
 18 26  1  0  0  0  0
 39 41  1  0  0  0  0
  7 12  1  0  0  0  0
 29 34  1  0  0  0  0
 17 25  1  0  0  0  0
M  CHG  1  23  -1
M  END
$$$$

  -OEChem-05262214473D

 44 43  0     1  0  0  0  0  0999 V2000
   -4.0256   -1.8030   -2.1581 C   0  0  0  0  0  0  0  0  0  0  0  0
   -3.7513   -2.6782   -2.9709 O   0  0  0  0  0  0  0  0  0  0  0  0
   -5.3491   -1.1169   -2.2339 C   0  0  0  0  0  0  0  0  0  0  0  0
   -5.3223   -0.2211   -2.8750 H   0  0  0  0  0  0  0  0  0  0  0  0
   -6.1322   -1.7605   -2.6658 H   0  0  0  0  0  0  0  0  0  0  0  0
   -5.7568   -0.7715   -1.2704 H   0  0  0  0  0  0  0  0  0  0  0  0
   -3.2124   -1.3578   -1.1289 N   0  0  0  0  0  0  0  0  0  0  0  0
   -1.8971   -1.8843   -0.8752 C   0  0  2  0  0  0  0  0  0  0  0  0
   -1.2676   -1.0599    0.2399 C   0  0  0  0  0  0  0  0  0  0  0  0
   -1.6270    0.0833    0.5138 O   0  0  0  0  0  0  0  0  0  0  0  0
   -1.0364   -1.8506   -2.1285 C   0  0  0  0  0  0  0  0  0  0  0  0
   -3.5631   -0.6202   -0.5206 H   0  0  0  0  0  0  0  0  0  0  0  0
   -2.0301   -2.9174   -0.5360 H   0  0  0  0  0  0  0  0  0  0  0  0
   -0.8921   -0.8236   -2.4833 H   0  0  0  0  0  0  0  0  0  0  0  0
   -0.0457   -2.2777   -1.9410 H   0  0  0  0  0  0  0  0  0  0  0  0
   -1.5052   -2.4193   -2.9387 H   0  0  0  0  0  0  0  0  0  0  0  0
   -0.2267   -1.7335    0.8672 N   0  0  0  0  0  0  0  0  0  0  0  0
    0.5363   -1.1590    1.9465 C   0  0  2  0  0  0  0  0  0  0  0  0
    1.5757   -2.1932    2.3633 C   0  0  0  0  0  0  0  0  0  0  0  0
    2.3591   -2.0187    3.2944 O   0  0  0  0  0  0  0  0  0  0  0  0
   -0.3506   -0.7825    3.1311 C   0  0  0  0  0  0  0  0  0  0  0  0
   -1.3142    0.3915    2.9154 C   0  0  0  0  0  0  0  0  0  0  0  0
   -0.9054    1.2478    2.0784 O   0  5  0  0  0  0  0  0  0  0  0  0
   -2.3806    0.3785    3.5887 O   0  0  0  0  0  0  0  0  0  0  0  0
   -0.0113   -2.6869    0.5854 H   0  0  0  0  0  0  0  0  0  0  0  0
    1.0467   -0.2793    1.5384 H   0  0  0  0  0  0  0  0  0  0  0  0
    0.2766   -0.5484    4.0022 H   0  0  0  0  0  0  0  0  0  0  0  0
   -0.9701   -1.6426    3.4169 H   0  0  0  0  0  0  0  0  0  0  0  0
    1.4899   -3.3534    1.6065 N   0  0  0  0  0  0  0  0  0  0  0  0
    2.3454   -4.4962    1.8271 C   0  0  2  0  0  0  0  0  0  0  0  0
    2.5550   -5.1921    0.4888 C   0  0  0  0  0  0  0  0  0  0  0  0
    1.7805   -5.0720   -0.4583 O   0  0  0  0  0  0  0  0  0  0  0  0
    1.7429   -5.4497    2.8472 C   0  0  0  0  0  0  0  0  0  0  0  0
    0.7777   -3.4281    0.8860 H   0  0  0  0  0  0  0  0  0  0  0  0
    3.3029   -4.1086    2.1918 H   0  0  0  0  0  0  0  0  0  0  0  0
    0.7829   -5.8482    2.4993 H   0  0  0  0  0  0  0  0  0  0  0  0
    2.4058   -6.3009    3.0345 H   0  0  0  0  0  0  0  0  0  0  0  0
    1.5653   -4.9396    3.8001 H   0  0  0  0  0  0  0  0  0  0  0  0
    3.6854   -5.9973    0.4906 N   0  0  0  0  0  0  0  0  0  0  0  0
    4.0924   -6.7723   -0.6582 C   0  0  0  0  0  0  0  0  0  0  0  0
    4.2800   -6.0219    1.3137 H   0  0  0  0  0  0  0  0  0  0  0  0
    3.6634   -7.7830   -0.5900 H   0  0  0  0  0  0  0  0  0  0  0  0
    3.7340   -6.2832   -1.5760 H   0  0  0  0  0  0  0  0  0  0  0  0
    5.1900   -6.8410   -0.6839 H   0  0  0  0  0  0  0  0  0  0  0  0
  1  3  1  0  0  0  0
  1  7  1  0  0  0  0
  1  2  2  0  0  0  0
 30 31  1  0  0  0  0
 31 39  1  0  0  0  0
 31 32  2  0  0  0  0
  8  9  1  0  0  0  0
  9 17  1  0  0  0  0
  9 10  2  0  0  0  0
 18 19  1  0  0  0  0
 19 29  1  0  0  0  0
 19 20  2  0  0  0  0
 21 22  1  0  0  0  0
 22 23  1  0  0  0  0
 22 24  2  0  0  0  0
 30 33  1  0  0  0  0
  8 11  1  0  0  0  0
 39 40  1  0  0  0  0
 18 21  1  0  0  0  0
 29 30  1  0  0  0  0
  7  8  1  0  0  0  0
 17 18  1  0  0  0  0
  3  4  1  0  0  0  0
  3  5  1  0  0  0  0
  3  6  1  0  0  0  0
 33 36  1  0  0  0  0
 33 37  1  0  0  0  0
 33 38  1  0  0  0  0
 11 14  1  0  0  0  0
 11 15  1  0  0  0  0
 11 16  1  0  0  0  0
 40 42  1  0  0  0  0
 40 43  1  0  0  0  0
 40 44  1  0  0  0  0
 21 27  1  0  0  0  0
 21 28  1  0  0  0  0
 30 35  1  0  0  0  0
  8 13  1  0  0  0  0
 18 26  1  0  0  0  0
 39 41  1  0  0  0  0
  7 12  1  0  0  0  0
 29 34  1  0  0  0  0
 17 25  1  0  0  0  0
M  CHG  1  23  -1
M  END
$$$$

  -OEChem-05262214473D

 44 43  0     1  0  0  0  0  0999 V2000
   -4.0256   -1.8030   -2.1581 C   0  0  0  0  0  0  0  0  0  0  0  0
   -3.7513   -2.6782   -2.9709 O   0  0  0  0  0  0  0  0  0  0  0  0
   -5.3491   -1.1169   -2.2339 C   0  0  0  0  0  0  0  0  0  0  0  0
   -5.3223   -0.2211   -2.8750 H   0  0  0  0  0  0  0  0  0  0  0  0
   -6.1322   -1.7605   -2.6658 H   0  0  0  0  0  0  0  0  0  0  0  0
   -5.7568   -0.7715   -1.2704 H   0  0  0  0  0  0  0  0  0  0  0  0
   -3.2124   -1.3578   -1.1289 N   0  0  0  0  0  0  0  0  0  0  0  0
   -1.8971   -1.8843   -0.8752 C   0  0  2  0  0  0  0  0  0  0  0  0
   -1.2676   -1.0599    0.2399 C   0  0  0  0  0  0  0  0  0  0  0  0
   -1.6270    0.0833    0.5138 O   0  0  0  0  0  0  0  0  0  0  0  0
   -1.0364   -1.8506   -2.1285 C   0  0  0  0  0  0  0  0  0  0  0  0
   -3.5631   -0.6202   -0.5206 H   0  0  0  0  0  0  0  0  0  0  0  0
   -2.0301   -2.9174   -0.5360 H   0  0  0  0  0  0  0  0  0  0  0  0
   -0.8921   -0.8236   -2.4833 H   0  0  0  0  0  0  0  0  0  0  0  0
   -0.0457   -2.2777   -1.9410 H   0  0  0  0  0  0  0  0  0  0  0  0
   -1.5052   -2.4193   -2.9387 H   0  0  0  0  0  0  0  0  0  0  0  0
   -0.2267   -1.7335    0.8672 N   0  0  0  0  0  0  0  0  0  0  0  0
    0.5363   -1.1590    1.9465 C   0  0  2  0  0  0  0  0  0  0  0  0
    1.5757   -2.1932    2.3633 C   0  0  0  0  0  0  0  0  0  0  0  0
    2.1722   -2.1491    3.4373 O   0  0  0  0  0  0  0  0  0  0  0  0
   -0.3506   -0.7825    3.1311 C   0  0  0  0  0  0  0  0  0  0  0  0
   -1.3142    0.3915    2.9154 C   0  0  0  0  0  0  0  0  0  0  0  0
   -0.9054    1.2478    2.0784 O   0  5  0  0  0  0  0  0  0  0  0  0
   -2.3806    0.3785    3.5887 O   0  0  0  0  0  0  0  0  0  0  0  0
   -0.0113   -2.6869    0.5854 H   0  0  0  0  0  0  0  0  0  0  0  0
    1.0467   -0.2793    1.5384 H   0  0  0  0  0  0  0  0  0  0  0  0
    0.2766   -0.5484    4.0022 H   0  0  0  0  0  0  0  0  0  0  0  0
   -0.9701   -1.6426    3.4169 H   0  0  0  0  0  0  0  0  0  0  0  0
    1.7199   -3.1985    1.4173 N   0  0  0  0  0  0  0  0  0  0  0  0
    2.6214   -4.3135    1.5922 C   0  0  2  0  0  0  0  0  0  0  0  0
    3.1138   -4.7405    0.2157 C   0  0  0  0  0  0  0  0  0  0  0  0
    2.5034   -4.4920   -0.8220 O   0  0  0  0  0  0  0  0  0  0  0  0
    1.9398   -5.4691    2.3082 C   0  0  0  0  0  0  0  0  0  0  0  0
    1.1491   -3.1792    0.5773 H   0  0  0  0  0  0  0  0  0  0  0  0
    3.4662   -3.9471    2.1855 H   0  0  0  0  0  0  0  0  0  0  0  0
    1.0906   -5.8495    1.7288 H   0  0  0  0  0  0  0  0  0  0  0  0
    2.6325   -6.3024    2.4654 H   0  0  0  0  0  0  0  0  0  0  0  0
    1.5599   -5.1523    3.2855 H   0  0  0  0  0  0  0  0  0  0  0  0
    4.2930   -5.4690    0.2861 N   0  0  0  0  0  0  0  0  0  0  0  0
    4.9541   -5.9974   -0.8842 C   0  0  0  0  0  0  0  0  0  0  0  0
    4.7396   -5.6109    1.1873 H   0  0  0  0  0  0  0  0  0  0  0  0
    4.6089   -7.0255   -1.0682 H   0  0  0  0  0  0  0  0  0  0  0  0
    4.7153   -5.3692   -1.7551 H   0  0  0  0  0  0  0  0  0  0  0  0
    6.0419   -5.9997   -0.7211 H   0  0  0  0  0  0  0  0  0  0  0  0
  1  3  1  0  0  0  0
  1  7  1  0  0  0  0
  1  2  2  0  0  0  0
 30 31  1  0  0  0  0
 31 39  1  0  0  0  0
 31 32  2  0  0  0  0
  8  9  1  0  0  0  0
  9 17  1  0  0  0  0
  9 10  2  0  0  0  0
 18 19  1  0  0  0  0
 19 29  1  0  0  0  0
 19 20  2  0  0  0  0
 21 22  1  0  0  0  0
 22 23  1  0  0  0  0
 22 24  2  0  0  0  0
 30 33  1  0  0  0  0
  8 11  1  0  0  0  0
 39 40  1  0  0  0  0
 18 21  1  0  0  0  0
 29 30  1  0  0  0  0
  7  8  1  0  0  0  0
 17 18  1  0  0  0  0
  3  4  1  0  0  0  0
  3  5  1  0  0  0  0
  3  6  1  0  0  0  0
 33 36  1  0  0  0  0
 33 37  1  0  0  0  0
 33 38  1  0  0  0  0
 11 14  1  0  0  0  0
 11 15  1  0  0  0  0
 11 16  1  0  0  0  0
 40 42  1  0  0  0  0
 40 43  1  0  0  0  0
 40 44  1  0  0  0  0
 21 27  1  0  0  0  0
 21 28  1  0  0  0  0
 30 35  1  0  0  0  0
  8 13  1  0  0  0  0
 18 26  1  0  0  0  0
 39 41  1  0  0  0  0
  7 12  1  0  0  0  0
 29 34  1  0  0  0  0
 17 25  1  0  0  0  0
M  CHG  1  23  -1
M  END
$$$$

  -OEChem-05262214473D

 44 43  0     1  0  0  0  0  0999 V2000
   -4.0256   -1.8030   -2.1581 C   0  0  0  0  0  0  0  0  0  0  0  0
   -3.7513   -2.6782   -2.9709 O   0  0  0  0  0  0  0  0  0  0  0  0
   -5.3491   -1.1169   -2.2339 C   0  0  0  0  0  0  0  0  0  0  0  0
   -5.3223   -0.2211   -2.8750 H   0  0  0  0  0  0  0  0  0  0  0  0
   -6.1322   -1.7605   -2.6658 H   0  0  0  0  0  0  0  0  0  0  0  0
   -5.7568   -0.7715   -1.2704 H   0  0  0  0  0  0  0  0  0  0  0  0
   -3.2124   -1.3578   -1.1289 N   0  0  0  0  0  0  0  0  0  0  0  0
   -1.8971   -1.8843   -0.8752 C   0  0  2  0  0  0  0  0  0  0  0  0
   -1.2676   -1.0599    0.2399 C   0  0  0  0  0  0  0  0  0  0  0  0
   -1.6270    0.0833    0.5138 O   0  0  0  0  0  0  0  0  0  0  0  0
   -1.0364   -1.8506   -2.1285 C   0  0  0  0  0  0  0  0  0  0  0  0
   -3.5631   -0.6202   -0.5206 H   0  0  0  0  0  0  0  0  0  0  0  0
   -2.0301   -2.9174   -0.5360 H   0  0  0  0  0  0  0  0  0  0  0  0
   -0.8921   -0.8236   -2.4833 H   0  0  0  0  0  0  0  0  0  0  0  0
   -0.0457   -2.2777   -1.9410 H   0  0  0  0  0  0  0  0  0  0  0  0
   -1.5052   -2.4193   -2.9387 H   0  0  0  0  0  0  0  0  0  0  0  0
   -0.2267   -1.7335    0.8672 N   0  0  0  0  0  0  0  0  0  0  0  0
    0.5363   -1.1590    1.9465 C   0  0  2  0  0  0  0  0  0  0  0  0
    1.5757   -2.1932    2.3633 C   0  0  0  0  0  0  0  0  0  0  0  0
    1.9757   -2.3134    3.5195 O   0  0  0  0  0  0  0  0  0  0  0  0
   -0.3506   -0.7825    3.1311 C   0  0  0  0  0  0  0  0  0  0  0  0
   -1.3142    0.3915    2.9154 C   0  0  0  0  0  0  0  0  0  0  0  0
   -0.9054    1.2478    2.0784 O   0  5  0  0  0  0  0  0  0  0  0  0
   -2.3806    0.3785    3.5887 O   0  0  0  0  0  0  0  0  0  0  0  0
   -0.0113   -2.6869    0.5854 H   0  0  0  0  0  0  0  0  0  0  0  0
    1.0467   -0.2793    1.5384 H   0  0  0  0  0  0  0  0  0  0  0  0
    0.2766   -0.5484    4.0022 H   0  0  0  0  0  0  0  0  0  0  0  0
   -0.9701   -1.6426    3.4169 H   0  0  0  0  0  0  0  0  0  0  0  0
    1.9644   -2.9991    1.3023 N   0  0  0  0  0  0  0  0  0  0  0  0
    2.9163   -4.0760    1.4459 C   0  0  2  0  0  0  0  0  0  0  0  0
    3.6697   -4.2164    0.1298 C   0  0  0  0  0  0  0  0  0  0  0  0
    3.2245   -3.8164   -0.9439 O   0  0  0  0  0  0  0  0  0  0  0  0
    2.2259   -5.3787    1.8187 C   0  0  0  0  0  0  0  0  0  0  0  0
    1.5445   -2.8581    0.3882 H   0  0  0  0  0  0  0  0  0  0  0  0
    3.6136   -3.7783    2.2366 H   0  0  0  0  0  0  0  0  0  0  0  0
    1.5232   -5.6929    1.0383 H   0  0  0  0  0  0  0  0  0  0  0  0
    2.9515   -6.1874    1.9552 H   0  0  0  0  0  0  0  0  0  0  0  0
    1.6602   -5.2674    2.7501 H   0  0  0  0  0  0  0  0  0  0  0  0
    4.8785   -4.8796    0.2886 N   0  0  0  0  0  0  0  0  0  0  0  0
    5.7713   -5.1479   -0.8145 C   0  0  0  0  0  0  0  0  0  0  0  0
    5.1767   -5.1591    1.2185 H   0  0  0  0  0  0  0  0  0  0  0  0
    5.5524   -6.1425   -1.2304 H   0  0  0  0  0  0  0  0  0  0  0  0
    5.6298   -4.3852   -1.5945 H   0  0  0  0  0  0  0  0  0  0  0  0
    6.8119   -5.1202   -0.4590 H   0  0  0  0  0  0  0  0  0  0  0  0
  1  3  1  0  0  0  0
  1  7  1  0  0  0  0
  1  2  2  0  0  0  0
 30 31  1  0  0  0  0
 31 39  1  0  0  0  0
 31 32  2  0  0  0  0
  8  9  1  0  0  0  0
  9 17  1  0  0  0  0
  9 10  2  0  0  0  0
 18 19  1  0  0  0  0
 19 29  1  0  0  0  0
 19 20  2  0  0  0  0
 21 22  1  0  0  0  0
 22 23  1  0  0  0  0
 22 24  2  0  0  0  0
 30 33  1  0  0  0  0
  8 11  1  0  0  0  0
 39 40  1  0  0  0  0
 18 21  1  0  0  0  0
 29 30  1  0  0  0  0
  7  8  1  0  0  0  0
 17 18  1  0  0  0  0
  3  4  1  0  0  0  0
  3  5  1  0  0  0  0
  3  6  1  0  0  0  0
 33 36  1  0  0  0  0
 33 37  1  0  0  0  0
 33 38  1  0  0  0  0
 11 14  1  0  0  0  0
 11 15  1  0  0  0  0
 11 16  1  0  0  0  0
 40 42  1  0  0  0  0
 40 43  1  0  0  0  0
 40 44  1  0  0  0  0
 21 27  1  0  0  0  0
 21 28  1  0  0  0  0
 30 35  1  0  0  0  0
  8 13  1  0  0  0  0
 18 26  1  0  0  0  0
 39 41  1  0  0  0  0
  7 12  1  0  0  0  0
 29 34  1  0  0  0  0
 17 25  1  0  0  0  0
M  CHG  1  23  -1
M  END
$$$$

  -OEChem-05262214473D

 44 43  0     1  0  0  0  0  0999 V2000
   -4.0256   -1.8030   -2.1581 C   0  0  0  0  0  0  0  0  0  0  0  0
   -3.7513   -2.6782   -2.9709 O   0  0  0  0  0  0  0  0  0  0  0  0
   -5.3491   -1.1169   -2.2339 C   0  0  0  0  0  0  0  0  0  0  0  0
   -5.3223   -0.2211   -2.8750 H   0  0  0  0  0  0  0  0  0  0  0  0
   -6.1322   -1.7605   -2.6658 H   0  0  0  0  0  0  0  0  0  0  0  0
   -5.7568   -0.7715   -1.2704 H   0  0  0  0  0  0  0  0  0  0  0  0
   -3.2124   -1.3578   -1.1289 N   0  0  0  0  0  0  0  0  0  0  0  0
   -1.8971   -1.8843   -0.8752 C   0  0  2  0  0  0  0  0  0  0  0  0
   -1.2676   -1.0599    0.2399 C   0  0  0  0  0  0  0  0  0  0  0  0
   -1.6270    0.0833    0.5138 O   0  0  0  0  0  0  0  0  0  0  0  0
   -1.0364   -1.8506   -2.1285 C   0  0  0  0  0  0  0  0  0  0  0  0
   -3.5631   -0.6202   -0.5206 H   0  0  0  0  0  0  0  0  0  0  0  0
   -2.0301   -2.9174   -0.5360 H   0  0  0  0  0  0  0  0  0  0  0  0
   -0.8921   -0.8236   -2.4833 H   0  0  0  0  0  0  0  0  0  0  0  0
   -0.0457   -2.2777   -1.9410 H   0  0  0  0  0  0  0  0  0  0  0  0
   -1.5052   -2.4193   -2.9387 H   0  0  0  0  0  0  0  0  0  0  0  0
   -0.2267   -1.7335    0.8672 N   0  0  0  0  0  0  0  0  0  0  0  0
    0.5363   -1.1590    1.9465 C   0  0  2  0  0  0  0  0  0  0  0  0
    1.5757   -2.1932    2.3633 C   0  0  0  0  0  0  0  0  0  0  0  0
    1.7831   -2.5006    3.5353 O   0  0  0  0  0  0  0  0  0  0  0  0
   -0.3506   -0.7825    3.1311 C   0  0  0  0  0  0  0  0  0  0  0  0
   -1.3142    0.3915    2.9154 C   0  0  0  0  0  0  0  0  0  0  0  0
   -0.9054    1.2478    2.0784 O   0  5  0  0  0  0  0  0  0  0  0  0
   -2.3806    0.3785    3.5887 O   0  0  0  0  0  0  0  0  0  0  0  0
   -0.0113   -2.6869    0.5854 H   0  0  0  0  0  0  0  0  0  0  0  0
    1.0467   -0.2793    1.5384 H   0  0  0  0  0  0  0  0  0  0  0  0
    0.2766   -0.5484    4.0022 H   0  0  0  0  0  0  0  0  0  0  0  0
   -0.9701   -1.6426    3.4169 H   0  0  0  0  0  0  0  0  0  0  0  0
    2.2066   -2.7690    1.2693 N   0  0  0  0  0  0  0  0  0  0  0  0
    3.2100   -3.7999    1.3984 C   0  0  2  0  0  0  0  0  0  0  0  0
    4.1845   -3.6558    0.2369 C   0  0  0  0  0  0  0  0  0  0  0  0
    3.8946   -3.0913   -0.8159 O   0  0  0  0  0  0  0  0  0  0  0  0
    2.5818   -5.1848    1.4121 C   0  0  0  0  0  0  0  0  0  0  0  0
    1.9369   -2.4865    0.3316 H   0  0  0  0  0  0  0  0  0  0  0  0
    3.7350   -3.6139    2.3416 H   0  0  0  0  0  0  0  0  0  0  0  0
    2.0512   -5.3893    0.4750 H   0  0  0  0  0  0  0  0  0  0  0  0
    3.3411   -5.9636    1.5387 H   0  0  0  0  0  0  0  0  0  0  0  0
    1.8592   -5.2769    2.2301 H   0  0  0  0  0  0  0  0  0  0  0  0
    5.4018   -4.2692    0.4978 N   0  0  0  0  0  0  0  0  0  0  0  0
    6.4883   -4.2819   -0.4538 C   0  0  0  0  0  0  0  0  0  0  0  0
    5.5614   -4.6972    1.4050 H   0  0  0  0  0  0  0  0  0  0  0  0
    6.4299   -5.1942   -1.0656 H   0  0  0  0  0  0  0  0  0  0  0  0
    6.4154   -3.3984   -1.1051 H   0  0  0  0  0  0  0  0  0  0  0  0
    7.4473   -4.2624    0.0846 H   0  0  0  0  0  0  0  0  0  0  0  0
  1  3  1  0  0  0  0
  1  7  1  0  0  0  0
  1  2  2  0  0  0  0
 30 31  1  0  0  0  0
 31 39  1  0  0  0  0
 31 32  2  0  0  0  0
  8  9  1  0  0  0  0
  9 17  1  0  0  0  0
  9 10  2  0  0  0  0
 18 19  1  0  0  0  0
 19 29  1  0  0  0  0
 19 20  2  0  0  0  0
 21 22  1  0  0  0  0
 22 23  1  0  0  0  0
 22 24  2  0  0  0  0
 30 33  1  0  0  0  0
  8 11  1  0  0  0  0
 39 40  1  0  0  0  0
 18 21  1  0  0  0  0
 29 30  1  0  0  0  0
  7  8  1  0  0  0  0
 17 18  1  0  0  0  0
  3  4  1  0  0  0  0
  3  5  1  0  0  0  0
  3  6  1  0  0  0  0
 33 36  1  0  0  0  0
 33 37  1  0  0  0  0
 33 38  1  0  0  0  0
 11 14  1  0  0  0  0
 11 15  1  0  0  0  0
 11 16  1  0  0  0  0
 40 42  1  0  0  0  0
 40 43  1  0  0  0  0
 40 44  1  0  0  0  0
 21 27  1  0  0  0  0
 21 28  1  0  0  0  0
 30 35  1  0  0  0  0
  8 13  1  0  0  0  0
 18 26  1  0  0  0  0
 39 41  1  0  0  0  0
  7 12  1  0  0  0  0
 29 34  1  0  0  0  0
 17 25  1  0  0  0  0
M  CHG  1  23  -1
M  END
$$$$

  -OEChem-05262214473D

 44 43  0     1  0  0  0  0  0999 V2000
   -4.0256   -1.8030   -2.1581 C   0  0  0  0  0  0  0  0  0  0  0  0
   -3.7513   -2.6782   -2.9709 O   0  0  0  0  0  0  0  0  0  0  0  0
   -5.3491   -1.1169   -2.2339 C   0  0  0  0  0  0  0  0  0  0  0  0
   -5.3223   -0.2211   -2.8750 H   0  0  0  0  0  0  0  0  0  0  0  0
   -6.1322   -1.7605   -2.6658 H   0  0  0  0  0  0  0  0  0  0  0  0
   -5.7568   -0.7715   -1.2704 H   0  0  0  0  0  0  0  0  0  0  0  0
   -3.2124   -1.3578   -1.1289 N   0  0  0  0  0  0  0  0  0  0  0  0
   -1.8971   -1.8843   -0.8752 C   0  0  2  0  0  0  0  0  0  0  0  0
   -1.2676   -1.0599    0.2399 C   0  0  0  0  0  0  0  0  0  0  0  0
   -1.6270    0.0833    0.5138 O   0  0  0  0  0  0  0  0  0  0  0  0
   -1.0364   -1.8506   -2.1285 C   0  0  0  0  0  0  0  0  0  0  0  0
   -3.5631   -0.6202   -0.5206 H   0  0  0  0  0  0  0  0  0  0  0  0
   -2.0301   -2.9174   -0.5360 H   0  0  0  0  0  0  0  0  0  0  0  0
   -0.8921   -0.8236   -2.4833 H   0  0  0  0  0  0  0  0  0  0  0  0
   -0.0457   -2.2777   -1.9410 H   0  0  0  0  0  0  0  0  0  0  0  0
   -1.5052   -2.4193   -2.9387 H   0  0  0  0  0  0  0  0  0  0  0  0
   -0.2267   -1.7335    0.8672 N   0  0  0  0  0  0  0  0  0  0  0  0
    0.5363   -1.1590    1.9465 C   0  0  2  0  0  0  0  0  0  0  0  0
    1.5757   -2.1932    2.3633 C   0  0  0  0  0  0  0  0  0  0  0  0
    1.6076   -2.6978    3.4838 O   0  0  0  0  0  0  0  0  0  0  0  0
   -0.3506   -0.7825    3.1311 C   0  0  0  0  0  0  0  0  0  0  0  0
   -1.3142    0.3915    2.9154 C   0  0  0  0  0  0  0  0  0  0  0  0
   -0.9054    1.2478    2.0784 O   0  5  0  0  0  0  0  0  0  0  0  0
   -2.3806    0.3785    3.5887 O   0  0  0  0  0  0  0  0  0  0  0  0
   -0.0113   -2.6869    0.5854 H   0  0  0  0  0  0  0  0  0  0  0  0
    1.0467   -0.2793    1.5384 H   0  0  0  0  0  0  0  0  0  0  0  0
    0.2766   -0.5484    4.0022 H   0  0  0  0  0  0  0  0  0  0  0  0
   -0.9701   -1.6426    3.4169 H   0  0  0  0  0  0  0  0  0  0  0  0
    2.4301   -2.5237    1.3206 N   0  0  0  0  0  0  0  0  0  0  0  0
    3.4825   -3.5041    1.4527 C   0  0  2  0  0  0  0  0  0  0  0  0
    4.6234   -3.0967    0.5297 C   0  0  0  0  0  0  0  0  0  0  0  0
    4.4681   -2.3661   -0.4466 O   0  0  0  0  0  0  0  0  0  0  0  0
    2.9833   -4.9006    1.1161 C   0  0  0  0  0  0  0  0  0  0  0  0
    2.2995   -2.0898    0.4115 H   0  0  0  0  0  0  0  0  0  0  0  0
    3.8223   -3.4651    2.4934 H   0  0  0  0  0  0  0  0  0  0  0  0
    2.6387   -4.9591    0.0772 H   0  0  0  0  0  0  0  0  0  0  0  0
    3.7747   -5.6465    1.2443 H   0  0  0  0  0  0  0  0  0  0  0  0
    2.1434   -5.1802    1.7611 H   0  0  0  0  0  0  0  0  0  0  0  0
    5.8274   -3.6796    0.8995 N   0  0  0  0  0  0  0  0  0  0  0  0
    7.0562   -3.4583    0.1734 C   0  0  0  0  0  0  0  0  0  0  0  0
    5.8676   -4.2568    1.7343 H   0  0  0  0  0  0  0  0  0  0  0  0
    7.1813   -4.2452   -0.5850 H   0  0  0  0  0  0  0  0  0  0  0  0
    7.0184   -2.4761   -0.3203 H   0  0  0  0  0  0  0  0  0  0  0  0
    7.9049   -3.4849    0.8726 H   0  0  0  0  0  0  0  0  0  0  0  0
  1  3  1  0  0  0  0
  1  7  1  0  0  0  0
  1  2  2  0  0  0  0
 30 31  1  0  0  0  0
 31 39  1  0  0  0  0
 31 32  2  0  0  0  0
  8  9  1  0  0  0  0
  9 17  1  0  0  0  0
  9 10  2  0  0  0  0
 18 19  1  0  0  0  0
 19 29  1  0  0  0  0
 19 20  2  0  0  0  0
 21 22  1  0  0  0  0
 22 23  1  0  0  0  0
 22 24  2  0  0  0  0
 30 33  1  0  0  0  0
  8 11  1  0  0  0  0
 39 40  1  0  0  0  0
 18 21  1  0  0  0  0
 29 30  1  0  0  0  0
  7  8  1  0  0  0  0
 17 18  1  0  0  0  0
  3  4  1  0  0  0  0
  3  5  1  0  0  0  0
  3  6  1  0  0  0  0
 33 36  1  0  0  0  0
 33 37  1  0  0  0  0
 33 38  1  0  0  0  0
 11 14  1  0  0  0  0
 11 15  1  0  0  0  0
 11 16  1  0  0  0  0
 40 42  1  0  0  0  0
 40 43  1  0  0  0  0
 40 44  1  0  0  0  0
 21 27  1  0  0  0  0
 21 28  1  0  0  0  0
 30 35  1  0  0  0  0
  8 13  1  0  0  0  0
 18 26  1  0  0  0  0
 39 41  1  0  0  0  0
  7 12  1  0  0  0  0
 29 34  1  0  0  0  0
 17 25  1  0  0  0  0
M  CHG  1  23  -1
M  END
$$$$

  -OEChem-05262214473D

 44 43  0     1  0  0  0  0  0999 V2000
   -4.0256   -1.8030   -2.1581 C   0  0  0  0  0  0  0  0  0  0  0  0
   -3.7513   -2.6782   -2.9709 O   0  0  0  0  0  0  0  0  0  0  0  0
   -5.3491   -1.1169   -2.2339 C   0  0  0  0  0  0  0  0  0  0  0  0
   -5.3223   -0.2211   -2.8750 H   0  0  0  0  0  0  0  0  0  0  0  0
   -6.1322   -1.7605   -2.6658 H   0  0  0  0  0  0  0  0  0  0  0  0
   -5.7568   -0.7715   -1.2704 H   0  0  0  0  0  0  0  0  0  0  0  0
   -3.2124   -1.3578   -1.1289 N   0  0  0  0  0  0  0  0  0  0  0  0
   -1.8971   -1.8843   -0.8752 C   0  0  2  0  0  0  0  0  0  0  0  0
   -1.2676   -1.0599    0.2399 C   0  0  0  0  0  0  0  0  0  0  0  0
   -1.6270    0.0833    0.5138 O   0  0  0  0  0  0  0  0  0  0  0  0
   -1.0364   -1.8506   -2.1285 C   0  0  0  0  0  0  0  0  0  0  0  0
   -3.5631   -0.6202   -0.5206 H   0  0  0  0  0  0  0  0  0  0  0  0
   -2.0301   -2.9174   -0.5360 H   0  0  0  0  0  0  0  0  0  0  0  0
   -0.8921   -0.8236   -2.4833 H   0  0  0  0  0  0  0  0  0  0  0  0
   -0.0457   -2.2777   -1.9410 H   0  0  0  0  0  0  0  0  0  0  0  0
   -1.5052   -2.4193   -2.9387 H   0  0  0  0  0  0  0  0  0  0  0  0
   -0.2267   -1.7335    0.8672 N   0  0  0  0  0  0  0  0  0  0  0  0
    0.5363   -1.1590    1.9465 C   0  0  2  0  0  0  0  0  0  0  0  0
    1.5757   -2.1932    2.3633 C   0  0  0  0  0  0  0  0  0  0  0  0
    1.4610   -2.8916    3.3684 O   0  0  0  0  0  0  0  0  0  0  0  0
   -0.3506   -0.7825    3.1311 C   0  0  0  0  0  0  0  0  0  0  0  0
   -1.3142    0.3915    2.9154 C   0  0  0  0  0  0  0  0  0  0  0  0
   -0.9054    1.2478    2.0784 O   0  5  0  0  0  0  0  0  0  0  0  0
   -2.3806    0.3785    3.5887 O   0  0  0  0  0  0  0  0  0  0  0  0
   -0.0113   -2.6869    0.5854 H   0  0  0  0  0  0  0  0  0  0  0  0
    1.0467   -0.2793    1.5384 H   0  0  0  0  0  0  0  0  0  0  0  0
    0.2766   -0.5484    4.0022 H   0  0  0  0  0  0  0  0  0  0  0  0
   -0.9701   -1.6426    3.4169 H   0  0  0  0  0  0  0  0  0  0  0  0
    2.6196   -2.2800    1.4527 N   0  0  0  0  0  0  0  0  0  0  0  0
    3.7153   -3.2087    1.6053 C   0  0  2  0  0  0  0  0  0  0  0  0
    4.9563   -2.5772    0.9883 C   0  0  0  0  0  0  0  0  0  0  0  0
    4.9058   -1.6902    0.1388 O   0  0  0  0  0  0  0  0  0  0  0  0
    3.4030   -4.5454    0.9508 C   0  0  0  0  0  0  0  0  0  0  0  0
    2.6077   -1.6951    0.6223 H   0  0  0  0  0  0  0  0  0  0  0  0
    3.8693   -3.3419    2.6816 H   0  0  0  0  0  0  0  0  0  0  0  0
    3.2455   -4.4319   -0.1280 H   0  0  0  0  0  0  0  0  0  0  0  0
    4.2228   -5.2575    1.0920 H   0  0  0  0  0  0  0  0  0  0  0  0
    2.4934   -4.9840    1.3751 H   0  0  0  0  0  0  0  0  0  0  0  0
    6.1262   -3.1508    1.4662 N   0  0  0  0  0  0  0  0  0  0  0  0
    7.4363   -2.7333    1.0243 C   0  0  0  0  0  0  0  0  0  0  0  0
    6.0743   -3.8678    2.1839 H   0  0  0  0  0  0  0  0  0  0  0  0
    7.7557   -3.3601    0.1787 H   0  0  0  0  0  0  0  0  0  0  0  0
    7.3978   -1.6809    0.7065 H   0  0  0  0  0  0  0  0  0  0  0  0
    8.1536   -2.8405    1.8514 H   0  0  0  0  0  0  0  0  0  0  0  0
  1  3  1  0  0  0  0
  1  7  1  0  0  0  0
  1  2  2  0  0  0  0
 30 31  1  0  0  0  0
 31 39  1  0  0  0  0
 31 32  2  0  0  0  0
  8  9  1  0  0  0  0
  9 17  1  0  0  0  0
  9 10  2  0  0  0  0
 18 19  1  0  0  0  0
 19 29  1  0  0  0  0
 19 20  2  0  0  0  0
 21 22  1  0  0  0  0
 22 23  1  0  0  0  0
 22 24  2  0  0  0  0
 30 33  1  0  0  0  0
  8 11  1  0  0  0  0
 39 40  1  0  0  0  0
 18 21  1  0  0  0  0
 29 30  1  0  0  0  0
  7  8  1  0  0  0  0
 17 18  1  0  0  0  0
  3  4  1  0  0  0  0
  3  5  1  0  0  0  0
  3  6  1  0  0  0  0
 33 36  1  0  0  0  0
 33 37  1  0  0  0  0
 33 38  1  0  0  0  0
 11 14  1  0  0  0  0
 11 15  1  0  0  0  0
 11 16  1  0  0  0  0
 40 42  1  0  0  0  0
 40 43  1  0  0  0  0
 40 44  1  0  0  0  0
 21 27  1  0  0  0  0
 21 28  1  0  0  0  0
 30 35  1  0  0  0  0
  8 13  1  0  0  0  0
 18 26  1  0  0  0  0
 39 41  1  0  0  0  0
  7 12  1  0  0  0  0
 29 34  1  0  0  0  0
 17 25  1  0  0  0  0
M  CHG  1  23  -1
M  END
$$$$

  -OEChem-05262214473D

 44 43  0     1  0  0  0  0  0999 V2000
   -4.0256   -1.8030   -2.1581 C   0  0  0  0  0  0  0  0  0  0  0  0
   -3.7513   -2.6782   -2.9709 O   0  0  0  0  0  0  0  0  0  0  0  0
   -5.3491   -1.1169   -2.2339 C   0  0  0  0  0  0  0  0  0  0  0  0
   -5.3223   -0.2211   -2.8750 H   0  0  0  0  0  0  0  0  0  0  0  0
   -6.1322   -1.7605   -2.6658 H   0  0  0  0  0  0  0  0  0  0  0  0
   -5.7568   -0.7715   -1.2704 H   0  0  0  0  0  0  0  0  0  0  0  0
   -3.2124   -1.3578   -1.1289 N   0  0  0  0  0  0  0  0  0  0  0  0
   -1.8971   -1.8843   -0.8752 C   0  0  2  0  0  0  0  0  0  0  0  0
   -1.2676   -1.0599    0.2399 C   0  0  0  0  0  0  0  0  0  0  0  0
   -1.6270    0.0833    0.5138 O   0  0  0  0  0  0  0  0  0  0  0  0
   -1.0364   -1.8506   -2.1285 C   0  0  0  0  0  0  0  0  0  0  0  0
   -3.5631   -0.6202   -0.5206 H   0  0  0  0  0  0  0  0  0  0  0  0
   -2.0301   -2.9174   -0.5360 H   0  0  0  0  0  0  0  0  0  0  0  0
   -0.8921   -0.8236   -2.4833 H   0  0  0  0  0  0  0  0  0  0  0  0
   -0.0457   -2.2777   -1.9410 H   0  0  0  0  0  0  0  0  0  0  0  0
   -1.5052   -2.4193   -2.9387 H   0  0  0  0  0  0  0  0  0  0  0  0
   -0.2267   -1.7335    0.8672 N   0  0  0  0  0  0  0  0  0  0  0  0
    0.5363   -1.1590    1.9465 C   0  0  2  0  0  0  0  0  0  0  0  0
    1.5757   -2.1932    2.3633 C   0  0  0  0  0  0  0  0  0  0  0  0
    1.3534   -3.0688    3.1970 O   0  0  0  0  0  0  0  0  0  0  0  0
   -0.3506   -0.7825    3.1311 C   0  0  0  0  0  0  0  0  0  0  0  0
   -1.3142    0.3915    2.9154 C   0  0  0  0  0  0  0  0  0  0  0  0
   -0.9054    1.2478    2.0784 O   0  5  0  0  0  0  0  0  0  0  0  0
   -2.3806    0.3785    3.5887 O   0  0  0  0  0  0  0  0  0  0  0  0
   -0.0113   -2.6869    0.5854 H   0  0  0  0  0  0  0  0  0  0  0  0
    1.0467   -0.2793    1.5384 H   0  0  0  0  0  0  0  0  0  0  0  0
    0.2766   -0.5484    4.0022 H   0  0  0  0  0  0  0  0  0  0  0  0
   -0.9701   -1.6426    3.4169 H   0  0  0  0  0  0  0  0  0  0  0  0
    2.7621   -2.0546    1.6565 N   0  0  0  0  0  0  0  0  0  0  0  0
    3.8924   -2.9338    1.8457 C   0  0  2  0  0  0  0  0  0  0  0  0
    5.1606   -2.1329    1.5814 C   0  0  0  0  0  0  0  0  0  0  0  0
    5.1781   -1.1096    0.9004 O   0  0  0  0  0  0  0  0  0  0  0  0
    3.8123   -4.1434    0.9275 C   0  0  0  0  0  0  0  0  0  0  0  0
    2.8404   -1.3293    0.9497 H   0  0  0  0  0  0  0  0  0  0  0  0
    3.8730   -3.2529    2.8934 H   0  0  0  0  0  0  0  0  0  0  0  0
    3.8304   -3.8435   -0.1266 H   0  0  0  0  0  0  0  0  0  0  0  0
    4.6548   -4.8231    1.0923 H   0  0  0  0  0  0  0  0  0  0  0  0
    2.8854   -4.7016    1.0983 H   0  0  0  0  0  0  0  0  0  0  0  0
    6.2780   -2.7189    2.1595 N   0  0  0  0  0  0  0  0  0  0  0  0
    7.6028   -2.1563    2.0409 C   0  0  0  0  0  0  0  0  0  0  0  0
    6.1676   -3.5568    2.7231 H   0  0  0  0  0  0  0  0  0  0  0  0
    8.1137   -2.5994    1.1734 H   0  0  0  0  0  0  0  0  0  0  0  0
    7.5278   -1.0673    1.9052 H   0  0  0  0  0  0  0  0  0  0  0  0
    8.1763   -2.3733    2.9542 H   0  0  0  0  0  0  0  0  0  0  0  0
  1  3  1  0  0  0  0
  1  7  1  0  0  0  0
  1  2  2  0  0  0  0
 30 31  1  0  0  0  0
 31 39  1  0  0  0  0
 31 32  2  0  0  0  0
  8  9  1  0  0  0  0
  9 17  1  0  0  0  0
  9 10  2  0  0  0  0
 18 19  1  0  0  0  0
 19 29  1  0  0  0  0
 19 20  2  0  0  0  0
 21 22  1  0  0  0  0
 22 23  1  0  0  0  0
 22 24  2  0  0  0  0
 30 33  1  0  0  0  0
  8 11  1  0  0  0  0
 39 40  1  0  0  0  0
 18 21  1  0  0  0  0
 29 30  1  0  0  0  0
  7  8  1  0  0  0  0
 17 18  1  0  0  0  0
  3  4  1  0  0  0  0
  3  5  1  0  0  0  0
  3  6  1  0  0  0  0
 33 36  1  0  0  0  0
 33 37  1  0  0  0  0
 33 38  1  0  0  0  0
 11 14  1  0  0  0  0
 11 15  1  0  0  0  0
 11 16  1  0  0  0  0
 40 42  1  0  0  0  0
 40 43  1  0  0  0  0
 40 44  1  0  0  0  0
 21 27  1  0  0  0  0
 21 28  1  0  0  0  0
 30 35  1  0  0  0  0
  8 13  1  0  0  0  0
 18 26  1  0  0  0  0
 39 41  1  0  0  0  0
  7 12  1  0  0  0  0
 29 34  1  0  0  0  0
 17 25  1  0  0  0  0
M  CHG  1  23  -1
M  END
$$$$

  -OEChem-05262214473D

 44 43  0     1  0  0  0  0  0999 V2000
   -4.0256   -1.8030   -2.1581 C   0  0  0  0  0  0  0  0  0  0  0  0
   -3.7513   -2.6782   -2.9709 O   0  0  0  0  0  0  0  0  0  0  0  0
   -5.3491   -1.1169   -2.2339 C   0  0  0  0  0  0  0  0  0  0  0  0
   -5.3223   -0.2211   -2.8750 H   0  0  0  0  0  0  0  0  0  0  0  0
   -6.1322   -1.7605   -2.6658 H   0  0  0  0  0  0  0  0  0  0  0  0
   -5.7568   -0.7715   -1.2704 H   0  0  0  0  0  0  0  0  0  0  0  0
   -3.2124   -1.3578   -1.1289 N   0  0  0  0  0  0  0  0  0  0  0  0
   -1.8971   -1.8843   -0.8752 C   0  0  2  0  0  0  0  0  0  0  0  0
   -1.2676   -1.0599    0.2399 C   0  0  0  0  0  0  0  0  0  0  0  0
   -1.6270    0.0833    0.5138 O   0  0  0  0  0  0  0  0  0  0  0  0
   -1.0364   -1.8506   -2.1285 C   0  0  0  0  0  0  0  0  0  0  0  0
   -3.5631   -0.6202   -0.5206 H   0  0  0  0  0  0  0  0  0  0  0  0
   -2.0301   -2.9174   -0.5360 H   0  0  0  0  0  0  0  0  0  0  0  0
   -0.8921   -0.8236   -2.4833 H   0  0  0  0  0  0  0  0  0  0  0  0
   -0.0457   -2.2777   -1.9410 H   0  0  0  0  0  0  0  0  0  0  0  0
   -1.5052   -2.4193   -2.9387 H   0  0  0  0  0  0  0  0  0  0  0  0
   -0.2267   -1.7335    0.8672 N   0  0  0  0  0  0  0  0  0  0  0  0
    0.5363   -1.1590    1.9465 C   0  0  2  0  0  0  0  0  0  0  0  0
    1.5757   -2.1932    2.3633 C   0  0  0  0  0  0  0  0  0  0  0  0
    1.2921   -3.2173    2.9813 O   0  0  0  0  0  0  0  0  0  0  0  0
   -0.3506   -0.7825    3.1311 C   0  0  0  0  0  0  0  0  0  0  0  0
   -1.3142    0.3915    2.9154 C   0  0  0  0  0  0  0  0  0  0  0  0
   -0.9054    1.2478    2.0784 O   0  5  0  0  0  0  0  0  0  0  0  0
   -2.3806    0.3785    3.5887 O   0  0  0  0  0  0  0  0  0  0  0  0
   -0.0113   -2.6869    0.5854 H   0  0  0  0  0  0  0  0  0  0  0  0
    1.0467   -0.2793    1.5384 H   0  0  0  0  0  0  0  0  0  0  0  0
    0.2766   -0.5484    4.0022 H   0  0  0  0  0  0  0  0  0  0  0  0
   -0.9701   -1.6426    3.4169 H   0  0  0  0  0  0  0  0  0  0  0  0
    2.8481   -1.8626    1.9182 N   0  0  0  0  0  0  0  0  0  0  0  0
    4.0019   -2.6981    2.1575 C   0  0  2  0  0  0  0  0  0  0  0  0
    5.2224   -1.7939    2.2685 C   0  0  0  0  0  0  0  0  0  0  0  0
    5.2662   -0.6640    1.7863 O   0  0  0  0  0  0  0  0  0  0  0  0
    4.1832   -3.7221    1.0479 C   0  0  0  0  0  0  0  0  0  0  0  0
    2.9819   -1.0172    1.3713 H   0  0  0  0  0  0  0  0  0  0  0  0
    3.8331   -3.2039    3.1144 H   0  0  0  0  0  0  0  0  0  0  0  0
    4.3535   -3.2340    0.0813 H   0  0  0  0  0  0  0  0  0  0  0  0
    5.0413   -4.3731    1.2450 H   0  0  0  0  0  0  0  0  0  0  0  0
    3.2926   -4.3522    0.9497 H   0  0  0  0  0  0  0  0  0  0  0  0
    6.2722   -2.4134    2.9320 N   0  0  0  0  0  0  0  0  0  0  0  0
    7.5443   -1.7665    3.1540 C   0  0  0  0  0  0  0  0  0  0  0  0
    6.1409   -3.3449    3.3152 H   0  0  0  0  0  0  0  0  0  0  0  0
    8.2310   -2.0148    2.3313 H   0  0  0  0  0  0  0  0  0  0  0  0
    7.3994   -0.6769    3.1942 H   0  0  0  0  0  0  0  0  0  0  0  0
    7.9716   -2.1149    4.1059 H   0  0  0  0  0  0  0  0  0  0  0  0
  1  3  1  0  0  0  0
  1  7  1  0  0  0  0
  1  2  2  0  0  0  0
 30 31  1  0  0  0  0
 31 39  1  0  0  0  0
 31 32  2  0  0  0  0
  8  9  1  0  0  0  0
  9 17  1  0  0  0  0
  9 10  2  0  0  0  0
 18 19  1  0  0  0  0
 19 29  1  0  0  0  0
 19 20  2  0  0  0  0
 21 22  1  0  0  0  0
 22 23  1  0  0  0  0
 22 24  2  0  0  0  0
 30 33  1  0  0  0  0
  8 11  1  0  0  0  0
 39 40  1  0  0  0  0
 18 21  1  0  0  0  0
 29 30  1  0  0  0  0
  7  8  1  0  0  0  0
 17 18  1  0  0  0  0
  3  4  1  0  0  0  0
  3  5  1  0  0  0  0
  3  6  1  0  0  0  0
 33 36  1  0  0  0  0
 33 37  1  0  0  0  0
 33 38  1  0  0  0  0
 11 14  1  0  0  0  0
 11 15  1  0  0  0  0
 11 16  1  0  0  0  0
 40 42  1  0  0  0  0
 40 43  1  0  0  0  0
 40 44  1  0  0  0  0
 21 27  1  0  0  0  0
 21 28  1  0  0  0  0
 30 35  1  0  0  0  0
  8 13  1  0  0  0  0
 18 26  1  0  0  0  0
 39 41  1  0  0  0  0
  7 12  1  0  0  0  0
 29 34  1  0  0  0  0
 17 25  1  0  0  0  0
M  CHG  1  23  -1
M  END
$$$$

  -OEChem-05262214473D

 44 43  0     1  0  0  0  0  0999 V2000
   -4.0256   -1.8030   -2.1581 C   0  0  0  0  0  0  0  0  0  0  0  0
   -3.7513   -2.6782   -2.9709 O   0  0  0  0  0  0  0  0  0  0  0  0
   -5.3491   -1.1169   -2.2339 C   0  0  0  0  0  0  0  0  0  0  0  0
   -5.3223   -0.2211   -2.8750 H   0  0  0  0  0  0  0  0  0  0  0  0
   -6.1322   -1.7605   -2.6658 H   0  0  0  0  0  0  0  0  0  0  0  0
   -5.7568   -0.7715   -1.2704 H   0  0  0  0  0  0  0  0  0  0  0  0
   -3.2124   -1.3578   -1.1289 N   0  0  0  0  0  0  0  0  0  0  0  0
   -1.8971   -1.8843   -0.8752 C   0  0  2  0  0  0  0  0  0  0  0  0
   -1.2676   -1.0599    0.2399 C   0  0  0  0  0  0  0  0  0  0  0  0
   -1.6270    0.0833    0.5138 O   0  0  0  0  0  0  0  0  0  0  0  0
   -1.0364   -1.8506   -2.1285 C   0  0  0  0  0  0  0  0  0  0  0  0
   -3.5631   -0.6202   -0.5206 H   0  0  0  0  0  0  0  0  0  0  0  0
   -2.0301   -2.9174   -0.5360 H   0  0  0  0  0  0  0  0  0  0  0  0
   -0.8921   -0.8236   -2.4833 H   0  0  0  0  0  0  0  0  0  0  0  0
   -0.0457   -2.2777   -1.9410 H   0  0  0  0  0  0  0  0  0  0  0  0
   -1.5052   -2.4193   -2.9387 H   0  0  0  0  0  0  0  0  0  0  0  0
   -0.2267   -1.7335    0.8672 N   0  0  0  0  0  0  0  0  0  0  0  0
    0.5363   -1.1590    1.9465 C   0  0  2  0  0  0  0  0  0  0  0  0
    1.5757   -2.1932    2.3633 C   0  0  0  0  0  0  0  0  0  0  0  0
    1.2813   -3.3271    2.7359 O   0  0  0  0  0  0  0  0  0  0  0  0
   -0.3506   -0.7825    3.1311 C   0  0  0  0  0  0  0  0  0  0  0  0
   -1.3142    0.3915    2.9154 C   0  0  0  0  0  0  0  0  0  0  0  0
   -0.9054    1.2478    2.0784 O   0  5  0  0  0  0  0  0  0  0  0  0
   -2.3806    0.3785    3.5887 O   0  0  0  0  0  0  0  0  0  0  0  0
   -0.0113   -2.6869    0.5854 H   0  0  0  0  0  0  0  0  0  0  0  0
    1.0467   -0.2793    1.5384 H   0  0  0  0  0  0  0  0  0  0  0  0
    0.2766   -0.5484    4.0022 H   0  0  0  0  0  0  0  0  0  0  0  0
   -0.9701   -1.6426    3.4169 H   0  0  0  0  0  0  0  0  0  0  0  0
    2.8716   -1.7174    2.2200 N   0  0  0  0  0  0  0  0  0  0  0  0
    4.0362   -2.5177    2.5195 C   0  0  2  0  0  0  0  0  0  0  0  0
    5.1374   -1.5833    3.0029 C   0  0  0  0  0  0  0  0  0  0  0  0
    5.1642   -0.3837    2.7362 O   0  0  0  0  0  0  0  0  0  0  0  0
    4.4906   -3.3101    1.3036 C   0  0  0  0  0  0  0  0  0  0  0  0
    3.0223   -0.7801    1.8586 H   0  0  0  0  0  0  0  0  0  0  0  0
    3.7523   -3.1985    3.3294 H   0  0  0  0  0  0  0  0  0  0  0  0
    4.7791   -2.6449    0.4815 H   0  0  0  0  0  0  0  0  0  0  0  0
    5.3560   -3.9379    1.5399 H   0  0  0  0  0  0  0  0  0  0  0  0
    3.6874   -3.9596    0.9392 H   0  0  0  0  0  0  0  0  0  0  0  0
    6.1094   -2.2550    3.7311 N   0  0  0  0  0  0  0  0  0  0  0  0
    7.2648   -1.5906    4.2876 C   0  0  0  0  0  0  0  0  0  0  0  0
    5.9963   -3.2467    3.9198 H   0  0  0  0  0  0  0  0  0  0  0  0
    8.0997   -1.6462    3.5735 H   0  0  0  0  0  0  0  0  0  0  0  0
    7.0214   -0.5363    4.4856 H   0  0  0  0  0  0  0  0  0  0  0  0
    7.5533   -2.0832    5.2279 H   0  0  0  0  0  0  0  0  0  0  0  0
  1  3  1  0  0  0  0
  1  7  1  0  0  0  0
  1  2  2  0  0  0  0
 30 31  1  0  0  0  0
 31 39  1  0  0  0  0
 31 32  2  0  0  0  0
  8  9  1  0  0  0  0
  9 17  1  0  0  0  0
  9 10  2  0  0  0  0
 18 19  1  0  0  0  0
 19 29  1  0  0  0  0
 19 20  2  0  0  0  0
 21 22  1  0  0  0  0
 22 23  1  0  0  0  0
 22 24  2  0  0  0  0
 30 33  1  0  0  0  0
  8 11  1  0  0  0  0
 39 40  1  0  0  0  0
 18 21  1  0  0  0  0
 29 30  1  0  0  0  0
  7  8  1  0  0  0  0
 17 18  1  0  0  0  0
  3  4  1  0  0  0  0
  3  5  1  0  0  0  0
  3  6  1  0  0  0  0
 33 36  1  0  0  0  0
 33 37  1  0  0  0  0
 33 38  1  0  0  0  0
 11 14  1  0  0  0  0
 11 15  1  0  0  0  0
 11 16  1  0  0  0  0
 40 42  1  0  0  0  0
 40 43  1  0  0  0  0
 40 44  1  0  0  0  0
 21 27  1  0  0  0  0
 21 28  1  0  0  0  0
 30 35  1  0  0  0  0
  8 13  1  0  0  0  0
 18 26  1  0  0  0  0
 39 41  1  0  0  0  0
  7 12  1  0  0  0  0
 29 34  1  0  0  0  0
 17 25  1  0  0  0  0
M  CHG  1  23  -1
M  END
$$$$

  -OEChem-05262214473D

 44 43  0     1  0  0  0  0  0999 V2000
   -4.0256   -1.8030   -2.1581 C   0  0  0  0  0  0  0  0  0  0  0  0
   -3.7513   -2.6782   -2.9709 O   0  0  0  0  0  0  0  0  0  0  0  0
   -5.3491   -1.1169   -2.2339 C   0  0  0  0  0  0  0  0  0  0  0  0
   -5.3223   -0.2211   -2.8750 H   0  0  0  0  0  0  0  0  0  0  0  0
   -6.1322   -1.7605   -2.6658 H   0  0  0  0  0  0  0  0  0  0  0  0
   -5.7568   -0.7715   -1.2704 H   0  0  0  0  0  0  0  0  0  0  0  0
   -3.2124   -1.3578   -1.1289 N   0  0  0  0  0  0  0  0  0  0  0  0
   -1.8971   -1.8843   -0.8752 C   0  0  2  0  0  0  0  0  0  0  0  0
   -1.2676   -1.0599    0.2399 C   0  0  0  0  0  0  0  0  0  0  0  0
   -1.6270    0.0833    0.5138 O   0  0  0  0  0  0  0  0  0  0  0  0
   -1.0364   -1.8506   -2.1285 C   0  0  0  0  0  0  0  0  0  0  0  0
   -3.5631   -0.6202   -0.5206 H   0  0  0  0  0  0  0  0  0  0  0  0
   -2.0301   -2.9174   -0.5360 H   0  0  0  0  0  0  0  0  0  0  0  0
   -0.8921   -0.8236   -2.4833 H   0  0  0  0  0  0  0  0  0  0  0  0
   -0.0457   -2.2777   -1.9410 H   0  0  0  0  0  0  0  0  0  0  0  0
   -1.5052   -2.4193   -2.9387 H   0  0  0  0  0  0  0  0  0  0  0  0
   -0.2267   -1.7335    0.8672 N   0  0  0  0  0  0  0  0  0  0  0  0
    0.5363   -1.1590    1.9465 C   0  0  2  0  0  0  0  0  0  0  0  0
    1.5757   -2.1932    2.3633 C   0  0  0  0  0  0  0  0  0  0  0  0
    1.3217   -3.3905    2.4777 O   0  0  0  0  0  0  0  0  0  0  0  0
   -0.3506   -0.7825    3.1311 C   0  0  0  0  0  0  0  0  0  0  0  0
   -1.3142    0.3915    2.9154 C   0  0  0  0  0  0  0  0  0  0  0  0
   -0.9054    1.2478    2.0784 O   0  5  0  0  0  0  0  0  0  0  0  0
   -2.3806    0.3785    3.5887 O   0  0  0  0  0  0  0  0  0  0  0  0
   -0.0113   -2.6869    0.5854 H   0  0  0  0  0  0  0  0  0  0  0  0
    1.0467   -0.2793    1.5384 H   0  0  0  0  0  0  0  0  0  0  0  0
    0.2766   -0.5484    4.0022 H   0  0  0  0  0  0  0  0  0  0  0  0
   -0.9701   -1.6426    3.4169 H   0  0  0  0  0  0  0  0  0  0  0  0
    2.8311   -1.6287    2.5413 N   0  0  0  0  0  0  0  0  0  0  0  0
    3.9930   -2.4050    2.9070 C   0  0  2  0  0  0  0  0  0  0  0  0
    4.9114   -1.5156    3.7346 C   0  0  0  0  0  0  0  0  0  0  0  0
    4.8791   -0.2878    3.6853 O   0  0  0  0  0  0  0  0  0  0  0  0
    4.7134   -2.9355    1.6773 C   0  0  0  0  0  0  0  0  0  0  0  0
    2.9591   -0.6343    2.3781 H   0  0  0  0  0  0  0  0  0  0  0  0
    3.6361   -3.2369    3.5239 H   0  0  0  0  0  0  0  0  0  0  0  0
    5.0782   -2.1164    1.0468 H   0  0  0  0  0  0  0  0  0  0  0  0
    5.5774   -3.5474    1.9568 H   0  0  0  0  0  0  0  0  0  0  0  0
    4.0427   -3.5507    1.0677 H   0  0  0  0  0  0  0  0  0  0  0  0
    5.8006   -2.2546    4.5023 N   0  0  0  0  0  0  0  0  0  0  0  0
    6.7832   -1.6406    5.3646 C   0  0  0  0  0  0  0  0  0  0  0  0
    5.7434   -3.2687    4.4957 H   0  0  0  0  0  0  0  0  0  0  0  0
    7.7286   -1.5187    4.8155 H   0  0  0  0  0  0  0  0  0  0  0  0
    6.4195   -0.6553    5.6914 H   0  0  0  0  0  0  0  0  0  0  0  0
    6.9500   -2.2801    6.2439 H   0  0  0  0  0  0  0  0  0  0  0  0
  1  3  1  0  0  0  0
  1  7  1  0  0  0  0
  1  2  2  0  0  0  0
 30 31  1  0  0  0  0
 31 39  1  0  0  0  0
 31 32  2  0  0  0  0
  8  9  1  0  0  0  0
  9 17  1  0  0  0  0
  9 10  2  0  0  0  0
 18 19  1  0  0  0  0
 19 29  1  0  0  0  0
 19 20  2  0  0  0  0
 21 22  1  0  0  0  0
 22 23  1  0  0  0  0
 22 24  2  0  0  0  0
 30 33  1  0  0  0  0
  8 11  1  0  0  0  0
 39 40  1  0  0  0  0
 18 21  1  0  0  0  0
 29 30  1  0  0  0  0
  7  8  1  0  0  0  0
 17 18  1  0  0  0  0
  3  4  1  0  0  0  0
  3  5  1  0  0  0  0
  3  6  1  0  0  0  0
 33 36  1  0  0  0  0
 33 37  1  0  0  0  0
 33 38  1  0  0  0  0
 11 14  1  0  0  0  0
 11 15  1  0  0  0  0
 11 16  1  0  0  0  0
 40 42  1  0  0  0  0
 40 43  1  0  0  0  0
 40 44  1  0  0  0  0
 21 27  1  0  0  0  0
 21 28  1  0  0  0  0
 30 35  1  0  0  0  0
  8 13  1  0  0  0  0
 18 26  1  0  0  0  0
 39 41  1  0  0  0  0
  7 12  1  0  0  0  0
 29 34  1  0  0  0  0
 17 25  1  0  0  0  0
M  CHG  1  23  -1
M  END
$$$$

  -OEChem-05262214473D

 44 43  0     1  0  0  0  0  0999 V2000
   -4.0256   -1.8030   -2.1581 C   0  0  0  0  0  0  0  0  0  0  0  0
   -3.7513   -2.6782   -2.9709 O   0  0  0  0  0  0  0  0  0  0  0  0
   -5.3491   -1.1169   -2.2339 C   0  0  0  0  0  0  0  0  0  0  0  0
   -5.3223   -0.2211   -2.8750 H   0  0  0  0  0  0  0  0  0  0  0  0
   -6.1322   -1.7605   -2.6658 H   0  0  0  0  0  0  0  0  0  0  0  0
   -5.7568   -0.7715   -1.2704 H   0  0  0  0  0  0  0  0  0  0  0  0
   -3.2124   -1.3578   -1.1289 N   0  0  0  0  0  0  0  0  0  0  0  0
   -1.8971   -1.8843   -0.8752 C   0  0  2  0  0  0  0  0  0  0  0  0
   -1.2676   -1.0599    0.2399 C   0  0  0  0  0  0  0  0  0  0  0  0
   -1.6270    0.0833    0.5138 O   0  0  0  0  0  0  0  0  0  0  0  0
   -1.0364   -1.8506   -2.1285 C   0  0  0  0  0  0  0  0  0  0  0  0
   -3.5631   -0.6202   -0.5206 H   0  0  0  0  0  0  0  0  0  0  0  0
   -2.0301   -2.9174   -0.5360 H   0  0  0  0  0  0  0  0  0  0  0  0
   -0.8921   -0.8236   -2.4833 H   0  0  0  0  0  0  0  0  0  0  0  0
   -0.0457   -2.2777   -1.9410 H   0  0  0  0  0  0  0  0  0  0  0  0
   -1.5052   -2.4193   -2.9387 H   0  0  0  0  0  0  0  0  0  0  0  0
   -0.2267   -1.7335    0.8672 N   0  0  0  0  0  0  0  0  0  0  0  0
    0.5363   -1.1590    1.9465 C   0  0  2  0  0  0  0  0  0  0  0  0
    1.5757   -2.1932    2.3633 C   0  0  0  0  0  0  0  0  0  0  0  0
    1.4106   -3.4034    2.2241 O   0  0  0  0  0  0  0  0  0  0  0  0
   -0.3506   -0.7825    3.1311 C   0  0  0  0  0  0  0  0  0  0  0  0
   -1.3142    0.3915    2.9154 C   0  0  0  0  0  0  0  0  0  0  0  0
   -0.9054    1.2478    2.0784 O   0  5  0  0  0  0  0  0  0  0  0  0
   -2.3806    0.3785    3.5887 O   0  0  0  0  0  0  0  0  0  0  0  0
   -0.0113   -2.6869    0.5854 H   0  0  0  0  0  0  0  0  0  0  0  0
    1.0467   -0.2793    1.5384 H   0  0  0  0  0  0  0  0  0  0  0  0
    0.2766   -0.5484    4.0022 H   0  0  0  0  0  0  0  0  0  0  0  0
   -0.9701   -1.6426    3.4169 H   0  0  0  0  0  0  0  0  0  0  0  0
    2.7292   -1.6026    2.8601 N   0  0  0  0  0  0  0  0  0  0  0  0
    3.8752   -2.3676    3.2936 C   0  0  2  0  0  0  0  0  0  0  0  0
    4.5599   -1.5953    4.4136 C   0  0  0  0  0  0  0  0  0  0  0  0
    4.4303   -0.3828    4.5689 O   0  0  0  0  0  0  0  0  0  0  0  0
    4.8366   -2.6239    2.1435 C   0  0  0  0  0  0  0  0  0  0  0  0
    2.7965   -0.5896    2.8946 H   0  0  0  0  0  0  0  0  0  0  0  0
    3.4924   -3.3166    3.6846 H   0  0  0  0  0  0  0  0  0  0  0  0
    5.2305   -1.6845    1.7387 H   0  0  0  0  0  0  0  0  0  0  0  0
    5.6904   -3.2281    2.4672 H   0  0  0  0  0  0  0  0  0  0  0  0
    4.3345   -3.1532    1.3264 H   0  0  0  0  0  0  0  0  0  0  0  0
    5.3669   -2.4121    5.1931 N   0  0  0  0  0  0  0  0  0  0  0  0
    6.1326   -1.9130    6.3114 C   0  0  0  0  0  0  0  0  0  0  0  0
    5.3996   -3.4095    5.0038 H   0  0  0  0  0  0  0  0  0  0  0  0
    7.1430   -1.6410    5.9724 H   0  0  0  0  0  0  0  0  0  0  0  0
    5.6349   -1.0255    6.7295 H   0  0  0  0  0  0  0  0  0  0  0  0
    6.2028   -2.6923    7.0846 H   0  0  0  0  0  0  0  0  0  0  0  0
  1  3  1  0  0  0  0
  1  7  1  0  0  0  0
  1  2  2  0  0  0  0
 30 31  1  0  0  0  0
 31 39  1  0  0  0  0
 31 32  2  0  0  0  0
  8  9  1  0  0  0  0
  9 17  1  0  0  0  0
  9 10  2  0  0  0  0
 18 19  1  0  0  0  0
 19 29  1  0  0  0  0
 19 20  2  0  0  0  0
 21 22  1  0  0  0  0
 22 23  1  0  0  0  0
 22 24  2  0  0  0  0
 30 33  1  0  0  0  0
  8 11  1  0  0  0  0
 39 40  1  0  0  0  0
 18 21  1  0  0  0  0
 29 30  1  0  0  0  0
  7  8  1  0  0  0  0
 17 18  1  0  0  0  0
  3  4  1  0  0  0  0
  3  5  1  0  0  0  0
  3  6  1  0  0  0  0
 33 36  1  0  0  0  0
 33 37  1  0  0  0  0
 33 38  1  0  0  0  0
 11 14  1  0  0  0  0
 11 15  1  0  0  0  0
 11 16  1  0  0  0  0
 40 42  1  0  0  0  0
 40 43  1  0  0  0  0
 40 44  1  0  0  0  0
 21 27  1  0  0  0  0
 21 28  1  0  0  0  0
 30 35  1  0  0  0  0
  8 13  1  0  0  0  0
 18 26  1  0  0  0  0
 39 41  1  0  0  0  0
  7 12  1  0  0  0  0
 29 34  1  0  0  0  0
 17 25  1  0  0  0  0
M  CHG  1  23  -1
M  END
$$$$

  -OEChem-05262214473D

 44 43  0     1  0  0  0  0  0999 V2000
   -4.0256   -1.8030   -2.1581 C   0  0  0  0  0  0  0  0  0  0  0  0
   -3.7513   -2.6782   -2.9709 O   0  0  0  0  0  0  0  0  0  0  0  0
   -5.3491   -1.1169   -2.2339 C   0  0  0  0  0  0  0  0  0  0  0  0
   -5.3223   -0.2211   -2.8750 H   0  0  0  0  0  0  0  0  0  0  0  0
   -6.1322   -1.7605   -2.6658 H   0  0  0  0  0  0  0  0  0  0  0  0
   -5.7568   -0.7715   -1.2704 H   0  0  0  0  0  0  0  0  0  0  0  0
   -3.2124   -1.3578   -1.1289 N   0  0  0  0  0  0  0  0  0  0  0  0
   -1.8971   -1.8843   -0.8752 C   0  0  2  0  0  0  0  0  0  0  0  0
   -1.2676   -1.0599    0.2399 C   0  0  0  0  0  0  0  0  0  0  0  0
   -1.6270    0.0833    0.5138 O   0  0  0  0  0  0  0  0  0  0  0  0
   -1.0364   -1.8506   -2.1285 C   0  0  0  0  0  0  0  0  0  0  0  0
   -3.5631   -0.6202   -0.5206 H   0  0  0  0  0  0  0  0  0  0  0  0
   -2.0301   -2.9174   -0.5360 H   0  0  0  0  0  0  0  0  0  0  0  0
   -0.8921   -0.8236   -2.4833 H   0  0  0  0  0  0  0  0  0  0  0  0
   -0.0457   -2.2777   -1.9410 H   0  0  0  0  0  0  0  0  0  0  0  0
   -1.5052   -2.4193   -2.9387 H   0  0  0  0  0  0  0  0  0  0  0  0
   -0.2267   -1.7335    0.8672 N   0  0  0  0  0  0  0  0  0  0  0  0
    0.5363   -1.1590    1.9465 C   0  0  2  0  0  0  0  0  0  0  0  0
    1.5757   -2.1932    2.3633 C   0  0  0  0  0  0  0  0  0  0  0  0
    1.5419   -3.3648    1.9925 O   0  0  0  0  0  0  0  0  0  0  0  0
   -0.3506   -0.7825    3.1311 C   0  0  0  0  0  0  0  0  0  0  0  0
   -1.3142    0.3915    2.9154 C   0  0  0  0  0  0  0  0  0  0  0  0
   -0.9054    1.2478    2.0784 O   0  5  0  0  0  0  0  0  0  0  0  0
   -2.3806    0.3785    3.5887 O   0  0  0  0  0  0  0  0  0  0  0  0
   -0.0113   -2.6869    0.5854 H   0  0  0  0  0  0  0  0  0  0  0  0
    1.0467   -0.2793    1.5384 H   0  0  0  0  0  0  0  0  0  0  0  0
    0.2766   -0.5484    4.0022 H   0  0  0  0  0  0  0  0  0  0  0  0
   -0.9701   -1.6426    3.4169 H   0  0  0  0  0  0  0  0  0  0  0  0
    2.5730   -1.6408    3.1549 N   0  0  0  0  0  0  0  0  0  0  0  0
    3.6909   -2.4079    3.6530 C   0  0  2  0  0  0  0  0  0  0  0  0
    4.1068   -1.8170    4.9936 C   0  0  0  0  0  0  0  0  0  0  0  0
    3.8483   -0.6623    5.3268 O   0  0  0  0  0  0  0  0  0  0  0  0
    4.8516   -2.3964    2.6704 C   0  0  0  0  0  0  0  0  0  0  0  0
    2.5455   -0.6491    3.3729 H   0  0  0  0  0  0  0  0  0  0  0  0
    3.3311   -3.4320    3.8005 H   0  0  0  0  0  0  0  0  0  0  0  0
    5.2256   -1.3787    2.5099 H   0  0  0  0  0  0  0  0  0  0  0  0
    5.6874   -3.0018    3.0365 H   0  0  0  0  0  0  0  0  0  0  0  0
    4.5427   -2.7943    1.6977 H   0  0  0  0  0  0  0  0  0  0  0  0
    4.8378   -2.7169    5.7565 N   0  0  0  0  0  0  0  0  0  0  0  0
    5.3571   -2.3893    7.0637 C   0  0  0  0  0  0  0  0  0  0  0  0
    4.9883   -3.6595    5.4093 H   0  0  0  0  0  0  0  0  0  0  0  0
    6.3830   -2.0047    6.9655 H   0  0  0  0  0  0  0  0  0  0  0  0
    4.7209   -1.6219    7.5291 H   0  0  0  0  0  0  0  0  0  0  0  0
    5.3626   -3.2917    7.6927 H   0  0  0  0  0  0  0  0  0  0  0  0
  1  3  1  0  0  0  0
  1  7  1  0  0  0  0
  1  2  2  0  0  0  0
 30 31  1  0  0  0  0
 31 39  1  0  0  0  0
 31 32  2  0  0  0  0
  8  9  1  0  0  0  0
  9 17  1  0  0  0  0
  9 10  2  0  0  0  0
 18 19  1  0  0  0  0
 19 29  1  0  0  0  0
 19 20  2  0  0  0  0
 21 22  1  0  0  0  0
 22 23  1  0  0  0  0
 22 24  2  0  0  0  0
 30 33  1  0  0  0  0
  8 11  1  0  0  0  0
 39 40  1  0  0  0  0
 18 21  1  0  0  0  0
 29 30  1  0  0  0  0
  7  8  1  0  0  0  0
 17 18  1  0  0  0  0
  3  4  1  0  0  0  0
  3  5  1  0  0  0  0
  3  6  1  0  0  0  0
 33 36  1  0  0  0  0
 33 37  1  0  0  0  0
 33 38  1  0  0  0  0
 11 14  1  0  0  0  0
 11 15  1  0  0  0  0
 11 16  1  0  0  0  0
 40 42  1  0  0  0  0
 40 43  1  0  0  0  0
 40 44  1  0  0  0  0
 21 27  1  0  0  0  0
 21 28  1  0  0  0  0
 30 35  1  0  0  0  0
  8 13  1  0  0  0  0
 18 26  1  0  0  0  0
 39 41  1  0  0  0  0
  7 12  1  0  0  0  0
 29 34  1  0  0  0  0
 17 25  1  0  0  0  0
M  CHG  1  23  -1
M  END
$$$$

  -OEChem-05262214473D

 44 43  0     1  0  0  0  0  0999 V2000
   -4.0256   -1.8030   -2.1581 C   0  0  0  0  0  0  0  0  0  0  0  0
   -3.7513   -2.6782   -2.9709 O   0  0  0  0  0  0  0  0  0  0  0  0
   -5.3491   -1.1169   -2.2339 C   0  0  0  0  0  0  0  0  0  0  0  0
   -5.3223   -0.2211   -2.8750 H   0  0  0  0  0  0  0  0  0  0  0  0
   -6.1322   -1.7605   -2.6658 H   0  0  0  0  0  0  0  0  0  0  0  0
   -5.7568   -0.7715   -1.2704 H   0  0  0  0  0  0  0  0  0  0  0  0
   -3.2124   -1.3578   -1.1289 N   0  0  0  0  0  0  0  0  0  0  0  0
   -1.8971   -1.8843   -0.8752 C   0  0  2  0  0  0  0  0  0  0  0  0
   -1.2676   -1.0599    0.2399 C   0  0  0  0  0  0  0  0  0  0  0  0
   -1.6270    0.0833    0.5138 O   0  0  0  0  0  0  0  0  0  0  0  0
   -1.0364   -1.8506   -2.1285 C   0  0  0  0  0  0  0  0  0  0  0  0
   -3.5631   -0.6202   -0.5206 H   0  0  0  0  0  0  0  0  0  0  0  0
   -2.0301   -2.9174   -0.5360 H   0  0  0  0  0  0  0  0  0  0  0  0
   -0.8921   -0.8236   -2.4833 H   0  0  0  0  0  0  0  0  0  0  0  0
   -0.0457   -2.2777   -1.9410 H   0  0  0  0  0  0  0  0  0  0  0  0
   -1.5052   -2.4193   -2.9387 H   0  0  0  0  0  0  0  0  0  0  0  0
   -0.2267   -1.7335    0.8672 N   0  0  0  0  0  0  0  0  0  0  0  0
    0.5363   -1.1590    1.9465 C   0  0  2  0  0  0  0  0  0  0  0  0
    1.7919   -2.0075    2.1116 C   0  0  0  0  0  0  0  0  0  0  0  0
    2.0560   -2.9626    1.3842 O   0  0  0  0  0  0  0  0  0  0  0  0
   -0.2609   -1.1218    3.2483 C   0  0  0  0  0  0  0  0  0  0  0  0
   -1.4451   -0.1478    3.2950 C   0  0  0  0  0  0  0  0  0  0  0  0
   -1.3038    0.8723    2.5599 O   0  5  0  0  0  0  0  0  0  0  0  0
   -2.4044   -0.4602    4.0520 O   0  0  0  0  0  0  0  0  0  0  0  0
   -0.0113   -2.6869    0.5854 H   0  0  0  0  0  0  0  0  0  0  0  0
    0.8224   -0.1502    1.6282 H   0  0  0  0  0  0  0  0  0  0  0  0
    0.4088   -0.8789    4.0846 H   0  0  0  0  0  0  0  0  0  0  0  0
   -0.6713   -2.1180    3.4588 H   0  0  0  0  0  0  0  0  0  0  0  0
    2.6068   -1.5400    3.1332 N   0  0  0  0  0  0  0  0  0  0  0  0
    3.8708   -2.1536    3.4681 C   0  0  2  0  0  0  0  0  0  0  0  0
    4.1031   -1.9668    4.9617 C   0  0  0  0  0  0  0  0  0  0  0  0
    3.5607   -1.0811    5.6193 O   0  0  0  0  0  0  0  0  0  0  0  0
    5.0099   -1.5501    2.6612 C   0  0  0  0  0  0  0  0  0  0  0  0
    2.3306   -0.7122    3.6531 H   0  0  0  0  0  0  0  0  0  0  0  0
    3.7733   -3.2214    3.2439 H   0  0  0  0  0  0  0  0  0  0  0  0
    5.1229   -0.4806    2.8727 H   0  0  0  0  0  0  0  0  0  0  0  0
    5.9629   -2.0358    2.8955 H   0  0  0  0  0  0  0  0  0  0  0  0
    4.8268   -1.6590    1.5868 H   0  0  0  0  0  0  0  0  0  0  0  0
    5.0205   -2.8784    5.4652 N   0  0  0  0  0  0  0  0  0  0  0  0
    5.4188   -2.8978    6.8533 C   0  0  0  0  0  0  0  0  0  0  0  0
    5.4060   -3.5901    4.8515 H   0  0  0  0  0  0  0  0  0  0  0  0
    6.3191   -2.2796    6.9856 H   0  0  0  0  0  0  0  0  0  0  0  0
    4.6042   -2.4965    7.4741 H   0  0  0  0  0  0  0  0  0  0  0  0
    5.6364   -3.9321    7.1578 H   0  0  0  0  0  0  0  0  0  0  0  0
  1  3  1  0  0  0  0
  1  7  1  0  0  0  0
  1  2  2  0  0  0  0
 30 31  1  0  0  0  0
 31 39  1  0  0  0  0
 31 32  2  0  0  0  0
  8  9  1  0  0  0  0
  9 17  1  0  0  0  0
  9 10  2  0  0  0  0
 18 19  1  0  0  0  0
 19 29  1  0  0  0  0
 19 20  2  0  0  0  0
 21 22  1  0  0  0  0
 22 23  1  0  0  0  0
 22 24  2  0  0  0  0
 30 33  1  0  0  0  0
  8 11  1  0  0  0  0
 39 40  1  0  0  0  0
 18 21  1  0  0  0  0
 29 30  1  0  0  0  0
  7  8  1  0  0  0  0
 17 18  1  0  0  0  0
  3  4  1  0  0  0  0
  3  5  1  0  0  0  0
  3  6  1  0  0  0  0
 33 36  1  0  0  0  0
 33 37  1  0  0  0  0
 33 38  1  0  0  0  0
 11 14  1  0  0  0  0
 11 15  1  0  0  0  0
 11 16  1  0  0  0  0
 40 42  1  0  0  0  0
 40 43  1  0  0  0  0
 40 44  1  0  0  0  0
 21 27  1  0  0  0  0
 21 28  1  0  0  0  0
 30 35  1  0  0  0  0
  8 13  1  0  0  0  0
 18 26  1  0  0  0  0
 39 41  1  0  0  0  0
  7 12  1  0  0  0  0
 29 34  1  0  0  0  0
 17 25  1  0  0  0  0
M  CHG  1  23  -1
M  END
$$$$

  -OEChem-05262214473D

 44 43  0     1  0  0  0  0  0999 V2000
   -4.0256   -1.8030   -2.1581 C   0  0  0  0  0  0  0  0  0  0  0  0
   -3.7513   -2.6782   -2.9709 O   0  0  0  0  0  0  0  0  0  0  0  0
   -5.3491   -1.1169   -2.2339 C   0  0  0  0  0  0  0  0  0  0  0  0
   -5.3223   -0.2211   -2.8750 H   0  0  0  0  0  0  0  0  0  0  0  0
   -6.1322   -1.7605   -2.6658 H   0  0  0  0  0  0  0  0  0  0  0  0
   -5.7568   -0.7715   -1.2704 H   0  0  0  0  0  0  0  0  0  0  0  0
   -3.2124   -1.3578   -1.1289 N   0  0  0  0  0  0  0  0  0  0  0  0
   -1.8971   -1.8843   -0.8752 C   0  0  2  0  0  0  0  0  0  0  0  0
   -1.2676   -1.0599    0.2399 C   0  0  0  0  0  0  0  0  0  0  0  0
   -1.6270    0.0833    0.5138 O   0  0  0  0  0  0  0  0  0  0  0  0
   -1.0364   -1.8506   -2.1285 C   0  0  0  0  0  0  0  0  0  0  0  0
   -3.5631   -0.6202   -0.5206 H   0  0  0  0  0  0  0  0  0  0  0  0
   -2.0301   -2.9174   -0.5360 H   0  0  0  0  0  0  0  0  0  0  0  0
   -0.8921   -0.8236   -2.4833 H   0  0  0  0  0  0  0  0  0  0  0  0
   -0.0457   -2.2777   -1.9410 H   0  0  0  0  0  0  0  0  0  0  0  0
   -1.5052   -2.4193   -2.9387 H   0  0  0  0  0  0  0  0  0  0  0  0
   -0.2267   -1.7335    0.8672 N   0  0  0  0  0  0  0  0  0  0  0  0
    0.5363   -1.1590    1.9465 C   0  0  2  0  0  0  0  0  0  0  0  0
    1.7919   -2.0075    2.1116 C   0  0  0  0  0  0  0  0  0  0  0  0
    2.1974   -2.7803    1.2459 O   0  0  0  0  0  0  0  0  0  0  0  0
   -0.2609   -1.1218    3.2483 C   0  0  0  0  0  0  0  0  0  0  0  0
   -1.4451   -0.1478    3.2950 C   0  0  0  0  0  0  0  0  0  0  0  0
   -1.3038    0.8723    2.5599 O   0  5  0  0  0  0  0  0  0  0  0  0
   -2.4044   -0.4602    4.0520 O   0  0  0  0  0  0  0  0  0  0  0  0
   -0.0113   -2.6869    0.5854 H   0  0  0  0  0  0  0  0  0  0  0  0
    0.8224   -0.1502    1.6282 H   0  0  0  0  0  0  0  0  0  0  0  0
    0.4088   -0.8789    4.0846 H   0  0  0  0  0  0  0  0  0  0  0  0
   -0.6713   -2.1180    3.4588 H   0  0  0  0  0  0  0  0  0  0  0  0
    2.4334   -1.7607    3.3174 N   0  0  0  0  0  0  0  0  0  0  0  0
    3.6631   -2.4163    3.6974 C   0  0  2  0  0  0  0  0  0  0  0  0
    3.6741   -2.5525    5.2143 C   0  0  0  0  0  0  0  0  0  0  0  0
    3.0063   -1.8359    5.9569 O   0  0  0  0  0  0  0  0  0  0  0  0
    4.8772   -1.6393    3.2126 C   0  0  0  0  0  0  0  0  0  0  0  0
    2.0508   -1.0678    3.9539 H   0  0  0  0  0  0  0  0  0  0  0  0
    3.6449   -3.4119    3.2409 H   0  0  0  0  0  0  0  0  0  0  0  0
    4.9124   -0.6389    3.6594 H   0  0  0  0  0  0  0  0  0  0  0  0
    5.8079   -2.1521    3.4767 H   0  0  0  0  0  0  0  0  0  0  0  0
    4.8523   -1.5165    2.1245 H   0  0  0  0  0  0  0  0  0  0  0  0
    4.5502   -3.5397    5.6433 N   0  0  0  0  0  0  0  0  0  0  0  0
    4.7493   -3.8524    7.0392 C   0  0  0  0  0  0  0  0  0  0  0  0
    5.0491   -4.0977    4.9567 H   0  0  0  0  0  0  0  0  0  0  0  0
    5.5940   -3.2661    7.4300 H   0  0  0  0  0  0  0  0  0  0  0  0
    3.8385   -3.6043    7.6039 H   0  0  0  0  0  0  0  0  0  0  0  0
    4.9667   -4.9253    7.1471 H   0  0  0  0  0  0  0  0  0  0  0  0
  1  3  1  0  0  0  0
  1  7  1  0  0  0  0
  1  2  2  0  0  0  0
 30 31  1  0  0  0  0
 31 39  1  0  0  0  0
 31 32  2  0  0  0  0
  8  9  1  0  0  0  0
  9 17  1  0  0  0  0
  9 10  2  0  0  0  0
 18 19  1  0  0  0  0
 19 29  1  0  0  0  0
 19 20  2  0  0  0  0
 21 22  1  0  0  0  0
 22 23  1  0  0  0  0
 22 24  2  0  0  0  0
 30 33  1  0  0  0  0
  8 11  1  0  0  0  0
 39 40  1  0  0  0  0
 18 21  1  0  0  0  0
 29 30  1  0  0  0  0
  7  8  1  0  0  0  0
 17 18  1  0  0  0  0
  3  4  1  0  0  0  0
  3  5  1  0  0  0  0
  3  6  1  0  0  0  0
 33 36  1  0  0  0  0
 33 37  1  0  0  0  0
 33 38  1  0  0  0  0
 11 14  1  0  0  0  0
 11 15  1  0  0  0  0
 11 16  1  0  0  0  0
 40 42  1  0  0  0  0
 40 43  1  0  0  0  0
 40 44  1  0  0  0  0
 21 27  1  0  0  0  0
 21 28  1  0  0  0  0
 30 35  1  0  0  0  0
  8 13  1  0  0  0  0
 18 26  1  0  0  0  0
 39 41  1  0  0  0  0
  7 12  1  0  0  0  0
 29 34  1  0  0  0  0
 17 25  1  0  0  0  0
M  CHG  1  23  -1
M  END
$$$$

  -OEChem-05262214473D

 44 43  0     1  0  0  0  0  0999 V2000
   -4.0256   -1.8030   -2.1581 C   0  0  0  0  0  0  0  0  0  0  0  0
   -3.7513   -2.6782   -2.9709 O   0  0  0  0  0  0  0  0  0  0  0  0
   -5.3491   -1.1169   -2.2339 C   0  0  0  0  0  0  0  0  0  0  0  0
   -5.3223   -0.2211   -2.8750 H   0  0  0  0  0  0  0  0  0  0  0  0
   -6.1322   -1.7605   -2.6658 H   0  0  0  0  0  0  0  0  0  0  0  0
   -5.7568   -0.7715   -1.2704 H   0  0  0  0  0  0  0  0  0  0  0  0
   -3.2124   -1.3578   -1.1289 N   0  0  0  0  0  0  0  0  0  0  0  0
   -1.8971   -1.8843   -0.8752 C   0  0  2  0  0  0  0  0  0  0  0  0
   -1.2676   -1.0599    0.2399 C   0  0  0  0  0  0  0  0  0  0  0  0
   -1.6270    0.0833    0.5138 O   0  0  0  0  0  0  0  0  0  0  0  0
   -1.0364   -1.8506   -2.1285 C   0  0  0  0  0  0  0  0  0  0  0  0
   -3.5631   -0.6202   -0.5206 H   0  0  0  0  0  0  0  0  0  0  0  0
   -2.0301   -2.9174   -0.5360 H   0  0  0  0  0  0  0  0  0  0  0  0
   -0.8921   -0.8236   -2.4833 H   0  0  0  0  0  0  0  0  0  0  0  0
   -0.0457   -2.2777   -1.9410 H   0  0  0  0  0  0  0  0  0  0  0  0
   -1.5052   -2.4193   -2.9387 H   0  0  0  0  0  0  0  0  0  0  0  0
   -0.2267   -1.7335    0.8672 N   0  0  0  0  0  0  0  0  0  0  0  0
    0.5363   -1.1590    1.9465 C   0  0  2  0  0  0  0  0  0  0  0  0
    1.7919   -2.0075    2.1116 C   0  0  0  0  0  0  0  0  0  0  0  0
    2.3488   -2.5707    1.1715 O   0  0  0  0  0  0  0  0  0  0  0  0
   -0.2609   -1.1218    3.2483 C   0  0  0  0  0  0  0  0  0  0  0  0
   -1.4451   -0.1478    3.2950 C   0  0  0  0  0  0  0  0  0  0  0  0
   -1.3038    0.8723    2.5599 O   0  5  0  0  0  0  0  0  0  0  0  0
   -2.4044   -0.4602    4.0520 O   0  0  0  0  0  0  0  0  0  0  0  0
   -0.0113   -2.6869    0.5854 H   0  0  0  0  0  0  0  0  0  0  0  0
    0.8224   -0.1502    1.6282 H   0  0  0  0  0  0  0  0  0  0  0  0
    0.4088   -0.8789    4.0846 H   0  0  0  0  0  0  0  0  0  0  0  0
   -0.6713   -2.1180    3.4588 H   0  0  0  0  0  0  0  0  0  0  0  0
    2.2456   -2.0181    3.4232 N   0  0  0  0  0  0  0  0  0  0  0  0
    3.4368   -2.7248    3.8330 C   0  0  2  0  0  0  0  0  0  0  0  0
    3.2398   -3.1841    5.2716 C   0  0  0  0  0  0  0  0  0  0  0  0
    2.4432   -2.6525    6.0423 O   0  0  0  0  0  0  0  0  0  0  0  0
    4.6720   -1.8466    3.7072 C   0  0  0  0  0  0  0  0  0  0  0  0
    1.7471   -1.4832    4.1283 H   0  0  0  0  0  0  0  0  0  0  0  0
    3.5267   -3.5990    3.1789 H   0  0  0  0  0  0  0  0  0  0  0  0
    4.6002   -0.9655    4.3553 H   0  0  0  0  0  0  0  0  0  0  0  0
    5.5777   -2.3927    3.9909 H   0  0  0  0  0  0  0  0  0  0  0  0
    4.7955   -1.4929    2.6779 H   0  0  0  0  0  0  0  0  0  0  0  0
    4.0888   -4.2296    5.6066 N   0  0  0  0  0  0  0  0  0  0  0  0
    4.1026   -4.8329    6.9188 C   0  0  0  0  0  0  0  0  0  0  0  0
    4.7035   -4.6205    4.8987 H   0  0  0  0  0  0  0  0  0  0  0  0
    4.8573   -4.3341    7.5444 H   0  0  0  0  0  0  0  0  0  0  0  0
    3.1113   -4.7235    7.3829 H   0  0  0  0  0  0  0  0  0  0  0  0
    4.3492   -5.9011    6.8285 H   0  0  0  0  0  0  0  0  0  0  0  0
  1  3  1  0  0  0  0
  1  7  1  0  0  0  0
  1  2  2  0  0  0  0
 30 31  1  0  0  0  0
 31 39  1  0  0  0  0
 31 32  2  0  0  0  0
  8  9  1  0  0  0  0
  9 17  1  0  0  0  0
  9 10  2  0  0  0  0
 18 19  1  0  0  0  0
 19 29  1  0  0  0  0
 19 20  2  0  0  0  0
 21 22  1  0  0  0  0
 22 23  1  0  0  0  0
 22 24  2  0  0  0  0
 30 33  1  0  0  0  0
  8 11  1  0  0  0  0
 39 40  1  0  0  0  0
 18 21  1  0  0  0  0
 29 30  1  0  0  0  0
  7  8  1  0  0  0  0
 17 18  1  0  0  0  0
  3  4  1  0  0  0  0
  3  5  1  0  0  0  0
  3  6  1  0  0  0  0
 33 36  1  0  0  0  0
 33 37  1  0  0  0  0
 33 38  1  0  0  0  0
 11 14  1  0  0  0  0
 11 15  1  0  0  0  0
 11 16  1  0  0  0  0
 40 42  1  0  0  0  0
 40 43  1  0  0  0  0
 40 44  1  0  0  0  0
 21 27  1  0  0  0  0
 21 28  1  0  0  0  0
 30 35  1  0  0  0  0
  8 13  1  0  0  0  0
 18 26  1  0  0  0  0
 39 41  1  0  0  0  0
  7 12  1  0  0  0  0
 29 34  1  0  0  0  0
 17 25  1  0  0  0  0
M  CHG  1  23  -1
M  END
$$$$

  -OEChem-05262214473D

 44 43  0     1  0  0  0  0  0999 V2000
   -4.0256   -1.8030   -2.1581 C   0  0  0  0  0  0  0  0  0  0  0  0
   -3.7513   -2.6782   -2.9709 O   0  0  0  0  0  0  0  0  0  0  0  0
   -5.3491   -1.1169   -2.2339 C   0  0  0  0  0  0  0  0  0  0  0  0
   -5.3223   -0.2211   -2.8750 H   0  0  0  0  0  0  0  0  0  0  0  0
   -6.1322   -1.7605   -2.6658 H   0  0  0  0  0  0  0  0  0  0  0  0
   -5.7568   -0.7715   -1.2704 H   0  0  0  0  0  0  0  0  0  0  0  0
   -3.2124   -1.3578   -1.1289 N   0  0  0  0  0  0  0  0  0  0  0  0
   -1.8971   -1.8843   -0.8752 C   0  0  2  0  0  0  0  0  0  0  0  0
   -1.2676   -1.0599    0.2399 C   0  0  0  0  0  0  0  0  0  0  0  0
   -1.6270    0.0833    0.5138 O   0  0  0  0  0  0  0  0  0  0  0  0
   -1.0364   -1.8506   -2.1285 C   0  0  0  0  0  0  0  0  0  0  0  0
   -3.5631   -0.6202   -0.5206 H   0  0  0  0  0  0  0  0  0  0  0  0
   -2.0301   -2.9174   -0.5360 H   0  0  0  0  0  0  0  0  0  0  0  0
   -0.8921   -0.8236   -2.4833 H   0  0  0  0  0  0  0  0  0  0  0  0
   -0.0457   -2.2777   -1.9410 H   0  0  0  0  0  0  0  0  0  0  0  0
   -1.5052   -2.4193   -2.9387 H   0  0  0  0  0  0  0  0  0  0  0  0
   -0.2267   -1.7335    0.8672 N   0  0  0  0  0  0  0  0  0  0  0  0
    0.5363   -1.1590    1.9465 C   0  0  2  0  0  0  0  0  0  0  0  0
    1.7919   -2.0075    2.1116 C   0  0  0  0  0  0  0  0  0  0  0  0
    2.4999   -2.3482    1.1661 O   0  0  0  0  0  0  0  0  0  0  0  0
   -0.2609   -1.1218    3.2483 C   0  0  0  0  0  0  0  0  0  0  0  0
   -1.4451   -0.1478    3.2950 C   0  0  0  0  0  0  0  0  0  0  0  0
   -1.3038    0.8723    2.5599 O   0  5  0  0  0  0  0  0  0  0  0  0
   -2.4044   -0.4602    4.0520 O   0  0  0  0  0  0  0  0  0  0  0  0
   -0.0113   -2.6869    0.5854 H   0  0  0  0  0  0  0  0  0  0  0  0
    0.8224   -0.1502    1.6282 H   0  0  0  0  0  0  0  0  0  0  0  0
    0.4088   -0.8789    4.0846 H   0  0  0  0  0  0  0  0  0  0  0  0
   -0.6713   -2.1180    3.4588 H   0  0  0  0  0  0  0  0  0  0  0  0
    2.0561   -2.2945    3.4435 N   0  0  0  0  0  0  0  0  0  0  0  0
    3.2074   -3.0580    3.8655 C   0  0  2  0  0  0  0  0  0  0  0  0
    2.8296   -3.8186    5.1297 C   0  0  0  0  0  0  0  0  0  0  0  0
    1.9099   -3.4753    5.8696 O   0  0  0  0  0  0  0  0  0  0  0  0
    4.4084   -2.1581    4.1111 C   0  0  0  0  0  0  0  0  0  0  0  0
    1.4403   -1.9302    4.1645 H   0  0  0  0  0  0  0  0  0  0  0  0
    3.4267   -3.7697    3.0622 H   0  0  0  0  0  0  0  0  0  0  0  0
    4.2076   -1.4381    4.9128 H   0  0  0  0  0  0  0  0  0  0  0  0
    5.2880   -2.7412    4.4032 H   0  0  0  0  0  0  0  0  0  0  0  0
    4.6603   -1.5896    3.2093 H   0  0  0  0  0  0  0  0  0  0  0  0
    3.6678   -4.9011    5.3577 N   0  0  0  0  0  0  0  0  0  0  0  0
    3.5227   -5.7725    6.5003 C   0  0  0  0  0  0  0  0  0  0  0  0
    4.3926   -5.1228    4.6815 H   0  0  0  0  0  0  0  0  0  0  0  0
    4.1592   -5.4107    7.3212 H   0  0  0  0  0  0  0  0  0  0  0  0
    2.4721   -5.7778    6.8260 H   0  0  0  0  0  0  0  0  0  0  0  0
    3.8260   -6.7930    6.2238 H   0  0  0  0  0  0  0  0  0  0  0  0
  1  3  1  0  0  0  0
  1  7  1  0  0  0  0
  1  2  2  0  0  0  0
 30 31  1  0  0  0  0
 31 39  1  0  0  0  0
 31 32  2  0  0  0  0
  8  9  1  0  0  0  0
  9 17  1  0  0  0  0
  9 10  2  0  0  0  0
 18 19  1  0  0  0  0
 19 29  1  0  0  0  0
 19 20  2  0  0  0  0
 21 22  1  0  0  0  0
 22 23  1  0  0  0  0
 22 24  2  0  0  0  0
 30 33  1  0  0  0  0
  8 11  1  0  0  0  0
 39 40  1  0  0  0  0
 18 21  1  0  0  0  0
 29 30  1  0  0  0  0
  7  8  1  0  0  0  0
 17 18  1  0  0  0  0
  3  4  1  0  0  0  0
  3  5  1  0  0  0  0
  3  6  1  0  0  0  0
 33 36  1  0  0  0  0
 33 37  1  0  0  0  0
 33 38  1  0  0  0  0
 11 14  1  0  0  0  0
 11 15  1  0  0  0  0
 11 16  1  0  0  0  0
 40 42  1  0  0  0  0
 40 43  1  0  0  0  0
 40 44  1  0  0  0  0
 21 27  1  0  0  0  0
 21 28  1  0  0  0  0
 30 35  1  0  0  0  0
  8 13  1  0  0  0  0
 18 26  1  0  0  0  0
 39 41  1  0  0  0  0
  7 12  1  0  0  0  0
 29 34  1  0  0  0  0
 17 25  1  0  0  0  0
M  CHG  1  23  -1
M  END
$$$$

  -OEChem-05262214473D

 44 43  0     1  0  0  0  0  0999 V2000
   -4.0256   -1.8030   -2.1581 C   0  0  0  0  0  0  0  0  0  0  0  0
   -3.7513   -2.6782   -2.9709 O   0  0  0  0  0  0  0  0  0  0  0  0
   -5.3491   -1.1169   -2.2339 C   0  0  0  0  0  0  0  0  0  0  0  0
   -5.3223   -0.2211   -2.8750 H   0  0  0  0  0  0  0  0  0  0  0  0
   -6.1322   -1.7605   -2.6658 H   0  0  0  0  0  0  0  0  0  0  0  0
   -5.7568   -0.7715   -1.2704 H   0  0  0  0  0  0  0  0  0  0  0  0
   -3.2124   -1.3578   -1.1289 N   0  0  0  0  0  0  0  0  0  0  0  0
   -1.8971   -1.8843   -0.8752 C   0  0  2  0  0  0  0  0  0  0  0  0
   -1.2676   -1.0599    0.2399 C   0  0  0  0  0  0  0  0  0  0  0  0
   -1.6270    0.0833    0.5138 O   0  0  0  0  0  0  0  0  0  0  0  0
   -1.0364   -1.8506   -2.1285 C   0  0  0  0  0  0  0  0  0  0  0  0
   -3.5631   -0.6202   -0.5206 H   0  0  0  0  0  0  0  0  0  0  0  0
   -2.0301   -2.9174   -0.5360 H   0  0  0  0  0  0  0  0  0  0  0  0
   -0.8921   -0.8236   -2.4833 H   0  0  0  0  0  0  0  0  0  0  0  0
   -0.0457   -2.2777   -1.9410 H   0  0  0  0  0  0  0  0  0  0  0  0
   -1.5052   -2.4193   -2.9387 H   0  0  0  0  0  0  0  0  0  0  0  0
   -0.2267   -1.7335    0.8672 N   0  0  0  0  0  0  0  0  0  0  0  0
    0.5363   -1.1590    1.9465 C   0  0  2  0  0  0  0  0  0  0  0  0
    1.7919   -2.0075    2.1116 C   0  0  0  0  0  0  0  0  0  0  0  0
    2.6403   -2.1279    1.2302 O   0  0  0  0  0  0  0  0  0  0  0  0
   -0.2609   -1.1218    3.2483 C   0  0  0  0  0  0  0  0  0  0  0  0
   -1.4451   -0.1478    3.2950 C   0  0  0  0  0  0  0  0  0  0  0  0
   -1.3038    0.8723    2.5599 O   0  5  0  0  0  0  0  0  0  0  0  0
   -2.4044   -0.4602    4.0520 O   0  0  0  0  0  0  0  0  0  0  0  0
   -0.0113   -2.6869    0.5854 H   0  0  0  0  0  0  0  0  0  0  0  0
    0.8224   -0.1502    1.6282 H   0  0  0  0  0  0  0  0  0  0  0  0
    0.4088   -0.8789    4.0846 H   0  0  0  0  0  0  0  0  0  0  0  0
   -0.6713   -2.1180    3.4588 H   0  0  0  0  0  0  0  0  0  0  0  0
    1.8779   -2.5712    3.3770 N   0  0  0  0  0  0  0  0  0  0  0  0
    2.9904   -3.3932    3.7929 C   0  0  2  0  0  0  0  0  0  0  0  0
    2.4717   -4.4128    4.7984 C   0  0  0  0  0  0  0  0  0  0  0  0
    1.4428   -4.2482    5.4505 O   0  0  0  0  0  0  0  0  0  0  0  0
    4.1044   -2.5524    4.3968 C   0  0  0  0  0  0  0  0  0  0  0  0
    1.1513   -2.3782    4.0600 H   0  0  0  0  0  0  0  0  0  0  0  0
    3.3516   -3.9126    2.8986 H   0  0  0  0  0  0  0  0  0  0  0  0
    3.7612   -2.0244    5.2940 H   0  0  0  0  0  0  0  0  0  0  0  0
    4.9586   -3.1738    4.6854 H   0  0  0  0  0  0  0  0  0  0  0  0
    4.4558   -1.8001    3.6825 H   0  0  0  0  0  0  0  0  0  0  0  0
    3.3158   -5.5084    4.9134 N   0  0  0  0  0  0  0  0  0  0  0  0
    3.0492   -6.6071    5.8121 C   0  0  0  0  0  0  0  0  0  0  0  0
    4.1378   -5.5704    4.3198 H   0  0  0  0  0  0  0  0  0  0  0  0
    3.5472   -6.4226    6.7755 H   0  0  0  0  0  0  0  0  0  0  0  0
    1.9644   -6.6955    5.9713 H   0  0  0  0  0  0  0  0  0  0  0  0
    3.4328   -7.5404    5.3741 H   0  0  0  0  0  0  0  0  0  0  0  0
  1  3  1  0  0  0  0
  1  7  1  0  0  0  0
  1  2  2  0  0  0  0
 30 31  1  0  0  0  0
 31 39  1  0  0  0  0
 31 32  2  0  0  0  0
  8  9  1  0  0  0  0
  9 17  1  0  0  0  0
  9 10  2  0  0  0  0
 18 19  1  0  0  0  0
 19 29  1  0  0  0  0
 19 20  2  0  0  0  0
 21 22  1  0  0  0  0
 22 23  1  0  0  0  0
 22 24  2  0  0  0  0
 30 33  1  0  0  0  0
  8 11  1  0  0  0  0
 39 40  1  0  0  0  0
 18 21  1  0  0  0  0
 29 30  1  0  0  0  0
  7  8  1  0  0  0  0
 17 18  1  0  0  0  0
  3  4  1  0  0  0  0
  3  5  1  0  0  0  0
  3  6  1  0  0  0  0
 33 36  1  0  0  0  0
 33 37  1  0  0  0  0
 33 38  1  0  0  0  0
 11 14  1  0  0  0  0
 11 15  1  0  0  0  0
 11 16  1  0  0  0  0
 40 42  1  0  0  0  0
 40 43  1  0  0  0  0
 40 44  1  0  0  0  0
 21 27  1  0  0  0  0
 21 28  1  0  0  0  0
 30 35  1  0  0  0  0
  8 13  1  0  0  0  0
 18 26  1  0  0  0  0
 39 41  1  0  0  0  0
  7 12  1  0  0  0  0
 29 34  1  0  0  0  0
 17 25  1  0  0  0  0
M  CHG  1  23  -1
M  END
$$$$

  -OEChem-05262214473D

 44 43  0     1  0  0  0  0  0999 V2000
   -4.0256   -1.8030   -2.1581 C   0  0  0  0  0  0  0  0  0  0  0  0
   -3.7513   -2.6782   -2.9709 O   0  0  0  0  0  0  0  0  0  0  0  0
   -5.3491   -1.1169   -2.2339 C   0  0  0  0  0  0  0  0  0  0  0  0
   -5.3223   -0.2211   -2.8750 H   0  0  0  0  0  0  0  0  0  0  0  0
   -6.1322   -1.7605   -2.6658 H   0  0  0  0  0  0  0  0  0  0  0  0
   -5.7568   -0.7715   -1.2704 H   0  0  0  0  0  0  0  0  0  0  0  0
   -3.2124   -1.3578   -1.1289 N   0  0  0  0  0  0  0  0  0  0  0  0
   -1.8971   -1.8843   -0.8752 C   0  0  2  0  0  0  0  0  0  0  0  0
   -1.2676   -1.0599    0.2399 C   0  0  0  0  0  0  0  0  0  0  0  0
   -1.6270    0.0833    0.5138 O   0  0  0  0  0  0  0  0  0  0  0  0
   -1.0364   -1.8506   -2.1285 C   0  0  0  0  0  0  0  0  0  0  0  0
   -3.5631   -0.6202   -0.5206 H   0  0  0  0  0  0  0  0  0  0  0  0
   -2.0301   -2.9174   -0.5360 H   0  0  0  0  0  0  0  0  0  0  0  0
   -0.8921   -0.8236   -2.4833 H   0  0  0  0  0  0  0  0  0  0  0  0
   -0.0457   -2.2777   -1.9410 H   0  0  0  0  0  0  0  0  0  0  0  0
   -1.5052   -2.4193   -2.9387 H   0  0  0  0  0  0  0  0  0  0  0  0
   -0.2267   -1.7335    0.8672 N   0  0  0  0  0  0  0  0  0  0  0  0
    0.5363   -1.1590    1.9465 C   0  0  2  0  0  0  0  0  0  0  0  0
    1.7919   -2.0075    2.1116 C   0  0  0  0  0  0  0  0  0  0  0  0
    2.7606   -1.9248    1.3592 O   0  0  0  0  0  0  0  0  0  0  0  0
   -0.2609   -1.1218    3.2483 C   0  0  0  0  0  0  0  0  0  0  0  0
   -1.4451   -0.1478    3.2950 C   0  0  0  0  0  0  0  0  0  0  0  0
   -1.3038    0.8723    2.5599 O   0  5  0  0  0  0  0  0  0  0  0  0
   -2.4044   -0.4602    4.0520 O   0  0  0  0  0  0  0  0  0  0  0  0
   -0.0113   -2.6869    0.5854 H   0  0  0  0  0  0  0  0  0  0  0  0
    0.8224   -0.1502    1.6282 H   0  0  0  0  0  0  0  0  0  0  0  0
    0.4088   -0.8789    4.0846 H   0  0  0  0  0  0  0  0  0  0  0  0
   -0.6713   -2.1180    3.4588 H   0  0  0  0  0  0  0  0  0  0  0  0
    1.7232   -2.8292    3.2280 N   0  0  0  0  0  0  0  0  0  0  0  0
    2.8007   -3.7077    3.6200 C   0  0  2  0  0  0  0  0  0  0  0  0
    2.1904   -4.9261    4.3001 C   0  0  0  0  0  0  0  0  0  0  0  0
    1.0736   -4.9185    4.8136 O   0  0  0  0  0  0  0  0  0  0  0  0
    3.7806   -3.0028    4.5450 C   0  0  0  0  0  0  0  0  0  0  0  0
    0.8998   -2.7968    3.8219 H   0  0  0  0  0  0  0  0  0  0  0  0
    3.3067   -4.0178    2.6993 H   0  0  0  0  0  0  0  0  0  0  0  0
    3.2916   -2.6846    5.4730 H   0  0  0  0  0  0  0  0  0  0  0  0
    4.6119   -3.6610    4.8183 H   0  0  0  0  0  0  0  0  0  0  0  0
    4.1961   -2.1100    4.0652 H   0  0  0  0  0  0  0  0  0  0  0  0
    3.0569   -6.0102    4.3040 N   0  0  0  0  0  0  0  0  0  0  0  0
    2.7144   -7.2798    4.9014 C   0  0  0  0  0  0  0  0  0  0  0  0
    3.9562   -5.9328    3.8382 H   0  0  0  0  0  0  0  0  0  0  0  0
    3.0630   -7.3008    5.9445 H   0  0  0  0  0  0  0  0  0  0  0  0
    1.6229   -7.4138    4.8769 H   0  0  0  0  0  0  0  0  0  0  0  0
    3.1963   -8.0921    4.3375 H   0  0  0  0  0  0  0  0  0  0  0  0
  1  3  1  0  0  0  0
  1  7  1  0  0  0  0
  1  2  2  0  0  0  0
 30 31  1  0  0  0  0
 31 39  1  0  0  0  0
 31 32  2  0  0  0  0
  8  9  1  0  0  0  0
  9 17  1  0  0  0  0
  9 10  2  0  0  0  0
 18 19  1  0  0  0  0
 19 29  1  0  0  0  0
 19 20  2  0  0  0  0
 21 22  1  0  0  0  0
 22 23  1  0  0  0  0
 22 24  2  0  0  0  0
 30 33  1  0  0  0  0
  8 11  1  0  0  0  0
 39 40  1  0  0  0  0
 18 21  1  0  0  0  0
 29 30  1  0  0  0  0
  7  8  1  0  0  0  0
 17 18  1  0  0  0  0
  3  4  1  0  0  0  0
  3  5  1  0  0  0  0
  3  6  1  0  0  0  0
 33 36  1  0  0  0  0
 33 37  1  0  0  0  0
 33 38  1  0  0  0  0
 11 14  1  0  0  0  0
 11 15  1  0  0  0  0
 11 16  1  0  0  0  0
 40 42  1  0  0  0  0
 40 43  1  0  0  0  0
 40 44  1  0  0  0  0
 21 27  1  0  0  0  0
 21 28  1  0  0  0  0
 30 35  1  0  0  0  0
  8 13  1  0  0  0  0
 18 26  1  0  0  0  0
 39 41  1  0  0  0  0
  7 12  1  0  0  0  0
 29 34  1  0  0  0  0
 17 25  1  0  0  0  0
M  CHG  1  23  -1
M  END
$$$$

  -OEChem-05262214473D

 44 43  0     1  0  0  0  0  0999 V2000
   -4.0256   -1.8030   -2.1581 C   0  0  0  0  0  0  0  0  0  0  0  0
   -3.7513   -2.6782   -2.9709 O   0  0  0  0  0  0  0  0  0  0  0  0
   -5.3491   -1.1169   -2.2339 C   0  0  0  0  0  0  0  0  0  0  0  0
   -5.3223   -0.2211   -2.8750 H   0  0  0  0  0  0  0  0  0  0  0  0
   -6.1322   -1.7605   -2.6658 H   0  0  0  0  0  0  0  0  0  0  0  0
   -5.7568   -0.7715   -1.2704 H   0  0  0  0  0  0  0  0  0  0  0  0
   -3.2124   -1.3578   -1.1289 N   0  0  0  0  0  0  0  0  0  0  0  0
   -1.8971   -1.8843   -0.8752 C   0  0  2  0  0  0  0  0  0  0  0  0
   -1.2676   -1.0599    0.2399 C   0  0  0  0  0  0  0  0  0  0  0  0
   -1.6270    0.0833    0.5138 O   0  0  0  0  0  0  0  0  0  0  0  0
   -1.0364   -1.8506   -2.1285 C   0  0  0  0  0  0  0  0  0  0  0  0
   -3.5631   -0.6202   -0.5206 H   0  0  0  0  0  0  0  0  0  0  0  0
   -2.0301   -2.9174   -0.5360 H   0  0  0  0  0  0  0  0  0  0  0  0
   -0.8921   -0.8236   -2.4833 H   0  0  0  0  0  0  0  0  0  0  0  0
   -0.0457   -2.2777   -1.9410 H   0  0  0  0  0  0  0  0  0  0  0  0
   -1.5052   -2.4193   -2.9387 H   0  0  0  0  0  0  0  0  0  0  0  0
   -0.2267   -1.7335    0.8672 N   0  0  0  0  0  0  0  0  0  0  0  0
    0.5363   -1.1590    1.9465 C   0  0  2  0  0  0  0  0  0  0  0  0
    1.7919   -2.0075    2.1116 C   0  0  0  0  0  0  0  0  0  0  0  0
    2.8525   -1.7528    1.5445 O   0  0  0  0  0  0  0  0  0  0  0  0
   -0.2609   -1.1218    3.2483 C   0  0  0  0  0  0  0  0  0  0  0  0
   -1.4451   -0.1478    3.2950 C   0  0  0  0  0  0  0  0  0  0  0  0
   -1.3038    0.8723    2.5599 O   0  5  0  0  0  0  0  0  0  0  0  0
   -2.4044   -0.4602    4.0520 O   0  0  0  0  0  0  0  0  0  0  0  0
   -0.0113   -2.6869    0.5854 H   0  0  0  0  0  0  0  0  0  0  0  0
    0.8224   -0.1502    1.6282 H   0  0  0  0  0  0  0  0  0  0  0  0
    0.4088   -0.8789    4.0846 H   0  0  0  0  0  0  0  0  0  0  0  0
   -0.6713   -2.1180    3.4588 H   0  0  0  0  0  0  0  0  0  0  0  0
    1.6024   -3.0510    3.0068 N   0  0  0  0  0  0  0  0  0  0  0  0
    2.6512   -3.9798    3.3586 C   0  0  2  0  0  0  0  0  0  0  0  0
    2.0048   -5.3235    3.6688 C   0  0  0  0  0  0  0  0  0  0  0  0
    0.8275   -5.4405    4.0023 O   0  0  0  0  0  0  0  0  0  0  0  0
    3.4591   -3.4784    4.5454 C   0  0  0  0  0  0  0  0  0  0  0  0
    0.7028   -3.1575    3.4664 H   0  0  0  0  0  0  0  0  0  0  0  0
    3.2950   -4.0782    2.4779 H   0  0  0  0  0  0  0  0  0  0  0  0
    2.8307   -3.3735    5.4374 H   0  0  0  0  0  0  0  0  0  0  0  0
    4.2715   -4.1697    4.7929 H   0  0  0  0  0  0  0  0  0  0  0  0
    3.8987   -2.4982    4.3315 H   0  0  0  0  0  0  0  0  0  0  0  0
    2.9086   -6.3723    3.5712 N   0  0  0  0  0  0  0  0  0  0  0  0
    2.5411   -7.7448    3.8300 C   0  0  0  0  0  0  0  0  0  0  0  0
    3.8604   -6.1853    3.2697 H   0  0  0  0  0  0  0  0  0  0  0  0
    2.7397   -7.9855    4.8848 H   0  0  0  0  0  0  0  0  0  0  0  0
    1.4708   -7.8840    3.6175 H   0  0  0  0  0  0  0  0  0  0  0  0
    3.1327   -8.4106    3.1844 H   0  0  0  0  0  0  0  0  0  0  0  0
  1  3  1  0  0  0  0
  1  7  1  0  0  0  0
  1  2  2  0  0  0  0
 30 31  1  0  0  0  0
 31 39  1  0  0  0  0
 31 32  2  0  0  0  0
  8  9  1  0  0  0  0
  9 17  1  0  0  0  0
  9 10  2  0  0  0  0
 18 19  1  0  0  0  0
 19 29  1  0  0  0  0
 19 20  2  0  0  0  0
 21 22  1  0  0  0  0
 22 23  1  0  0  0  0
 22 24  2  0  0  0  0
 30 33  1  0  0  0  0
  8 11  1  0  0  0  0
 39 40  1  0  0  0  0
 18 21  1  0  0  0  0
 29 30  1  0  0  0  0
  7  8  1  0  0  0  0
 17 18  1  0  0  0  0
  3  4  1  0  0  0  0
  3  5  1  0  0  0  0
  3  6  1  0  0  0  0
 33 36  1  0  0  0  0
 33 37  1  0  0  0  0
 33 38  1  0  0  0  0
 11 14  1  0  0  0  0
 11 15  1  0  0  0  0
 11 16  1  0  0  0  0
 40 42  1  0  0  0  0
 40 43  1  0  0  0  0
 40 44  1  0  0  0  0
 21 27  1  0  0  0  0
 21 28  1  0  0  0  0
 30 35  1  0  0  0  0
  8 13  1  0  0  0  0
 18 26  1  0  0  0  0
 39 41  1  0  0  0  0
  7 12  1  0  0  0  0
 29 34  1  0  0  0  0
 17 25  1  0  0  0  0
M  CHG  1  23  -1
M  END
$$$$

  -OEChem-05262214473D

 44 43  0     1  0  0  0  0  0999 V2000
   -4.0256   -1.8030   -2.1581 C   0  0  0  0  0  0  0  0  0  0  0  0
   -3.7513   -2.6782   -2.9709 O   0  0  0  0  0  0  0  0  0  0  0  0
   -5.3491   -1.1169   -2.2339 C   0  0  0  0  0  0  0  0  0  0  0  0
   -5.3223   -0.2211   -2.8750 H   0  0  0  0  0  0  0  0  0  0  0  0
   -6.1322   -1.7605   -2.6658 H   0  0  0  0  0  0  0  0  0  0  0  0
   -5.7568   -0.7715   -1.2704 H   0  0  0  0  0  0  0  0  0  0  0  0
   -3.2124   -1.3578   -1.1289 N   0  0  0  0  0  0  0  0  0  0  0  0
   -1.8971   -1.8843   -0.8752 C   0  0  2  0  0  0  0  0  0  0  0  0
   -1.2676   -1.0599    0.2399 C   0  0  0  0  0  0  0  0  0  0  0  0
   -1.6270    0.0833    0.5138 O   0  0  0  0  0  0  0  0  0  0  0  0
   -1.0364   -1.8506   -2.1285 C   0  0  0  0  0  0  0  0  0  0  0  0
   -3.5631   -0.6202   -0.5206 H   0  0  0  0  0  0  0  0  0  0  0  0
   -2.0301   -2.9174   -0.5360 H   0  0  0  0  0  0  0  0  0  0  0  0
   -0.8921   -0.8236   -2.4833 H   0  0  0  0  0  0  0  0  0  0  0  0
   -0.0457   -2.2777   -1.9410 H   0  0  0  0  0  0  0  0  0  0  0  0
   -1.5052   -2.4193   -2.9387 H   0  0  0  0  0  0  0  0  0  0  0  0
   -0.2267   -1.7335    0.8672 N   0  0  0  0  0  0  0  0  0  0  0  0
    0.5363   -1.1590    1.9465 C   0  0  2  0  0  0  0  0  0  0  0  0
    1.7919   -2.0075    2.1116 C   0  0  0  0  0  0  0  0  0  0  0  0
    2.9097   -1.6236    1.7734 O   0  0  0  0  0  0  0  0  0  0  0  0
   -0.2609   -1.1218    3.2483 C   0  0  0  0  0  0  0  0  0  0  0  0
   -1.4451   -0.1478    3.2950 C   0  0  0  0  0  0  0  0  0  0  0  0
   -1.3038    0.8723    2.5599 O   0  5  0  0  0  0  0  0  0  0  0  0
   -2.4044   -0.4602    4.0520 O   0  0  0  0  0  0  0  0  0  0  0  0
   -0.0113   -2.6869    0.5854 H   0  0  0  0  0  0  0  0  0  0  0  0
    0.8224   -0.1502    1.6282 H   0  0  0  0  0  0  0  0  0  0  0  0
    0.4088   -0.8789    4.0846 H   0  0  0  0  0  0  0  0  0  0  0  0
   -0.6713   -2.1180    3.4588 H   0  0  0  0  0  0  0  0  0  0  0  0
    1.5238   -3.2215    2.7284 N   0  0  0  0  0  0  0  0  0  0  0  0
    2.5520   -4.1912    3.0266 C   0  0  2  0  0  0  0  0  0  0  0  0
    1.9277   -5.5781    2.9475 C   0  0  0  0  0  0  0  0  0  0  0  0
    0.7213   -5.7787    3.0720 O   0  0  0  0  0  0  0  0  0  0  0  0
    3.1618   -3.9470    4.3982 C   0  0  0  0  0  0  0  0  0  0  0  0
    0.5739   -3.4355    3.0178 H   0  0  0  0  0  0  0  0  0  0  0  0
    3.3173   -4.0897    2.2494 H   0  0  0  0  0  0  0  0  0  0  0  0
    2.4100   -4.0444    5.1898 H   0  0  0  0  0  0  0  0  0  0  0  0
    3.9606   -4.6652    4.6108 H   0  0  0  0  0  0  0  0  0  0  0  0
    3.5840   -2.9383    4.4630 H   0  0  0  0  0  0  0  0  0  0  0  0
    2.8811   -6.5699    2.7647 N   0  0  0  0  0  0  0  0  0  0  0  0
    2.5410   -7.9705    2.6710 C   0  0  0  0  0  0  0  0  0  0  0  0
    3.8568   -6.3106    2.6529 H   0  0  0  0  0  0  0  0  0  0  0  0
    2.5992   -8.4301    3.6687 H   0  0  0  0  0  0  0  0  0  0  0  0
    1.5185   -8.0739    2.2788 H   0  0  0  0  0  0  0  0  0  0  0  0
    3.2462   -8.4743    1.9936 H   0  0  0  0  0  0  0  0  0  0  0  0
  1  3  1  0  0  0  0
  1  7  1  0  0  0  0
  1  2  2  0  0  0  0
 30 31  1  0  0  0  0
 31 39  1  0  0  0  0
 31 32  2  0  0  0  0
  8  9  1  0  0  0  0
  9 17  1  0  0  0  0
  9 10  2  0  0  0  0
 18 19  1  0  0  0  0
 19 29  1  0  0  0  0
 19 20  2  0  0  0  0
 21 22  1  0  0  0  0
 22 23  1  0  0  0  0
 22 24  2  0  0  0  0
 30 33  1  0  0  0  0
  8 11  1  0  0  0  0
 39 40  1  0  0  0  0
 18 21  1  0  0  0  0
 29 30  1  0  0  0  0
  7  8  1  0  0  0  0
 17 18  1  0  0  0  0
  3  4  1  0  0  0  0
  3  5  1  0  0  0  0
  3  6  1  0  0  0  0
 33 36  1  0  0  0  0
 33 37  1  0  0  0  0
 33 38  1  0  0  0  0
 11 14  1  0  0  0  0
 11 15  1  0  0  0  0
 11 16  1  0  0  0  0
 40 42  1  0  0  0  0
 40 43  1  0  0  0  0
 40 44  1  0  0  0  0
 21 27  1  0  0  0  0
 21 28  1  0  0  0  0
 30 35  1  0  0  0  0
  8 13  1  0  0  0  0
 18 26  1  0  0  0  0
 39 41  1  0  0  0  0
  7 12  1  0  0  0  0
 29 34  1  0  0  0  0
 17 25  1  0  0  0  0
M  CHG  1  23  -1
M  END
$$$$

  -OEChem-05262214473D

 44 43  0     1  0  0  0  0  0999 V2000
   -4.0256   -1.8030   -2.1581 C   0  0  0  0  0  0  0  0  0  0  0  0
   -3.7513   -2.6782   -2.9709 O   0  0  0  0  0  0  0  0  0  0  0  0
   -5.3491   -1.1169   -2.2339 C   0  0  0  0  0  0  0  0  0  0  0  0
   -5.3223   -0.2211   -2.8750 H   0  0  0  0  0  0  0  0  0  0  0  0
   -6.1322   -1.7605   -2.6658 H   0  0  0  0  0  0  0  0  0  0  0  0
   -5.7568   -0.7715   -1.2704 H   0  0  0  0  0  0  0  0  0  0  0  0
   -3.2124   -1.3578   -1.1289 N   0  0  0  0  0  0  0  0  0  0  0  0
   -1.8971   -1.8843   -0.8752 C   0  0  2  0  0  0  0  0  0  0  0  0
   -1.2676   -1.0599    0.2399 C   0  0  0  0  0  0  0  0  0  0  0  0
   -1.6270    0.0833    0.5138 O   0  0  0  0  0  0  0  0  0  0  0  0
   -1.0364   -1.8506   -2.1285 C   0  0  0  0  0  0  0  0  0  0  0  0
   -3.5631   -0.6202   -0.5206 H   0  0  0  0  0  0  0  0  0  0  0  0
   -2.0301   -2.9174   -0.5360 H   0  0  0  0  0  0  0  0  0  0  0  0
   -0.8921   -0.8236   -2.4833 H   0  0  0  0  0  0  0  0  0  0  0  0
   -0.0457   -2.2777   -1.9410 H   0  0  0  0  0  0  0  0  0  0  0  0
   -1.5052   -2.4193   -2.9387 H   0  0  0  0  0  0  0  0  0  0  0  0
   -0.2267   -1.7335    0.8672 N   0  0  0  0  0  0  0  0  0  0  0  0
    0.5363   -1.1590    1.9465 C   0  0  2  0  0  0  0  0  0  0  0  0
    1.7919   -2.0075    2.1116 C   0  0  0  0  0  0  0  0  0  0  0  0
    2.9284   -1.5459    2.0302 O   0  0  0  0  0  0  0  0  0  0  0  0
   -0.2609   -1.1218    3.2483 C   0  0  0  0  0  0  0  0  0  0  0  0
   -1.4451   -0.1478    3.2950 C   0  0  0  0  0  0  0  0  0  0  0  0
   -1.3038    0.8723    2.5599 O   0  5  0  0  0  0  0  0  0  0  0  0
   -2.4044   -0.4602    4.0520 O   0  0  0  0  0  0  0  0  0  0  0  0
   -0.0113   -2.6869    0.5854 H   0  0  0  0  0  0  0  0  0  0  0  0
    0.8224   -0.1502    1.6282 H   0  0  0  0  0  0  0  0  0  0  0  0
    0.4088   -0.8789    4.0846 H   0  0  0  0  0  0  0  0  0  0  0  0
   -0.6713   -2.1180    3.4588 H   0  0  0  0  0  0  0  0  0  0  0  0
    1.4927   -3.3291    2.4119 N   0  0  0  0  0  0  0  0  0  0  0  0
    2.5100   -4.3273    2.6465 C   0  0  2  0  0  0  0  0  0  0  0  0
    1.9642   -5.6723    2.1855 C   0  0  0  0  0  0  0  0  0  0  0  0
    0.7623   -5.9100    2.0859 O   0  0  0  0  0  0  0  0  0  0  0  0
    2.9091   -4.3765    4.1132 C   0  0  0  0  0  0  0  0  0  0  0  0
    0.5218   -3.6121    2.5066 H   0  0  0  0  0  0  0  0  0  0  0  0
    3.3721   -4.0515    2.0296 H   0  0  0  0  0  0  0  0  0  0  0  0
    2.0581   -4.6513    4.7470 H   0  0  0  0  0  0  0  0  0  0  0  0
    3.7004   -5.1137    4.2845 H   0  0  0  0  0  0  0  0  0  0  0  0
    3.2734   -3.4003    4.4509 H   0  0  0  0  0  0  0  0  0  0  0  0
    2.9762   -6.5897    1.9397 N   0  0  0  0  0  0  0  0  0  0  0  0
    2.7143   -7.9413    1.5033 C   0  0  0  0  0  0  0  0  0  0  0  0
    3.9457   -6.3003    2.0299 H   0  0  0  0  0  0  0  0  0  0  0  0
    2.6512   -8.6041    2.3790 H   0  0  0  0  0  0  0  0  0  0  0  0
    1.7628   -7.9706    0.9521 H   0  0  0  0  0  0  0  0  0  0  0  0
    3.5293   -8.2788    0.8462 H   0  0  0  0  0  0  0  0  0  0  0  0
  1  3  1  0  0  0  0
  1  7  1  0  0  0  0
  1  2  2  0  0  0  0
 30 31  1  0  0  0  0
 31 39  1  0  0  0  0
 31 32  2  0  0  0  0
  8  9  1  0  0  0  0
  9 17  1  0  0  0  0
  9 10  2  0  0  0  0
 18 19  1  0  0  0  0
 19 29  1  0  0  0  0
 19 20  2  0  0  0  0
 21 22  1  0  0  0  0
 22 23  1  0  0  0  0
 22 24  2  0  0  0  0
 30 33  1  0  0  0  0
  8 11  1  0  0  0  0
 39 40  1  0  0  0  0
 18 21  1  0  0  0  0
 29 30  1  0  0  0  0
  7  8  1  0  0  0  0
 17 18  1  0  0  0  0
  3  4  1  0  0  0  0
  3  5  1  0  0  0  0
  3  6  1  0  0  0  0
 33 36  1  0  0  0  0
 33 37  1  0  0  0  0
 33 38  1  0  0  0  0
 11 14  1  0  0  0  0
 11 15  1  0  0  0  0
 11 16  1  0  0  0  0
 40 42  1  0  0  0  0
 40 43  1  0  0  0  0
 40 44  1  0  0  0  0
 21 27  1  0  0  0  0
 21 28  1  0  0  0  0
 30 35  1  0  0  0  0
  8 13  1  0  0  0  0
 18 26  1  0  0  0  0
 39 41  1  0  0  0  0
  7 12  1  0  0  0  0
 29 34  1  0  0  0  0
 17 25  1  0  0  0  0
M  CHG  1  23  -1
M  END
$$$$

  -OEChem-05262214473D

 44 43  0     1  0  0  0  0  0999 V2000
   -4.0256   -1.8030   -2.1581 C   0  0  0  0  0  0  0  0  0  0  0  0
   -3.7513   -2.6782   -2.9709 O   0  0  0  0  0  0  0  0  0  0  0  0
   -5.3491   -1.1169   -2.2339 C   0  0  0  0  0  0  0  0  0  0  0  0
   -5.3223   -0.2211   -2.8750 H   0  0  0  0  0  0  0  0  0  0  0  0
   -6.1322   -1.7605   -2.6658 H   0  0  0  0  0  0  0  0  0  0  0  0
   -5.7568   -0.7715   -1.2704 H   0  0  0  0  0  0  0  0  0  0  0  0
   -3.2124   -1.3578   -1.1289 N   0  0  0  0  0  0  0  0  0  0  0  0
   -1.8971   -1.8843   -0.8752 C   0  0  2  0  0  0  0  0  0  0  0  0
   -1.2676   -1.0599    0.2399 C   0  0  0  0  0  0  0  0  0  0  0  0
   -1.6270    0.0833    0.5138 O   0  0  0  0  0  0  0  0  0  0  0  0
   -1.0364   -1.8506   -2.1285 C   0  0  0  0  0  0  0  0  0  0  0  0
   -3.5631   -0.6202   -0.5206 H   0  0  0  0  0  0  0  0  0  0  0  0
   -2.0301   -2.9174   -0.5360 H   0  0  0  0  0  0  0  0  0  0  0  0
   -0.8921   -0.8236   -2.4833 H   0  0  0  0  0  0  0  0  0  0  0  0
   -0.0457   -2.2777   -1.9410 H   0  0  0  0  0  0  0  0  0  0  0  0
   -1.5052   -2.4193   -2.9387 H   0  0  0  0  0  0  0  0  0  0  0  0
   -0.2267   -1.7335    0.8672 N   0  0  0  0  0  0  0  0  0  0  0  0
    0.5363   -1.1590    1.9465 C   0  0  2  0  0  0  0  0  0  0  0  0
    1.7919   -2.0075    2.1116 C   0  0  0  0  0  0  0  0  0  0  0  0
    2.9073   -1.5252    2.2976 O   0  0  0  0  0  0  0  0  0  0  0  0
   -0.2609   -1.1218    3.2483 C   0  0  0  0  0  0  0  0  0  0  0  0
   -1.4451   -0.1478    3.2950 C   0  0  0  0  0  0  0  0  0  0  0  0
   -1.3038    0.8723    2.5599 O   0  5  0  0  0  0  0  0  0  0  0  0
   -2.4044   -0.4602    4.0520 O   0  0  0  0  0  0  0  0  0  0  0  0
   -0.0113   -2.6869    0.5854 H   0  0  0  0  0  0  0  0  0  0  0  0
    0.8224   -0.1502    1.6282 H   0  0  0  0  0  0  0  0  0  0  0  0
    0.4088   -0.8789    4.0846 H   0  0  0  0  0  0  0  0  0  0  0  0
   -0.6713   -2.1180    3.4588 H   0  0  0  0  0  0  0  0  0  0  0  0
    1.5113   -3.3663    2.0787 N   0  0  0  0  0  0  0  0  0  0  0  0
    2.5279   -4.3790    2.2444 C   0  0  2  0  0  0  0  0  0  0  0  0
    2.1119   -5.5999    1.4346 C   0  0  0  0  0  0  0  0  0  0  0  0
    0.9475   -5.8255    1.1114 O   0  0  0  0  0  0  0  0  0  0  0  0
    2.7180   -4.7378    3.7099 C   0  0  0  0  0  0  0  0  0  0  0  0
    0.5501   -3.6752    1.9677 H   0  0  0  0  0  0  0  0  0  0  0  0
    3.4556   -3.9661    1.8332 H   0  0  0  0  0  0  0  0  0  0  0  0
    1.7989   -5.1531    4.1392 H   0  0  0  0  0  0  0  0  0  0  0  0
    3.5087   -5.4847    3.8363 H   0  0  0  0  0  0  0  0  0  0  0  0
    2.9881   -3.8527    4.2960 H   0  0  0  0  0  0  0  0  0  0  0  0
    3.1876   -6.4302    1.1522 N   0  0  0  0  0  0  0  0  0  0  0  0
    3.0490   -7.6594    0.4067 C   0  0  0  0  0  0  0  0  0  0  0  0
    4.1210   -6.1550    1.4431 H   0  0  0  0  0  0  0  0  0  0  0  0
    2.8920   -8.4959    1.1036 H   0  0  0  0  0  0  0  0  0  0  0  0
    2.1869   -7.5812   -0.2721 H   0  0  0  0  0  0  0  0  0  0  0  0
    3.9625   -7.8374   -0.1797 H   0  0  0  0  0  0  0  0  0  0  0  0
  1  3  1  0  0  0  0
  1  7  1  0  0  0  0
  1  2  2  0  0  0  0
 30 31  1  0  0  0  0
 31 39  1  0  0  0  0
 31 32  2  0  0  0  0
  8  9  1  0  0  0  0
  9 17  1  0  0  0  0
  9 10  2  0  0  0  0
 18 19  1  0  0  0  0
 19 29  1  0  0  0  0
 19 20  2  0  0  0  0
 21 22  1  0  0  0  0
 22 23  1  0  0  0  0
 22 24  2  0  0  0  0
 30 33  1  0  0  0  0
  8 11  1  0  0  0  0
 39 40  1  0  0  0  0
 18 21  1  0  0  0  0
 29 30  1  0  0  0  0
  7  8  1  0  0  0  0
 17 18  1  0  0  0  0
  3  4  1  0  0  0  0
  3  5  1  0  0  0  0
  3  6  1  0  0  0  0
 33 36  1  0  0  0  0
 33 37  1  0  0  0  0
 33 38  1  0  0  0  0
 11 14  1  0  0  0  0
 11 15  1  0  0  0  0
 11 16  1  0  0  0  0
 40 42  1  0  0  0  0
 40 43  1  0  0  0  0
 40 44  1  0  0  0  0
 21 27  1  0  0  0  0
 21 28  1  0  0  0  0
 30 35  1  0  0  0  0
  8 13  1  0  0  0  0
 18 26  1  0  0  0  0
 39 41  1  0  0  0  0
  7 12  1  0  0  0  0
 29 34  1  0  0  0  0
 17 25  1  0  0  0  0
M  CHG  1  23  -1
M  END
$$$$

  -OEChem-05262214473D

 44 43  0     1  0  0  0  0  0999 V2000
   -4.0256   -1.8030   -2.1581 C   0  0  0  0  0  0  0  0  0  0  0  0
   -3.7513   -2.6782   -2.9709 O   0  0  0  0  0  0  0  0  0  0  0  0
   -5.3491   -1.1169   -2.2339 C   0  0  0  0  0  0  0  0  0  0  0  0
   -5.3223   -0.2211   -2.8750 H   0  0  0  0  0  0  0  0  0  0  0  0
   -6.1322   -1.7605   -2.6658 H   0  0  0  0  0  0  0  0  0  0  0  0
   -5.7568   -0.7715   -1.2704 H   0  0  0  0  0  0  0  0  0  0  0  0
   -3.2124   -1.3578   -1.1289 N   0  0  0  0  0  0  0  0  0  0  0  0
   -1.8971   -1.8843   -0.8752 C   0  0  2  0  0  0  0  0  0  0  0  0
   -1.2676   -1.0599    0.2399 C   0  0  0  0  0  0  0  0  0  0  0  0
   -1.6270    0.0833    0.5138 O   0  0  0  0  0  0  0  0  0  0  0  0
   -1.0364   -1.8506   -2.1285 C   0  0  0  0  0  0  0  0  0  0  0  0
   -3.5631   -0.6202   -0.5206 H   0  0  0  0  0  0  0  0  0  0  0  0
   -2.0301   -2.9174   -0.5360 H   0  0  0  0  0  0  0  0  0  0  0  0
   -0.8921   -0.8236   -2.4833 H   0  0  0  0  0  0  0  0  0  0  0  0
   -0.0457   -2.2777   -1.9410 H   0  0  0  0  0  0  0  0  0  0  0  0
   -1.5052   -2.4193   -2.9387 H   0  0  0  0  0  0  0  0  0  0  0  0
   -0.2267   -1.7335    0.8672 N   0  0  0  0  0  0  0  0  0  0  0  0
    0.5363   -1.1590    1.9465 C   0  0  2  0  0  0  0  0  0  0  0  0
    1.7919   -2.0075    2.1116 C   0  0  0  0  0  0  0  0  0  0  0  0
    2.8477   -1.5627    2.5572 O   0  0  0  0  0  0  0  0  0  0  0  0
   -0.2609   -1.1218    3.2483 C   0  0  0  0  0  0  0  0  0  0  0  0
   -1.4451   -0.1478    3.2950 C   0  0  0  0  0  0  0  0  0  0  0  0
   -1.3038    0.8723    2.5599 O   0  5  0  0  0  0  0  0  0  0  0  0
   -2.4044   -0.4602    4.0520 O   0  0  0  0  0  0  0  0  0  0  0  0
   -0.0113   -2.6869    0.5854 H   0  0  0  0  0  0  0  0  0  0  0  0
    0.8224   -0.1502    1.6282 H   0  0  0  0  0  0  0  0  0  0  0  0
    0.4088   -0.8789    4.0846 H   0  0  0  0  0  0  0  0  0  0  0  0
   -0.6713   -2.1180    3.4588 H   0  0  0  0  0  0  0  0  0  0  0  0
    1.5784   -3.3308    1.7517 N   0  0  0  0  0  0  0  0  0  0  0  0
    2.6047   -4.3427    1.8475 C   0  0  2  0  0  0  0  0  0  0  0  0
    2.3607   -5.3657    0.7460 C   0  0  0  0  0  0  0  0  0  0  0  0
    1.2645   -5.5309    0.2147 O   0  0  0  0  0  0  0  0  0  0  0  0
    2.6016   -5.0061    3.2159 C   0  0  0  0  0  0  0  0  0  0  0  0
    0.6568   -3.6204    1.4377 H   0  0  0  0  0  0  0  0  0  0  0  0
    3.5621   -3.8395    1.6738 H   0  0  0  0  0  0  0  0  0  0  0  0
    1.6502   -5.5155    3.4078 H   0  0  0  0  0  0  0  0  0  0  0  0
    3.3985   -5.7528    3.2966 H   0  0  0  0  0  0  0  0  0  0  0  0
    2.7475   -4.2646    4.0088 H   0  0  0  0  0  0  0  0  0  0  0  0
    3.5006   -6.1024    0.4561 N   0  0  0  0  0  0  0  0  0  0  0  0
    3.5224   -7.1439   -0.5443 C   0  0  0  0  0  0  0  0  0  0  0  0
    4.3709   -5.8846    0.9326 H   0  0  0  0  0  0  0  0  0  0  0  0
    3.3054   -8.1126   -0.0705 H   0  0  0  0  0  0  0  0  0  0  0  0
    2.7621   -6.9321   -1.3105 H   0  0  0  0  0  0  0  0  0  0  0  0
    4.5163   -7.1801   -1.0142 H   0  0  0  0  0  0  0  0  0  0  0  0
  1  3  1  0  0  0  0
  1  7  1  0  0  0  0
  1  2  2  0  0  0  0
 30 31  1  0  0  0  0
 31 39  1  0  0  0  0
 31 32  2  0  0  0  0
  8  9  1  0  0  0  0
  9 17  1  0  0  0  0
  9 10  2  0  0  0  0
 18 19  1  0  0  0  0
 19 29  1  0  0  0  0
 19 20  2  0  0  0  0
 21 22  1  0  0  0  0
 22 23  1  0  0  0  0
 22 24  2  0  0  0  0
 30 33  1  0  0  0  0
  8 11  1  0  0  0  0
 39 40  1  0  0  0  0
 18 21  1  0  0  0  0
 29 30  1  0  0  0  0
  7  8  1  0  0  0  0
 17 18  1  0  0  0  0
  3  4  1  0  0  0  0
  3  5  1  0  0  0  0
  3  6  1  0  0  0  0
 33 36  1  0  0  0  0
 33 37  1  0  0  0  0
 33 38  1  0  0  0  0
 11 14  1  0  0  0  0
 11 15  1  0  0  0  0
 11 16  1  0  0  0  0
 40 42  1  0  0  0  0
 40 43  1  0  0  0  0
 40 44  1  0  0  0  0
 21 27  1  0  0  0  0
 21 28  1  0  0  0  0
 30 35  1  0  0  0  0
  8 13  1  0  0  0  0
 18 26  1  0  0  0  0
 39 41  1  0  0  0  0
  7 12  1  0  0  0  0
 29 34  1  0  0  0  0
 17 25  1  0  0  0  0
M  CHG  1  23  -1
M  END
$$$$

  -OEChem-05262214473D

 44 43  0     1  0  0  0  0  0999 V2000
   -4.0256   -1.8030   -2.1581 C   0  0  0  0  0  0  0  0  0  0  0  0
   -3.7513   -2.6782   -2.9709 O   0  0  0  0  0  0  0  0  0  0  0  0
   -5.3491   -1.1169   -2.2339 C   0  0  0  0  0  0  0  0  0  0  0  0
   -5.3223   -0.2211   -2.8750 H   0  0  0  0  0  0  0  0  0  0  0  0
   -6.1322   -1.7605   -2.6658 H   0  0  0  0  0  0  0  0  0  0  0  0
   -5.7568   -0.7715   -1.2704 H   0  0  0  0  0  0  0  0  0  0  0  0
   -3.2124   -1.3578   -1.1289 N   0  0  0  0  0  0  0  0  0  0  0  0
   -1.8971   -1.8843   -0.8752 C   0  0  2  0  0  0  0  0  0  0  0  0
   -1.2676   -1.0599    0.2399 C   0  0  0  0  0  0  0  0  0  0  0  0
   -1.6270    0.0833    0.5138 O   0  0  0  0  0  0  0  0  0  0  0  0
   -1.0364   -1.8506   -2.1285 C   0  0  0  0  0  0  0  0  0  0  0  0
   -3.5631   -0.6202   -0.5206 H   0  0  0  0  0  0  0  0  0  0  0  0
   -2.0301   -2.9174   -0.5360 H   0  0  0  0  0  0  0  0  0  0  0  0
   -0.8921   -0.8236   -2.4833 H   0  0  0  0  0  0  0  0  0  0  0  0
   -0.0457   -2.2777   -1.9410 H   0  0  0  0  0  0  0  0  0  0  0  0
   -1.5052   -2.4193   -2.9387 H   0  0  0  0  0  0  0  0  0  0  0  0
   -0.2267   -1.7335    0.8672 N   0  0  0  0  0  0  0  0  0  0  0  0
    0.5363   -1.1590    1.9465 C   0  0  2  0  0  0  0  0  0  0  0  0
    1.7919   -2.0075    2.1116 C   0  0  0  0  0  0  0  0  0  0  0  0
    2.7539   -1.6560    2.7914 O   0  0  0  0  0  0  0  0  0  0  0  0
   -0.2609   -1.1218    3.2483 C   0  0  0  0  0  0  0  0  0  0  0  0
   -1.4451   -0.1478    3.2950 C   0  0  0  0  0  0  0  0  0  0  0  0
   -1.3038    0.8723    2.5599 O   0  5  0  0  0  0  0  0  0  0  0  0
   -2.4044   -0.4602    4.0520 O   0  0  0  0  0  0  0  0  0  0  0  0
   -0.0113   -2.6869    0.5854 H   0  0  0  0  0  0  0  0  0  0  0  0
    0.8224   -0.1502    1.6282 H   0  0  0  0  0  0  0  0  0  0  0  0
    0.4088   -0.8789    4.0846 H   0  0  0  0  0  0  0  0  0  0  0  0
   -0.6713   -2.1180    3.4588 H   0  0  0  0  0  0  0  0  0  0  0  0
    1.6892   -3.2248    1.4530 N   0  0  0  0  0  0  0  0  0  0  0  0
    2.7350   -4.2208    1.4829 C   0  0  2  0  0  0  0  0  0  0  0  0
    2.6937   -4.9858    0.1666 C   0  0  0  0  0  0  0  0  0  0  0  0
    1.6916   -5.0463   -0.5429 O   0  0  0  0  0  0  0  0  0  0  0  0
    2.5680   -5.1632    2.6647 C   0  0  0  0  0  0  0  0  0  0  0  0
    0.8346   -3.4515    0.9529 H   0  0  0  0  0  0  0  0  0  0  0  0
    3.6844   -3.6802    1.5621 H   0  0  0  0  0  0  0  0  0  0  0  0
    1.6222   -5.7137    2.6027 H   0  0  0  0  0  0  0  0  0  0  0  0
    3.3773   -5.8998    2.7023 H   0  0  0  0  0  0  0  0  0  0  0  0
    2.5681   -4.6080    3.6089 H   0  0  0  0  0  0  0  0  0  0  0  0
    3.8942   -5.6285   -0.1014 N   0  0  0  0  0  0  0  0  0  0  0  0
    4.1022   -6.4300   -1.2848 C   0  0  0  0  0  0  0  0  0  0  0  0
    4.6781   -5.5077    0.5330 H   0  0  0  0  0  0  0  0  0  0  0  0
    3.8631   -7.4806   -1.0634 H   0  0  0  0  0  0  0  0  0  0  0  0
    3.4490   -6.0677   -2.0923 H   0  0  0  0  0  0  0  0  0  0  0  0
    5.1531   -6.3519   -1.6003 H   0  0  0  0  0  0  0  0  0  0  0  0
  1  3  1  0  0  0  0
  1  7  1  0  0  0  0
  1  2  2  0  0  0  0
 30 31  1  0  0  0  0
 31 39  1  0  0  0  0
 31 32  2  0  0  0  0
  8  9  1  0  0  0  0
  9 17  1  0  0  0  0
  9 10  2  0  0  0  0
 18 19  1  0  0  0  0
 19 29  1  0  0  0  0
 19 20  2  0  0  0  0
 21 22  1  0  0  0  0
 22 23  1  0  0  0  0
 22 24  2  0  0  0  0
 30 33  1  0  0  0  0
  8 11  1  0  0  0  0
 39 40  1  0  0  0  0
 18 21  1  0  0  0  0
 29 30  1  0  0  0  0
  7  8  1  0  0  0  0
 17 18  1  0  0  0  0
  3  4  1  0  0  0  0
  3  5  1  0  0  0  0
  3  6  1  0  0  0  0
 33 36  1  0  0  0  0
 33 37  1  0  0  0  0
 33 38  1  0  0  0  0
 11 14  1  0  0  0  0
 11 15  1  0  0  0  0
 11 16  1  0  0  0  0
 40 42  1  0  0  0  0
 40 43  1  0  0  0  0
 40 44  1  0  0  0  0
 21 27  1  0  0  0  0
 21 28  1  0  0  0  0
 30 35  1  0  0  0  0
  8 13  1  0  0  0  0
 18 26  1  0  0  0  0
 39 41  1  0  0  0  0
  7 12  1  0  0  0  0
 29 34  1  0  0  0  0
 17 25  1  0  0  0  0
M  CHG  1  23  -1
M  END
$$$$

  -OEChem-05262214473D

 44 43  0     1  0  0  0  0  0999 V2000
   -4.0256   -1.8030   -2.1581 C   0  0  0  0  0  0  0  0  0  0  0  0
   -3.7513   -2.6782   -2.9709 O   0  0  0  0  0  0  0  0  0  0  0  0
   -5.3491   -1.1169   -2.2339 C   0  0  0  0  0  0  0  0  0  0  0  0
   -5.3223   -0.2211   -2.8750 H   0  0  0  0  0  0  0  0  0  0  0  0
   -6.1322   -1.7605   -2.6658 H   0  0  0  0  0  0  0  0  0  0  0  0
   -5.7568   -0.7715   -1.2704 H   0  0  0  0  0  0  0  0  0  0  0  0
   -3.2124   -1.3578   -1.1289 N   0  0  0  0  0  0  0  0  0  0  0  0
   -1.8971   -1.8843   -0.8752 C   0  0  2  0  0  0  0  0  0  0  0  0
   -1.2676   -1.0599    0.2399 C   0  0  0  0  0  0  0  0  0  0  0  0
   -1.6270    0.0833    0.5138 O   0  0  0  0  0  0  0  0  0  0  0  0
   -1.0364   -1.8506   -2.1285 C   0  0  0  0  0  0  0  0  0  0  0  0
   -3.5631   -0.6202   -0.5206 H   0  0  0  0  0  0  0  0  0  0  0  0
   -2.0301   -2.9174   -0.5360 H   0  0  0  0  0  0  0  0  0  0  0  0
   -0.8921   -0.8236   -2.4833 H   0  0  0  0  0  0  0  0  0  0  0  0
   -0.0457   -2.2777   -1.9410 H   0  0  0  0  0  0  0  0  0  0  0  0
   -1.5052   -2.4193   -2.9387 H   0  0  0  0  0  0  0  0  0  0  0  0
   -0.2267   -1.7335    0.8672 N   0  0  0  0  0  0  0  0  0  0  0  0
    0.5363   -1.1590    1.9465 C   0  0  2  0  0  0  0  0  0  0  0  0
    1.7919   -2.0075    2.1116 C   0  0  0  0  0  0  0  0  0  0  0  0
    2.6322   -1.7986    2.9843 O   0  0  0  0  0  0  0  0  0  0  0  0
   -0.2609   -1.1218    3.2483 C   0  0  0  0  0  0  0  0  0  0  0  0
   -1.4451   -0.1478    3.2950 C   0  0  0  0  0  0  0  0  0  0  0  0
   -1.3038    0.8723    2.5599 O   0  5  0  0  0  0  0  0  0  0  0  0
   -2.4044   -0.4602    4.0520 O   0  0  0  0  0  0  0  0  0  0  0  0
   -0.0113   -2.6869    0.5854 H   0  0  0  0  0  0  0  0  0  0  0  0
    0.8224   -0.1502    1.6282 H   0  0  0  0  0  0  0  0  0  0  0  0
    0.4088   -0.8789    4.0846 H   0  0  0  0  0  0  0  0  0  0  0  0
   -0.6713   -2.1180    3.4588 H   0  0  0  0  0  0  0  0  0  0  0  0
    1.8364   -3.0557    1.2031 N   0  0  0  0  0  0  0  0  0  0  0  0
    2.9099   -4.0217    1.1755 C   0  0  2  0  0  0  0  0  0  0  0  0
    3.0881   -4.4859   -0.2641 C   0  0  0  0  0  0  0  0  0  0  0  0
    2.1997   -4.4047   -1.1098 O   0  0  0  0  0  0  0  0  0  0  0  0
    2.6192   -5.1984    2.0940 C   0  0  0  0  0  0  0  0  0  0  0  0
    1.0716   -3.1800    0.5463 H   0  0  0  0  0  0  0  0  0  0  0  0
    3.8142   -3.4991    1.5059 H   0  0  0  0  0  0  0  0  0  0  0  0
    1.7166   -5.7344    1.7787 H   0  0  0  0  0  0  0  0  0  0  0  0
    3.4465   -5.9157    2.0938 H   0  0  0  0  0  0  0  0  0  0  0  0
    2.4619   -4.8595    3.1236 H   0  0  0  0  0  0  0  0  0  0  0  0
    4.3413   -5.0409   -0.4821 N   0  0  0  0  0  0  0  0  0  0  0  0
    4.7489   -5.5662   -1.7643 C   0  0  0  0  0  0  0  0  0  0  0  0
    5.0219   -5.0497    0.2718 H   0  0  0  0  0  0  0  0  0  0  0  0
    4.5271   -6.6428   -1.8074 H   0  0  0  0  0  0  0  0  0  0  0  0
    4.2010   -5.0468   -2.5642 H   0  0  0  0  0  0  0  0  0  0  0  0
    5.8294   -5.4090   -1.8981 H   0  0  0  0  0  0  0  0  0  0  0  0
  1  3  1  0  0  0  0
  1  7  1  0  0  0  0
  1  2  2  0  0  0  0
 30 31  1  0  0  0  0
 31 39  1  0  0  0  0
 31 32  2  0  0  0  0
  8  9  1  0  0  0  0
  9 17  1  0  0  0  0
  9 10  2  0  0  0  0
 18 19  1  0  0  0  0
 19 29  1  0  0  0  0
 19 20  2  0  0  0  0
 21 22  1  0  0  0  0
 22 23  1  0  0  0  0
 22 24  2  0  0  0  0
 30 33  1  0  0  0  0
  8 11  1  0  0  0  0
 39 40  1  0  0  0  0
 18 21  1  0  0  0  0
 29 30  1  0  0  0  0
  7  8  1  0  0  0  0
 17 18  1  0  0  0  0
  3  4  1  0  0  0  0
  3  5  1  0  0  0  0
  3  6  1  0  0  0  0
 33 36  1  0  0  0  0
 33 37  1  0  0  0  0
 33 38  1  0  0  0  0
 11 14  1  0  0  0  0
 11 15  1  0  0  0  0
 11 16  1  0  0  0  0
 40 42  1  0  0  0  0
 40 43  1  0  0  0  0
 40 44  1  0  0  0  0
 21 27  1  0  0  0  0
 21 28  1  0  0  0  0
 30 35  1  0  0  0  0
  8 13  1  0  0  0  0
 18 26  1  0  0  0  0
 39 41  1  0  0  0  0
  7 12  1  0  0  0  0
 29 34  1  0  0  0  0
 17 25  1  0  0  0  0
M  CHG  1  23  -1
M  END
$$$$

  -OEChem-05262214473D

 44 43  0     1  0  0  0  0  0999 V2000
   -4.0256   -1.8030   -2.1581 C   0  0  0  0  0  0  0  0  0  0  0  0
   -3.7513   -2.6782   -2.9709 O   0  0  0  0  0  0  0  0  0  0  0  0
   -5.3491   -1.1169   -2.2339 C   0  0  0  0  0  0  0  0  0  0  0  0
   -5.3223   -0.2211   -2.8750 H   0  0  0  0  0  0  0  0  0  0  0  0
   -6.1322   -1.7605   -2.6658 H   0  0  0  0  0  0  0  0  0  0  0  0
   -5.7568   -0.7715   -1.2704 H   0  0  0  0  0  0  0  0  0  0  0  0
   -3.2124   -1.3578   -1.1289 N   0  0  0  0  0  0  0  0  0  0  0  0
   -1.8971   -1.8843   -0.8752 C   0  0  2  0  0  0  0  0  0  0  0  0
   -1.2676   -1.0599    0.2399 C   0  0  0  0  0  0  0  0  0  0  0  0
   -1.6270    0.0833    0.5138 O   0  0  0  0  0  0  0  0  0  0  0  0
   -1.0364   -1.8506   -2.1285 C   0  0  0  0  0  0  0  0  0  0  0  0
   -3.5631   -0.6202   -0.5206 H   0  0  0  0  0  0  0  0  0  0  0  0
   -2.0301   -2.9174   -0.5360 H   0  0  0  0  0  0  0  0  0  0  0  0
   -0.8921   -0.8236   -2.4833 H   0  0  0  0  0  0  0  0  0  0  0  0
   -0.0457   -2.2777   -1.9410 H   0  0  0  0  0  0  0  0  0  0  0  0
   -1.5052   -2.4193   -2.9387 H   0  0  0  0  0  0  0  0  0  0  0  0
   -0.2267   -1.7335    0.8672 N   0  0  0  0  0  0  0  0  0  0  0  0
    0.5363   -1.1590    1.9465 C   0  0  2  0  0  0  0  0  0  0  0  0
    1.7919   -2.0075    2.1116 C   0  0  0  0  0  0  0  0  0  0  0  0
    2.4908   -1.9809    3.1226 O   0  0  0  0  0  0  0  0  0  0  0  0
   -0.2609   -1.1218    3.2483 C   0  0  0  0  0  0  0  0  0  0  0  0
   -1.4451   -0.1478    3.2950 C   0  0  0  0  0  0  0  0  0  0  0  0
   -1.3038    0.8723    2.5599 O   0  5  0  0  0  0  0  0  0  0  0  0
   -2.4044   -0.4602    4.0520 O   0  0  0  0  0  0  0  0  0  0  0  0
   -0.0113   -2.6869    0.5854 H   0  0  0  0  0  0  0  0  0  0  0  0
    0.8224   -0.1502    1.6282 H   0  0  0  0  0  0  0  0  0  0  0  0
    0.4088   -0.8789    4.0846 H   0  0  0  0  0  0  0  0  0  0  0  0
   -0.6713   -2.1180    3.4588 H   0  0  0  0  0  0  0  0  0  0  0  0
    2.0098   -2.8350    1.0189 N   0  0  0  0  0  0  0  0  0  0  0  0
    3.1176   -3.7590    0.9462 C   0  0  2  0  0  0  0  0  0  0  0  0
    3.5171   -3.9002   -0.5167 C   0  0  0  0  0  0  0  0  0  0  0  0
    2.7542   -3.6499   -1.4475 O   0  0  0  0  0  0  0  0  0  0  0  0
    2.7520   -5.1093    1.5426 C   0  0  0  0  0  0  0  0  0  0  0  0
    1.3514   -2.8245    0.2454 H   0  0  0  0  0  0  0  0  0  0  0  0
    3.9426   -3.3085    1.5088 H   0  0  0  0  0  0  0  0  0  0  0  0
    1.9270   -5.5760    0.9919 H   0  0  0  0  0  0  0  0  0  0  0  0
    3.6016   -5.7994    1.5126 H   0  0  0  0  0  0  0  0  0  0  0  0
    2.4364   -5.0019    2.5860 H   0  0  0  0  0  0  0  0  0  0  0  0
    4.8115   -4.3797   -0.6603 N   0  0  0  0  0  0  0  0  0  0  0  0
    5.4184   -4.6116   -1.9502 C   0  0  0  0  0  0  0  0  0  0  0  0
    5.3788   -4.5421    0.1665 H   0  0  0  0  0  0  0  0  0  0  0  0
    5.2521   -5.6563   -2.2517 H   0  0  0  0  0  0  0  0  0  0  0  0
    4.9666   -3.9389   -2.6941 H   0  0  0  0  0  0  0  0  0  0  0  0
    6.4991   -4.4159   -1.8873 H   0  0  0  0  0  0  0  0  0  0  0  0
  1  3  1  0  0  0  0
  1  7  1  0  0  0  0
  1  2  2  0  0  0  0
 30 31  1  0  0  0  0
 31 39  1  0  0  0  0
 31 32  2  0  0  0  0
  8  9  1  0  0  0  0
  9 17  1  0  0  0  0
  9 10  2  0  0  0  0
 18 19  1  0  0  0  0
 19 29  1  0  0  0  0
 19 20  2  0  0  0  0
 21 22  1  0  0  0  0
 22 23  1  0  0  0  0
 22 24  2  0  0  0  0
 30 33  1  0  0  0  0
  8 11  1  0  0  0  0
 39 40  1  0  0  0  0
 18 21  1  0  0  0  0
 29 30  1  0  0  0  0
  7  8  1  0  0  0  0
 17 18  1  0  0  0  0
  3  4  1  0  0  0  0
  3  5  1  0  0  0  0
  3  6  1  0  0  0  0
 33 36  1  0  0  0  0
 33 37  1  0  0  0  0
 33 38  1  0  0  0  0
 11 14  1  0  0  0  0
 11 15  1  0  0  0  0
 11 16  1  0  0  0  0
 40 42  1  0  0  0  0
 40 43  1  0  0  0  0
 40 44  1  0  0  0  0
 21 27  1  0  0  0  0
 21 28  1  0  0  0  0
 30 35  1  0  0  0  0
  8 13  1  0  0  0  0
 18 26  1  0  0  0  0
 39 41  1  0  0  0  0
  7 12  1  0  0  0  0
 29 34  1  0  0  0  0
 17 25  1  0  0  0  0
M  CHG  1  23  -1
M  END
$$$$

  -OEChem-05262214473D

 44 43  0     1  0  0  0  0  0999 V2000
   -4.0256   -1.8030   -2.1581 C   0  0  0  0  0  0  0  0  0  0  0  0
   -3.7513   -2.6782   -2.9709 O   0  0  0  0  0  0  0  0  0  0  0  0
   -5.3491   -1.1169   -2.2339 C   0  0  0  0  0  0  0  0  0  0  0  0
   -5.3223   -0.2211   -2.8750 H   0  0  0  0  0  0  0  0  0  0  0  0
   -6.1322   -1.7605   -2.6658 H   0  0  0  0  0  0  0  0  0  0  0  0
   -5.7568   -0.7715   -1.2704 H   0  0  0  0  0  0  0  0  0  0  0  0
   -3.2124   -1.3578   -1.1289 N   0  0  0  0  0  0  0  0  0  0  0  0
   -1.8971   -1.8843   -0.8752 C   0  0  2  0  0  0  0  0  0  0  0  0
   -1.2676   -1.0599    0.2399 C   0  0  0  0  0  0  0  0  0  0  0  0
   -1.6270    0.0833    0.5138 O   0  0  0  0  0  0  0  0  0  0  0  0
   -1.0364   -1.8506   -2.1285 C   0  0  0  0  0  0  0  0  0  0  0  0
   -3.5631   -0.6202   -0.5206 H   0  0  0  0  0  0  0  0  0  0  0  0
   -2.0301   -2.9174   -0.5360 H   0  0  0  0  0  0  0  0  0  0  0  0
   -0.8921   -0.8236   -2.4833 H   0  0  0  0  0  0  0  0  0  0  0  0
   -0.0457   -2.2777   -1.9410 H   0  0  0  0  0  0  0  0  0  0  0  0
   -1.5052   -2.4193   -2.9387 H   0  0  0  0  0  0  0  0  0  0  0  0
   -0.2267   -1.7335    0.8672 N   0  0  0  0  0  0  0  0  0  0  0  0
    0.5363   -1.1590    1.9465 C   0  0  2  0  0  0  0  0  0  0  0  0
    1.7919   -2.0075    2.1116 C   0  0  0  0  0  0  0  0  0  0  0  0
    2.3394   -2.1905    3.1970 O   0  0  0  0  0  0  0  0  0  0  0  0
   -0.2609   -1.1218    3.2483 C   0  0  0  0  0  0  0  0  0  0  0  0
   -1.4451   -0.1478    3.2950 C   0  0  0  0  0  0  0  0  0  0  0  0
   -1.3038    0.8723    2.5599 O   0  5  0  0  0  0  0  0  0  0  0  0
   -2.4044   -0.4602    4.0520 O   0  0  0  0  0  0  0  0  0  0  0  0
   -0.0113   -2.6869    0.5854 H   0  0  0  0  0  0  0  0  0  0  0  0
    0.8224   -0.1502    1.6282 H   0  0  0  0  0  0  0  0  0  0  0  0
    0.4088   -0.8789    4.0846 H   0  0  0  0  0  0  0  0  0  0  0  0
   -0.6713   -2.1180    3.4588 H   0  0  0  0  0  0  0  0  0  0  0  0
    2.1976   -2.5776    0.9130 N   0  0  0  0  0  0  0  0  0  0  0  0
    3.3439   -3.4505    0.8107 C   0  0  2  0  0  0  0  0  0  0  0  0
    3.9515   -3.2685   -0.5740 C   0  0  0  0  0  0  0  0  0  0  0  0
    3.3172   -2.8333   -1.5329 O   0  0  0  0  0  0  0  0  0  0  0  0
    2.9571   -4.9019    1.0480 C   0  0  0  0  0  0  0  0  0  0  0  0
    1.6551   -2.4090    0.0710 H   0  0  0  0  0  0  0  0  0  0  0  0
    4.0608   -3.1215    1.5708 H   0  0  0  0  0  0  0  0  0  0  0  0
    2.2392   -5.2494    0.2961 H   0  0  0  0  0  0  0  0  0  0  0  0
    3.8317   -5.5589    0.9984 H   0  0  0  0  0  0  0  0  0  0  0  0
    2.4932   -5.0256    2.0326 H   0  0  0  0  0  0  0  0  0  0  0  0
    5.2729   -3.6898   -0.6236 N   0  0  0  0  0  0  0  0  0  0  0  0
    6.0652   -3.6311   -1.8297 C   0  0  0  0  0  0  0  0  0  0  0  0
    5.7245   -4.0193    0.2245 H   0  0  0  0  0  0  0  0  0  0  0  0
    5.9888   -4.5883   -2.3662 H   0  0  0  0  0  0  0  0  0  0  0  0
    5.6939   -2.8197   -2.4731 H   0  0  0  0  0  0  0  0  0  0  0  0
    7.1166   -3.4400   -1.5687 H   0  0  0  0  0  0  0  0  0  0  0  0
  1  3  1  0  0  0  0
  1  7  1  0  0  0  0
  1  2  2  0  0  0  0
 30 31  1  0  0  0  0
 31 39  1  0  0  0  0
 31 32  2  0  0  0  0
  8  9  1  0  0  0  0
  9 17  1  0  0  0  0
  9 10  2  0  0  0  0
 18 19  1  0  0  0  0
 19 29  1  0  0  0  0
 19 20  2  0  0  0  0
 21 22  1  0  0  0  0
 22 23  1  0  0  0  0
 22 24  2  0  0  0  0
 30 33  1  0  0  0  0
  8 11  1  0  0  0  0
 39 40  1  0  0  0  0
 18 21  1  0  0  0  0
 29 30  1  0  0  0  0
  7  8  1  0  0  0  0
 17 18  1  0  0  0  0
  3  4  1  0  0  0  0
  3  5  1  0  0  0  0
  3  6  1  0  0  0  0
 33 36  1  0  0  0  0
 33 37  1  0  0  0  0
 33 38  1  0  0  0  0
 11 14  1  0  0  0  0
 11 15  1  0  0  0  0
 11 16  1  0  0  0  0
 40 42  1  0  0  0  0
 40 43  1  0  0  0  0
 40 44  1  0  0  0  0
 21 27  1  0  0  0  0
 21 28  1  0  0  0  0
 30 35  1  0  0  0  0
  8 13  1  0  0  0  0
 18 26  1  0  0  0  0
 39 41  1  0  0  0  0
  7 12  1  0  0  0  0
 29 34  1  0  0  0  0
 17 25  1  0  0  0  0
M  CHG  1  23  -1
M  END
$$$$

  -OEChem-05262214473D

 44 43  0     1  0  0  0  0  0999 V2000
   -4.0256   -1.8030   -2.1581 C   0  0  0  0  0  0  0  0  0  0  0  0
   -3.7513   -2.6782   -2.9709 O   0  0  0  0  0  0  0  0  0  0  0  0
   -5.3491   -1.1169   -2.2339 C   0  0  0  0  0  0  0  0  0  0  0  0
   -5.3223   -0.2211   -2.8750 H   0  0  0  0  0  0  0  0  0  0  0  0
   -6.1322   -1.7605   -2.6658 H   0  0  0  0  0  0  0  0  0  0  0  0
   -5.7568   -0.7715   -1.2704 H   0  0  0  0  0  0  0  0  0  0  0  0
   -3.2124   -1.3578   -1.1289 N   0  0  0  0  0  0  0  0  0  0  0  0
   -1.8971   -1.8843   -0.8752 C   0  0  2  0  0  0  0  0  0  0  0  0
   -1.2676   -1.0599    0.2399 C   0  0  0  0  0  0  0  0  0  0  0  0
   -1.6270    0.0833    0.5138 O   0  0  0  0  0  0  0  0  0  0  0  0
   -1.0364   -1.8506   -2.1285 C   0  0  0  0  0  0  0  0  0  0  0  0
   -3.5631   -0.6202   -0.5206 H   0  0  0  0  0  0  0  0  0  0  0  0
   -2.0301   -2.9174   -0.5360 H   0  0  0  0  0  0  0  0  0  0  0  0
   -0.8921   -0.8236   -2.4833 H   0  0  0  0  0  0  0  0  0  0  0  0
   -0.0457   -2.2777   -1.9410 H   0  0  0  0  0  0  0  0  0  0  0  0
   -1.5052   -2.4193   -2.9387 H   0  0  0  0  0  0  0  0  0  0  0  0
   -0.2267   -1.7335    0.8672 N   0  0  0  0  0  0  0  0  0  0  0  0
    0.5363   -1.1590    1.9465 C   0  0  2  0  0  0  0  0  0  0  0  0
    1.7919   -2.0075    2.1116 C   0  0  0  0  0  0  0  0  0  0  0  0
    2.1883   -2.4130    3.2023 O   0  0  0  0  0  0  0  0  0  0  0  0
   -0.2609   -1.1218    3.2483 C   0  0  0  0  0  0  0  0  0  0  0  0
   -1.4451   -0.1478    3.2950 C   0  0  0  0  0  0  0  0  0  0  0  0
   -1.3038    0.8723    2.5599 O   0  5  0  0  0  0  0  0  0  0  0  0
   -2.4044   -0.4602    4.0520 O   0  0  0  0  0  0  0  0  0  0  0  0
   -0.0113   -2.6869    0.5854 H   0  0  0  0  0  0  0  0  0  0  0  0
    0.8224   -0.1502    1.6282 H   0  0  0  0  0  0  0  0  0  0  0  0
    0.4088   -0.8789    4.0846 H   0  0  0  0  0  0  0  0  0  0  0  0
   -0.6713   -2.1180    3.4588 H   0  0  0  0  0  0  0  0  0  0  0  0
    2.3871   -2.3012    0.8927 N   0  0  0  0  0  0  0  0  0  0  0  0
    3.5734   -3.1173    0.7781 C   0  0  2  0  0  0  0  0  0  0  0  0
    4.3616   -2.6340   -0.4321 C   0  0  0  0  0  0  0  0  0  0  0  0
    3.8505   -2.0105   -1.3601 O   0  0  0  0  0  0  0  0  0  0  0  0
    3.2207   -4.5905    0.6441 C   0  0  0  0  0  0  0  0  0  0  0  0
    1.9618   -1.9621    0.0348 H   0  0  0  0  0  0  0  0  0  0  0  0
    4.1609   -2.9507    1.6876 H   0  0  0  0  0  0  0  0  0  0  0  0
    2.6319   -4.7768   -0.2614 H   0  0  0  0  0  0  0  0  0  0  0  0
    4.1214   -5.2104    0.5861 H   0  0  0  0  0  0  0  0  0  0  0  0
    2.6284   -4.9289    1.5011 H   0  0  0  0  0  0  0  0  0  0  0  0
    5.6939   -3.0183   -0.3746 N   0  0  0  0  0  0  0  0  0  0  0  0
    6.6451   -2.6915   -1.4112 C   0  0  0  0  0  0  0  0  0  0  0  0
    6.0353   -3.5170    0.4418 H   0  0  0  0  0  0  0  0  0  0  0  0
    6.6869   -3.5117   -2.1430 H   0  0  0  0  0  0  0  0  0  0  0  0
    6.3331   -1.7654   -1.9162 H   0  0  0  0  0  0  0  0  0  0  0  0
    7.6398   -2.5481   -0.9640 H   0  0  0  0  0  0  0  0  0  0  0  0
  1  3  1  0  0  0  0
  1  7  1  0  0  0  0
  1  2  2  0  0  0  0
 30 31  1  0  0  0  0
 31 39  1  0  0  0  0
 31 32  2  0  0  0  0
  8  9  1  0  0  0  0
  9 17  1  0  0  0  0
  9 10  2  0  0  0  0
 18 19  1  0  0  0  0
 19 29  1  0  0  0  0
 19 20  2  0  0  0  0
 21 22  1  0  0  0  0
 22 23  1  0  0  0  0
 22 24  2  0  0  0  0
 30 33  1  0  0  0  0
  8 11  1  0  0  0  0
 39 40  1  0  0  0  0
 18 21  1  0  0  0  0
 29 30  1  0  0  0  0
  7  8  1  0  0  0  0
 17 18  1  0  0  0  0
  3  4  1  0  0  0  0
  3  5  1  0  0  0  0
  3  6  1  0  0  0  0
 33 36  1  0  0  0  0
 33 37  1  0  0  0  0
 33 38  1  0  0  0  0
 11 14  1  0  0  0  0
 11 15  1  0  0  0  0
 11 16  1  0  0  0  0
 40 42  1  0  0  0  0
 40 43  1  0  0  0  0
 40 44  1  0  0  0  0
 21 27  1  0  0  0  0
 21 28  1  0  0  0  0
 30 35  1  0  0  0  0
  8 13  1  0  0  0  0
 18 26  1  0  0  0  0
 39 41  1  0  0  0  0
  7 12  1  0  0  0  0
 29 34  1  0  0  0  0
 17 25  1  0  0  0  0
M  CHG  1  23  -1
M  END
$$$$

  -OEChem-05262214473D

 44 43  0     1  0  0  0  0  0999 V2000
   -4.0256   -1.8030   -2.1581 C   0  0  0  0  0  0  0  0  0  0  0  0
   -3.7513   -2.6782   -2.9709 O   0  0  0  0  0  0  0  0  0  0  0  0
   -5.3491   -1.1169   -2.2339 C   0  0  0  0  0  0  0  0  0  0  0  0
   -5.3223   -0.2211   -2.8750 H   0  0  0  0  0  0  0  0  0  0  0  0
   -6.1322   -1.7605   -2.6658 H   0  0  0  0  0  0  0  0  0  0  0  0
   -5.7568   -0.7715   -1.2704 H   0  0  0  0  0  0  0  0  0  0  0  0
   -3.2124   -1.3578   -1.1289 N   0  0  0  0  0  0  0  0  0  0  0  0
   -1.8971   -1.8843   -0.8752 C   0  0  2  0  0  0  0  0  0  0  0  0
   -1.2676   -1.0599    0.2399 C   0  0  0  0  0  0  0  0  0  0  0  0
   -1.6270    0.0833    0.5138 O   0  0  0  0  0  0  0  0  0  0  0  0
   -1.0364   -1.8506   -2.1285 C   0  0  0  0  0  0  0  0  0  0  0  0
   -3.5631   -0.6202   -0.5206 H   0  0  0  0  0  0  0  0  0  0  0  0
   -2.0301   -2.9174   -0.5360 H   0  0  0  0  0  0  0  0  0  0  0  0
   -0.8921   -0.8236   -2.4833 H   0  0  0  0  0  0  0  0  0  0  0  0
   -0.0457   -2.2777   -1.9410 H   0  0  0  0  0  0  0  0  0  0  0  0
   -1.5052   -2.4193   -2.9387 H   0  0  0  0  0  0  0  0  0  0  0  0
   -0.2267   -1.7335    0.8672 N   0  0  0  0  0  0  0  0  0  0  0  0
    0.5363   -1.1590    1.9465 C   0  0  2  0  0  0  0  0  0  0  0  0
    1.7919   -2.0075    2.1116 C   0  0  0  0  0  0  0  0  0  0  0  0
    2.0479   -2.6333    3.1383 O   0  0  0  0  0  0  0  0  0  0  0  0
   -0.2609   -1.1218    3.2483 C   0  0  0  0  0  0  0  0  0  0  0  0
   -1.4451   -0.1478    3.2950 C   0  0  0  0  0  0  0  0  0  0  0  0
   -1.3038    0.8723    2.5599 O   0  5  0  0  0  0  0  0  0  0  0  0
   -2.4044   -0.4602    4.0520 O   0  0  0  0  0  0  0  0  0  0  0  0
   -0.0113   -2.6869    0.5854 H   0  0  0  0  0  0  0  0  0  0  0  0
    0.8224   -0.1502    1.6282 H   0  0  0  0  0  0  0  0  0  0  0  0
    0.4088   -0.8789    4.0846 H   0  0  0  0  0  0  0  0  0  0  0  0
   -0.6713   -2.1180    3.4588 H   0  0  0  0  0  0  0  0  0  0  0  0
    2.5653   -2.0245    0.9593 N   0  0  0  0  0  0  0  0  0  0  0  0
    3.7903   -2.7820    0.8507 C   0  0  2  0  0  0  0  0  0  0  0  0
    4.7195   -2.0398   -0.1008 C   0  0  0  0  0  0  0  0  0  0  0  0
    4.3177   -1.2376   -0.9410 O   0  0  0  0  0  0  0  0  0  0  0  0
    3.5247   -4.1961    0.3584 C   0  0  0  0  0  0  0  0  0  0  0  0
    2.2509   -1.5140    0.1393 H   0  0  0  0  0  0  0  0  0  0  0  0
    4.2359   -2.8078    1.8512 H   0  0  0  0  0  0  0  0  0  0  0  0
    3.0782   -4.1905   -0.6427 H   0  0  0  0  0  0  0  0  0  0  0  0
    4.4509   -4.7778    0.3039 H   0  0  0  0  0  0  0  0  0  0  0  0
    2.8329   -4.7184    1.0279 H   0  0  0  0  0  0  0  0  0  0  0  0
    6.0459   -2.4109    0.0697 N   0  0  0  0  0  0  0  0  0  0  0  0
    7.1185   -1.8569   -0.7231 C   0  0  0  0  0  0  0  0  0  0  0  0
    6.2902   -3.0694    0.8035 H   0  0  0  0  0  0  0  0  0  0  0  0
    7.2990   -2.4998   -1.5972 H   0  0  0  0  0  0  0  0  0  0  0  0
    6.8408   -0.8478   -1.0614 H   0  0  0  0  0  0  0  0  0  0  0  0
    8.0330   -1.8008   -0.1144 H   0  0  0  0  0  0  0  0  0  0  0  0
  1  3  1  0  0  0  0
  1  7  1  0  0  0  0
  1  2  2  0  0  0  0
 30 31  1  0  0  0  0
 31 39  1  0  0  0  0
 31 32  2  0  0  0  0
  8  9  1  0  0  0  0
  9 17  1  0  0  0  0
  9 10  2  0  0  0  0
 18 19  1  0  0  0  0
 19 29  1  0  0  0  0
 19 20  2  0  0  0  0
 21 22  1  0  0  0  0
 22 23  1  0  0  0  0
 22 24  2  0  0  0  0
 30 33  1  0  0  0  0
  8 11  1  0  0  0  0
 39 40  1  0  0  0  0
 18 21  1  0  0  0  0
 29 30  1  0  0  0  0
  7  8  1  0  0  0  0
 17 18  1  0  0  0  0
  3  4  1  0  0  0  0
  3  5  1  0  0  0  0
  3  6  1  0  0  0  0
 33 36  1  0  0  0  0
 33 37  1  0  0  0  0
 33 38  1  0  0  0  0
 11 14  1  0  0  0  0
 11 15  1  0  0  0  0
 11 16  1  0  0  0  0
 40 42  1  0  0  0  0
 40 43  1  0  0  0  0
 40 44  1  0  0  0  0
 21 27  1  0  0  0  0
 21 28  1  0  0  0  0
 30 35  1  0  0  0  0
  8 13  1  0  0  0  0
 18 26  1  0  0  0  0
 39 41  1  0  0  0  0
  7 12  1  0  0  0  0
 29 34  1  0  0  0  0
 17 25  1  0  0  0  0
M  CHG  1  23  -1
M  END
$$$$

  -OEChem-05262214473D

 44 43  0     1  0  0  0  0  0999 V2000
   -4.0256   -1.8030   -2.1581 C   0  0  0  0  0  0  0  0  0  0  0  0
   -3.7513   -2.6782   -2.9709 O   0  0  0  0  0  0  0  0  0  0  0  0
   -5.3491   -1.1169   -2.2339 C   0  0  0  0  0  0  0  0  0  0  0  0
   -5.3223   -0.2211   -2.8750 H   0  0  0  0  0  0  0  0  0  0  0  0
   -6.1322   -1.7605   -2.6658 H   0  0  0  0  0  0  0  0  0  0  0  0
   -5.7568   -0.7715   -1.2704 H   0  0  0  0  0  0  0  0  0  0  0  0
   -3.2124   -1.3578   -1.1289 N   0  0  0  0  0  0  0  0  0  0  0  0
   -1.8971   -1.8843   -0.8752 C   0  0  2  0  0  0  0  0  0  0  0  0
   -1.2676   -1.0599    0.2399 C   0  0  0  0  0  0  0  0  0  0  0  0
   -1.6270    0.0833    0.5138 O   0  0  0  0  0  0  0  0  0  0  0  0
   -1.0364   -1.8506   -2.1285 C   0  0  0  0  0  0  0  0  0  0  0  0
   -3.5631   -0.6202   -0.5206 H   0  0  0  0  0  0  0  0  0  0  0  0
   -2.0301   -2.9174   -0.5360 H   0  0  0  0  0  0  0  0  0  0  0  0
   -0.8921   -0.8236   -2.4833 H   0  0  0  0  0  0  0  0  0  0  0  0
   -0.0457   -2.2777   -1.9410 H   0  0  0  0  0  0  0  0  0  0  0  0
   -1.5052   -2.4193   -2.9387 H   0  0  0  0  0  0  0  0  0  0  0  0
   -0.2267   -1.7335    0.8672 N   0  0  0  0  0  0  0  0  0  0  0  0
    0.5363   -1.1590    1.9465 C   0  0  2  0  0  0  0  0  0  0  0  0
    1.7919   -2.0075    2.1116 C   0  0  0  0  0  0  0  0  0  0  0  0
    1.9276   -2.8364    3.0092 O   0  0  0  0  0  0  0  0  0  0  0  0
   -0.2609   -1.1218    3.2483 C   0  0  0  0  0  0  0  0  0  0  0  0
   -1.4451   -0.1478    3.2950 C   0  0  0  0  0  0  0  0  0  0  0  0
   -1.3038    0.8723    2.5599 O   0  5  0  0  0  0  0  0  0  0  0  0
   -2.4044   -0.4602    4.0520 O   0  0  0  0  0  0  0  0  0  0  0  0
   -0.0113   -2.6869    0.5854 H   0  0  0  0  0  0  0  0  0  0  0  0
    0.8224   -0.1502    1.6282 H   0  0  0  0  0  0  0  0  0  0  0  0
    0.4088   -0.8789    4.0846 H   0  0  0  0  0  0  0  0  0  0  0  0
   -0.6713   -2.1180    3.4588 H   0  0  0  0  0  0  0  0  0  0  0  0
    2.7201   -1.7665    1.1082 N   0  0  0  0  0  0  0  0  0  0  0  0
    3.9801   -2.4676    1.0236 C   0  0  2  0  0  0  0  0  0  0  0  0
    5.0008   -1.5266    0.3975 C   0  0  0  0  0  0  0  0  0  0  0  0
    4.6869   -0.5673   -0.3041 O   0  0  0  0  0  0  0  0  0  0  0  0
    3.8485   -3.7458    0.2102 C   0  0  0  0  0  0  0  0  0  0  0  0
    2.5024   -1.0954    0.3774 H   0  0  0  0  0  0  0  0  0  0  0  0
    4.2808   -2.7026    2.0505 H   0  0  0  0  0  0  0  0  0  0  0  0
    3.5479   -3.5304   -0.8216 H   0  0  0  0  0  0  0  0  0  0  0  0
    4.7976   -4.2906    0.1710 H   0  0  0  0  0  0  0  0  0  0  0  0
    3.0926   -4.4085    0.6452 H   0  0  0  0  0  0  0  0  0  0  0  0
    6.3049   -1.9091    0.6790 N   0  0  0  0  0  0  0  0  0  0  0  0
    7.4533   -1.1842    0.1877 C   0  0  0  0  0  0  0  0  0  0  0  0
    6.4718   -2.7070    1.2850 H   0  0  0  0  0  0  0  0  0  0  0  0
    7.7831   -1.6216   -0.7662 H   0  0  0  0  0  0  0  0  0  0  0  0
    7.1823   -0.1294    0.0329 H   0  0  0  0  0  0  0  0  0  0  0  0
    8.2695   -1.2491    0.9223 H   0  0  0  0  0  0  0  0  0  0  0  0
  1  3  1  0  0  0  0
  1  7  1  0  0  0  0
  1  2  2  0  0  0  0
 30 31  1  0  0  0  0
 31 39  1  0  0  0  0
 31 32  2  0  0  0  0
  8  9  1  0  0  0  0
  9 17  1  0  0  0  0
  9 10  2  0  0  0  0
 18 19  1  0  0  0  0
 19 29  1  0  0  0  0
 19 20  2  0  0  0  0
 21 22  1  0  0  0  0
 22 23  1  0  0  0  0
 22 24  2  0  0  0  0
 30 33  1  0  0  0  0
  8 11  1  0  0  0  0
 39 40  1  0  0  0  0
 18 21  1  0  0  0  0
 29 30  1  0  0  0  0
  7  8  1  0  0  0  0
 17 18  1  0  0  0  0
  3  4  1  0  0  0  0
  3  5  1  0  0  0  0
  3  6  1  0  0  0  0
 33 36  1  0  0  0  0
 33 37  1  0  0  0  0
 33 38  1  0  0  0  0
 11 14  1  0  0  0  0
 11 15  1  0  0  0  0
 11 16  1  0  0  0  0
 40 42  1  0  0  0  0
 40 43  1  0  0  0  0
 40 44  1  0  0  0  0
 21 27  1  0  0  0  0
 21 28  1  0  0  0  0
 30 35  1  0  0  0  0
  8 13  1  0  0  0  0
 18 26  1  0  0  0  0
 39 41  1  0  0  0  0
  7 12  1  0  0  0  0
 29 34  1  0  0  0  0
 17 25  1  0  0  0  0
M  CHG  1  23  -1
M  END
$$$$

  -OEChem-05262214473D

 44 43  0     1  0  0  0  0  0999 V2000
   -4.0256   -1.8030   -2.1581 C   0  0  0  0  0  0  0  0  0  0  0  0
   -3.7513   -2.6782   -2.9709 O   0  0  0  0  0  0  0  0  0  0  0  0
   -5.3491   -1.1169   -2.2339 C   0  0  0  0  0  0  0  0  0  0  0  0
   -5.3223   -0.2211   -2.8750 H   0  0  0  0  0  0  0  0  0  0  0  0
   -6.1322   -1.7605   -2.6658 H   0  0  0  0  0  0  0  0  0  0  0  0
   -5.7568   -0.7715   -1.2704 H   0  0  0  0  0  0  0  0  0  0  0  0
   -3.2124   -1.3578   -1.1289 N   0  0  0  0  0  0  0  0  0  0  0  0
   -1.8971   -1.8843   -0.8752 C   0  0  2  0  0  0  0  0  0  0  0  0
   -1.2676   -1.0599    0.2399 C   0  0  0  0  0  0  0  0  0  0  0  0
   -1.6270    0.0833    0.5138 O   0  0  0  0  0  0  0  0  0  0  0  0
   -1.0364   -1.8506   -2.1285 C   0  0  0  0  0  0  0  0  0  0  0  0
   -3.5631   -0.6202   -0.5206 H   0  0  0  0  0  0  0  0  0  0  0  0
   -2.0301   -2.9174   -0.5360 H   0  0  0  0  0  0  0  0  0  0  0  0
   -0.8921   -0.8236   -2.4833 H   0  0  0  0  0  0  0  0  0  0  0  0
   -0.0457   -2.2777   -1.9410 H   0  0  0  0  0  0  0  0  0  0  0  0
   -1.5052   -2.4193   -2.9387 H   0  0  0  0  0  0  0  0  0  0  0  0
   -0.2267   -1.7335    0.8672 N   0  0  0  0  0  0  0  0  0  0  0  0
    0.5363   -1.1590    1.9465 C   0  0  2  0  0  0  0  0  0  0  0  0
    1.7919   -2.0075    2.1116 C   0  0  0  0  0  0  0  0  0  0  0  0
    1.8357   -3.0084    2.8239 O   0  0  0  0  0  0  0  0  0  0  0  0
   -0.2609   -1.1218    3.2483 C   0  0  0  0  0  0  0  0  0  0  0  0
   -1.4451   -0.1478    3.2950 C   0  0  0  0  0  0  0  0  0  0  0  0
   -1.3038    0.8723    2.5599 O   0  5  0  0  0  0  0  0  0  0  0  0
   -2.4044   -0.4602    4.0520 O   0  0  0  0  0  0  0  0  0  0  0  0
   -0.0113   -2.6869    0.5854 H   0  0  0  0  0  0  0  0  0  0  0  0
    0.8224   -0.1502    1.6282 H   0  0  0  0  0  0  0  0  0  0  0  0
    0.4088   -0.8789    4.0846 H   0  0  0  0  0  0  0  0  0  0  0  0
   -0.6713   -2.1180    3.4588 H   0  0  0  0  0  0  0  0  0  0  0  0
    2.8409   -1.5447    1.3294 N   0  0  0  0  0  0  0  0  0  0  0  0
    4.1296   -2.1955    1.2850 C   0  0  2  0  0  0  0  0  0  0  0  0
    5.1864   -1.1291    1.0288 C   0  0  0  0  0  0  0  0  0  0  0  0
    4.9329   -0.0453    0.5071 O   0  0  0  0  0  0  0  0  0  0  0  0
    4.1700   -3.2701    0.2098 C   0  0  0  0  0  0  0  0  0  0  0  0
    2.6994   -0.7348    0.7329 H   0  0  0  0  0  0  0  0  0  0  0  0
    4.2925   -2.6422    2.2719 H   0  0  0  0  0  0  0  0  0  0  0  0
    4.0087   -2.8414   -0.7861 H   0  0  0  0  0  0  0  0  0  0  0  0
    5.1380   -3.7819    0.1964 H   0  0  0  0  0  0  0  0  0  0  0  0
    3.3900   -4.0203    0.3790 H   0  0  0  0  0  0  0  0  0  0  0  0
    6.4531   -1.5471    1.4119 N   0  0  0  0  0  0  0  0  0  0  0  0
    7.6267   -0.7192    1.2591 C   0  0  0  0  0  0  0  0  0  0  0  0
    6.5676   -2.4546    1.8536 H   0  0  0  0  0  0  0  0  0  0  0  0
    8.1065   -0.9369    0.2935 H   0  0  0  0  0  0  0  0  0  0  0  0
    7.3344    0.3408    1.2924 H   0  0  0  0  0  0  0  0  0  0  0  0
    8.3331   -0.9305    2.0753 H   0  0  0  0  0  0  0  0  0  0  0  0
  1  3  1  0  0  0  0
  1  7  1  0  0  0  0
  1  2  2  0  0  0  0
 30 31  1  0  0  0  0
 31 39  1  0  0  0  0
 31 32  2  0  0  0  0
  8  9  1  0  0  0  0
  9 17  1  0  0  0  0
  9 10  2  0  0  0  0
 18 19  1  0  0  0  0
 19 29  1  0  0  0  0
 19 20  2  0  0  0  0
 21 22  1  0  0  0  0
 22 23  1  0  0  0  0
 22 24  2  0  0  0  0
 30 33  1  0  0  0  0
  8 11  1  0  0  0  0
 39 40  1  0  0  0  0
 18 21  1  0  0  0  0
 29 30  1  0  0  0  0
  7  8  1  0  0  0  0
 17 18  1  0  0  0  0
  3  4  1  0  0  0  0
  3  5  1  0  0  0  0
  3  6  1  0  0  0  0
 33 36  1  0  0  0  0
 33 37  1  0  0  0  0
 33 38  1  0  0  0  0
 11 14  1  0  0  0  0
 11 15  1  0  0  0  0
 11 16  1  0  0  0  0
 40 42  1  0  0  0  0
 40 43  1  0  0  0  0
 40 44  1  0  0  0  0
 21 27  1  0  0  0  0
 21 28  1  0  0  0  0
 30 35  1  0  0  0  0
  8 13  1  0  0  0  0
 18 26  1  0  0  0  0
 39 41  1  0  0  0  0
  7 12  1  0  0  0  0
 29 34  1  0  0  0  0
 17 25  1  0  0  0  0
M  CHG  1  23  -1
M  END
$$$$

  -OEChem-05262214473D

 44 43  0     1  0  0  0  0  0999 V2000
   -4.0256   -1.8030   -2.1581 C   0  0  0  0  0  0  0  0  0  0  0  0
   -3.7513   -2.6782   -2.9709 O   0  0  0  0  0  0  0  0  0  0  0  0
   -5.3491   -1.1169   -2.2339 C   0  0  0  0  0  0  0  0  0  0  0  0
   -5.3223   -0.2211   -2.8750 H   0  0  0  0  0  0  0  0  0  0  0  0
   -6.1322   -1.7605   -2.6658 H   0  0  0  0  0  0  0  0  0  0  0  0
   -5.7568   -0.7715   -1.2704 H   0  0  0  0  0  0  0  0  0  0  0  0
   -3.2124   -1.3578   -1.1289 N   0  0  0  0  0  0  0  0  0  0  0  0
   -1.8971   -1.8843   -0.8752 C   0  0  2  0  0  0  0  0  0  0  0  0
   -1.2676   -1.0599    0.2399 C   0  0  0  0  0  0  0  0  0  0  0  0
   -1.6270    0.0833    0.5138 O   0  0  0  0  0  0  0  0  0  0  0  0
   -1.0364   -1.8506   -2.1285 C   0  0  0  0  0  0  0  0  0  0  0  0
   -3.5631   -0.6202   -0.5206 H   0  0  0  0  0  0  0  0  0  0  0  0
   -2.0301   -2.9174   -0.5360 H   0  0  0  0  0  0  0  0  0  0  0  0
   -0.8921   -0.8236   -2.4833 H   0  0  0  0  0  0  0  0  0  0  0  0
   -0.0457   -2.2777   -1.9410 H   0  0  0  0  0  0  0  0  0  0  0  0
   -1.5052   -2.4193   -2.9387 H   0  0  0  0  0  0  0  0  0  0  0  0
   -0.2267   -1.7335    0.8672 N   0  0  0  0  0  0  0  0  0  0  0  0
    0.5363   -1.1590    1.9465 C   0  0  2  0  0  0  0  0  0  0  0  0
    1.7919   -2.0075    2.1116 C   0  0  0  0  0  0  0  0  0  0  0  0
    1.7785   -3.1377    2.5951 O   0  0  0  0  0  0  0  0  0  0  0  0
   -0.2609   -1.1218    3.2483 C   0  0  0  0  0  0  0  0  0  0  0  0
   -1.4451   -0.1478    3.2950 C   0  0  0  0  0  0  0  0  0  0  0  0
   -1.3038    0.8723    2.5599 O   0  5  0  0  0  0  0  0  0  0  0  0
   -2.4044   -0.4602    4.0520 O   0  0  0  0  0  0  0  0  0  0  0  0
   -0.0113   -2.6869    0.5854 H   0  0  0  0  0  0  0  0  0  0  0  0
    0.8224   -0.1502    1.6282 H   0  0  0  0  0  0  0  0  0  0  0  0
    0.4088   -0.8789    4.0846 H   0  0  0  0  0  0  0  0  0  0  0  0
   -0.6713   -2.1180    3.4588 H   0  0  0  0  0  0  0  0  0  0  0  0
    2.9195   -1.3742    1.6078 N   0  0  0  0  0  0  0  0  0  0  0  0
    4.2288   -1.9841    1.6170 C   0  0  2  0  0  0  0  0  0  0  0  0
    5.2635   -0.8746    1.7501 C   0  0  0  0  0  0  0  0  0  0  0  0
    5.0391    0.2929    1.4375 O   0  0  0  0  0  0  0  0  0  0  0  0
    4.4673   -2.8016    0.3570 C   0  0  0  0  0  0  0  0  0  0  0  0
    2.8283   -0.4567    1.1815 H   0  0  0  0  0  0  0  0  0  0  0  0
    4.2702   -2.6307    2.5003 H   0  0  0  0  0  0  0  0  0  0  0  0
    4.4295   -2.1706   -0.5385 H   0  0  0  0  0  0  0  0  0  0  0  0
    5.4489   -3.2864    0.3785 H   0  0  0  0  0  0  0  0  0  0  0  0
    3.7047   -3.5802    0.2474 H   0  0  0  0  0  0  0  0  0  0  0  0
    6.4806   -1.3494    2.2183 N   0  0  0  0  0  0  0  0  0  0  0  0
    7.6267   -0.4935    2.4181 C   0  0  0  0  0  0  0  0  0  0  0  0
    6.5712   -2.3292    2.4704 H   0  0  0  0  0  0  0  0  0  0  0  0
    8.2469   -0.4923    1.5096 H   0  0  0  0  0  0  0  0  0  0  0  0
    7.2866    0.5307    2.6311 H   0  0  0  0  0  0  0  0  0  0  0  0
    8.2196   -0.8668    3.2661 H   0  0  0  0  0  0  0  0  0  0  0  0
  1  3  1  0  0  0  0
  1  7  1  0  0  0  0
  1  2  2  0  0  0  0
 30 31  1  0  0  0  0
 31 39  1  0  0  0  0
 31 32  2  0  0  0  0
  8  9  1  0  0  0  0
  9 17  1  0  0  0  0
  9 10  2  0  0  0  0
 18 19  1  0  0  0  0
 19 29  1  0  0  0  0
 19 20  2  0  0  0  0
 21 22  1  0  0  0  0
 22 23  1  0  0  0  0
 22 24  2  0  0  0  0
 30 33  1  0  0  0  0
  8 11  1  0  0  0  0
 39 40  1  0  0  0  0
 18 21  1  0  0  0  0
 29 30  1  0  0  0  0
  7  8  1  0  0  0  0
 17 18  1  0  0  0  0
  3  4  1  0  0  0  0
  3  5  1  0  0  0  0
  3  6  1  0  0  0  0
 33 36  1  0  0  0  0
 33 37  1  0  0  0  0
 33 38  1  0  0  0  0
 11 14  1  0  0  0  0
 11 15  1  0  0  0  0
 11 16  1  0  0  0  0
 40 42  1  0  0  0  0
 40 43  1  0  0  0  0
 40 44  1  0  0  0  0
 21 27  1  0  0  0  0
 21 28  1  0  0  0  0
 30 35  1  0  0  0  0
  8 13  1  0  0  0  0
 18 26  1  0  0  0  0
 39 41  1  0  0  0  0
  7 12  1  0  0  0  0
 29 34  1  0  0  0  0
 17 25  1  0  0  0  0
M  CHG  1  23  -1
M  END
$$$$

  -OEChem-05262214473D

 44 43  0     1  0  0  0  0  0999 V2000
   -4.0256   -1.8030   -2.1581 C   0  0  0  0  0  0  0  0  0  0  0  0
   -3.7513   -2.6782   -2.9709 O   0  0  0  0  0  0  0  0  0  0  0  0
   -5.3491   -1.1169   -2.2339 C   0  0  0  0  0  0  0  0  0  0  0  0
   -5.3223   -0.2211   -2.8750 H   0  0  0  0  0  0  0  0  0  0  0  0
   -6.1322   -1.7605   -2.6658 H   0  0  0  0  0  0  0  0  0  0  0  0
   -5.7568   -0.7715   -1.2704 H   0  0  0  0  0  0  0  0  0  0  0  0
   -3.2124   -1.3578   -1.1289 N   0  0  0  0  0  0  0  0  0  0  0  0
   -1.8971   -1.8843   -0.8752 C   0  0  2  0  0  0  0  0  0  0  0  0
   -1.2676   -1.0599    0.2399 C   0  0  0  0  0  0  0  0  0  0  0  0
   -1.6270    0.0833    0.5138 O   0  0  0  0  0  0  0  0  0  0  0  0
   -1.0364   -1.8506   -2.1285 C   0  0  0  0  0  0  0  0  0  0  0  0
   -3.5631   -0.6202   -0.5206 H   0  0  0  0  0  0  0  0  0  0  0  0
   -2.0301   -2.9174   -0.5360 H   0  0  0  0  0  0  0  0  0  0  0  0
   -0.8921   -0.8236   -2.4833 H   0  0  0  0  0  0  0  0  0  0  0  0
   -0.0457   -2.2777   -1.9410 H   0  0  0  0  0  0  0  0  0  0  0  0
   -1.5052   -2.4193   -2.9387 H   0  0  0  0  0  0  0  0  0  0  0  0
   -0.2267   -1.7335    0.8672 N   0  0  0  0  0  0  0  0  0  0  0  0
    0.5363   -1.1590    1.9465 C   0  0  2  0  0  0  0  0  0  0  0  0
    1.7919   -2.0075    2.1116 C   0  0  0  0  0  0  0  0  0  0  0  0
    1.7598   -3.2153    2.3382 O   0  0  0  0  0  0  0  0  0  0  0  0
   -0.2609   -1.1218    3.2483 C   0  0  0  0  0  0  0  0  0  0  0  0
   -1.4451   -0.1478    3.2950 C   0  0  0  0  0  0  0  0  0  0  0  0
   -1.3038    0.8723    2.5599 O   0  5  0  0  0  0  0  0  0  0  0  0
   -2.4044   -0.4602    4.0520 O   0  0  0  0  0  0  0  0  0  0  0  0
   -0.0113   -2.6869    0.5854 H   0  0  0  0  0  0  0  0  0  0  0  0
    0.8224   -0.1502    1.6282 H   0  0  0  0  0  0  0  0  0  0  0  0
    0.4088   -0.8789    4.0846 H   0  0  0  0  0  0  0  0  0  0  0  0
   -0.6713   -2.1180    3.4588 H   0  0  0  0  0  0  0  0  0  0  0  0
    2.9505   -1.2666    1.9243 N   0  0  0  0  0  0  0  0  0  0  0  0
    4.2708   -1.8479    1.9971 C   0  0  2  0  0  0  0  0  0  0  0  0
    5.2270   -0.7803    2.5121 C   0  0  0  0  0  0  0  0  0  0  0  0
    4.9982    0.4242    2.4235 O   0  0  0  0  0  0  0  0  0  0  0  0
    4.7201   -2.3720    0.6420 C   0  0  0  0  0  0  0  0  0  0  0  0
    2.8804   -0.2801    1.6927 H   0  0  0  0  0  0  0  0  0  0  0  0
    4.2155   -2.6690    2.7202 H   0  0  0  0  0  0  0  0  0  0  0  0
    4.7814   -1.5636   -0.0957 H   0  0  0  0  0  0  0  0  0  0  0  0
    5.7090   -2.8379    0.7048 H   0  0  0  0  0  0  0  0  0  0  0  0
    4.0153   -3.1182    0.2595 H   0  0  0  0  0  0  0  0  0  0  0  0
    6.3855   -1.3297    3.0434 N   0  0  0  0  0  0  0  0  0  0  0  0
    7.4535   -0.5227    3.5857 C   0  0  0  0  0  0  0  0  0  0  0  0
    6.4823   -2.3396    3.0934 H   0  0  0  0  0  0  0  0  0  0  0  0
    8.1950   -0.3183    2.7993 H   0  0  0  0  0  0  0  0  0  0  0  0
    7.0424    0.4274    3.9577 H   0  0  0  0  0  0  0  0  0  0  0  0
    7.9366   -1.0623    4.4136 H   0  0  0  0  0  0  0  0  0  0  0  0
  1  3  1  0  0  0  0
  1  7  1  0  0  0  0
  1  2  2  0  0  0  0
 30 31  1  0  0  0  0
 31 39  1  0  0  0  0
 31 32  2  0  0  0  0
  8  9  1  0  0  0  0
  9 17  1  0  0  0  0
  9 10  2  0  0  0  0
 18 19  1  0  0  0  0
 19 29  1  0  0  0  0
 19 20  2  0  0  0  0
 21 22  1  0  0  0  0
 22 23  1  0  0  0  0
 22 24  2  0  0  0  0
 30 33  1  0  0  0  0
  8 11  1  0  0  0  0
 39 40  1  0  0  0  0
 18 21  1  0  0  0  0
 29 30  1  0  0  0  0
  7  8  1  0  0  0  0
 17 18  1  0  0  0  0
  3  4  1  0  0  0  0
  3  5  1  0  0  0  0
  3  6  1  0  0  0  0
 33 36  1  0  0  0  0
 33 37  1  0  0  0  0
 33 38  1  0  0  0  0
 11 14  1  0  0  0  0
 11 15  1  0  0  0  0
 11 16  1  0  0  0  0
 40 42  1  0  0  0  0
 40 43  1  0  0  0  0
 40 44  1  0  0  0  0
 21 27  1  0  0  0  0
 21 28  1  0  0  0  0
 30 35  1  0  0  0  0
  8 13  1  0  0  0  0
 18 26  1  0  0  0  0
 39 41  1  0  0  0  0
  7 12  1  0  0  0  0
 29 34  1  0  0  0  0
 17 25  1  0  0  0  0
M  CHG  1  23  -1
M  END
$$$$

  -OEChem-05262214473D

 44 43  0     1  0  0  0  0  0999 V2000
   -4.0256   -1.8030   -2.1581 C   0  0  0  0  0  0  0  0  0  0  0  0
   -3.7513   -2.6782   -2.9709 O   0  0  0  0  0  0  0  0  0  0  0  0
   -5.3491   -1.1169   -2.2339 C   0  0  0  0  0  0  0  0  0  0  0  0
   -5.3223   -0.2211   -2.8750 H   0  0  0  0  0  0  0  0  0  0  0  0
   -6.1322   -1.7605   -2.6658 H   0  0  0  0  0  0  0  0  0  0  0  0
   -5.7568   -0.7715   -1.2704 H   0  0  0  0  0  0  0  0  0  0  0  0
   -3.2124   -1.3578   -1.1289 N   0  0  0  0  0  0  0  0  0  0  0  0
   -1.8971   -1.8843   -0.8752 C   0  0  2  0  0  0  0  0  0  0  0  0
   -1.2676   -1.0599    0.2399 C   0  0  0  0  0  0  0  0  0  0  0  0
   -1.6270    0.0833    0.5138 O   0  0  0  0  0  0  0  0  0  0  0  0
   -1.0364   -1.8506   -2.1285 C   0  0  0  0  0  0  0  0  0  0  0  0
   -3.5631   -0.6202   -0.5206 H   0  0  0  0  0  0  0  0  0  0  0  0
   -2.0301   -2.9174   -0.5360 H   0  0  0  0  0  0  0  0  0  0  0  0
   -0.8921   -0.8236   -2.4833 H   0  0  0  0  0  0  0  0  0  0  0  0
   -0.0457   -2.2777   -1.9410 H   0  0  0  0  0  0  0  0  0  0  0  0
   -1.5052   -2.4193   -2.9387 H   0  0  0  0  0  0  0  0  0  0  0  0
   -0.2267   -1.7335    0.8672 N   0  0  0  0  0  0  0  0  0  0  0  0
    0.5363   -1.1590    1.9465 C   0  0  2  0  0  0  0  0  0  0  0  0
    1.7919   -2.0075    2.1116 C   0  0  0  0  0  0  0  0  0  0  0  0
    1.7809   -3.2361    2.0708 O   0  0  0  0  0  0  0  0  0  0  0  0
   -0.2609   -1.1218    3.2483 C   0  0  0  0  0  0  0  0  0  0  0  0
   -1.4451   -0.1478    3.2950 C   0  0  0  0  0  0  0  0  0  0  0  0
   -1.3038    0.8723    2.5599 O   0  5  0  0  0  0  0  0  0  0  0  0
   -2.4044   -0.4602    4.0520 O   0  0  0  0  0  0  0  0  0  0  0  0
   -0.0113   -2.6869    0.5854 H   0  0  0  0  0  0  0  0  0  0  0  0
    0.8224   -0.1502    1.6282 H   0  0  0  0  0  0  0  0  0  0  0  0
    0.4088   -0.8789    4.0846 H   0  0  0  0  0  0  0  0  0  0  0  0
   -0.6713   -2.1180    3.4588 H   0  0  0  0  0  0  0  0  0  0  0  0
    2.9319   -1.2294    2.2575 N   0  0  0  0  0  0  0  0  0  0  0  0
    4.2528   -1.7963    2.3993 C   0  0  2  0  0  0  0  0  0  0  0  0
    5.0793   -0.8527    3.2630 C   0  0  0  0  0  0  0  0  0  0  0  0
    4.8129    0.3397    3.3981 O   0  0  0  0  0  0  0  0  0  0  0  0
    4.9111   -2.0108    1.0453 C   0  0  0  0  0  0  0  0  0  0  0  0
    2.8521   -0.2171    2.2317 H   0  0  0  0  0  0  0  0  0  0  0  0
    4.1320   -2.7543    2.9165 H   0  0  0  0  0  0  0  0  0  0  0  0
    5.0405   -1.0618    0.5121 H   0  0  0  0  0  0  0  0  0  0  0  0
    5.9008   -2.4669    1.1530 H   0  0  0  0  0  0  0  0  0  0  0  0
    4.3006   -2.6658    0.4144 H   0  0  0  0  0  0  0  0  0  0  0  0
    6.1742   -1.4891    3.8308 N   0  0  0  0  0  0  0  0  0  0  0  0
    7.1188   -0.8046    4.6824 C   0  0  0  0  0  0  0  0  0  0  0  0
    6.3069   -2.4848    3.6802 H   0  0  0  0  0  0  0  0  0  0  0  0
    7.9541   -0.4265    4.0747 H   0  0  0  0  0  0  0  0  0  0  0  0
    6.6182    0.0379    5.1820 H   0  0  0  0  0  0  0  0  0  0  0  0
    7.5033   -1.5038    5.4395 H   0  0  0  0  0  0  0  0  0  0  0  0
  1  3  1  0  0  0  0
  1  7  1  0  0  0  0
  1  2  2  0  0  0  0
 30 31  1  0  0  0  0
 31 39  1  0  0  0  0
 31 32  2  0  0  0  0
  8  9  1  0  0  0  0
  9 17  1  0  0  0  0
  9 10  2  0  0  0  0
 18 19  1  0  0  0  0
 19 29  1  0  0  0  0
 19 20  2  0  0  0  0
 21 22  1  0  0  0  0
 22 23  1  0  0  0  0
 22 24  2  0  0  0  0
 30 33  1  0  0  0  0
  8 11  1  0  0  0  0
 39 40  1  0  0  0  0
 18 21  1  0  0  0  0
 29 30  1  0  0  0  0
  7  8  1  0  0  0  0
 17 18  1  0  0  0  0
  3  4  1  0  0  0  0
  3  5  1  0  0  0  0
  3  6  1  0  0  0  0
 33 36  1  0  0  0  0
 33 37  1  0  0  0  0
 33 38  1  0  0  0  0
 11 14  1  0  0  0  0
 11 15  1  0  0  0  0
 11 16  1  0  0  0  0
 40 42  1  0  0  0  0
 40 43  1  0  0  0  0
 40 44  1  0  0  0  0
 21 27  1  0  0  0  0
 21 28  1  0  0  0  0
 30 35  1  0  0  0  0
  8 13  1  0  0  0  0
 18 26  1  0  0  0  0
 39 41  1  0  0  0  0
  7 12  1  0  0  0  0
 29 34  1  0  0  0  0
 17 25  1  0  0  0  0
M  CHG  1  23  -1
M  END
$$$$

  -OEChem-05262214473D

 44 43  0     1  0  0  0  0  0999 V2000
   -4.0256   -1.8030   -2.1581 C   0  0  0  0  0  0  0  0  0  0  0  0
   -3.7513   -2.6782   -2.9709 O   0  0  0  0  0  0  0  0  0  0  0  0
   -5.3491   -1.1169   -2.2339 C   0  0  0  0  0  0  0  0  0  0  0  0
   -5.3223   -0.2211   -2.8750 H   0  0  0  0  0  0  0  0  0  0  0  0
   -6.1322   -1.7605   -2.6658 H   0  0  0  0  0  0  0  0  0  0  0  0
   -5.7568   -0.7715   -1.2704 H   0  0  0  0  0  0  0  0  0  0  0  0
   -3.2124   -1.3578   -1.1289 N   0  0  0  0  0  0  0  0  0  0  0  0
   -1.8971   -1.8843   -0.8752 C   0  0  2  0  0  0  0  0  0  0  0  0
   -1.2676   -1.0599    0.2399 C   0  0  0  0  0  0  0  0  0  0  0  0
   -1.6270    0.0833    0.5138 O   0  0  0  0  0  0  0  0  0  0  0  0
   -1.0364   -1.8506   -2.1285 C   0  0  0  0  0  0  0  0  0  0  0  0
   -3.5631   -0.6202   -0.5206 H   0  0  0  0  0  0  0  0  0  0  0  0
   -2.0301   -2.9174   -0.5360 H   0  0  0  0  0  0  0  0  0  0  0  0
   -0.8921   -0.8236   -2.4833 H   0  0  0  0  0  0  0  0  0  0  0  0
   -0.0457   -2.2777   -1.9410 H   0  0  0  0  0  0  0  0  0  0  0  0
   -1.5052   -2.4193   -2.9387 H   0  0  0  0  0  0  0  0  0  0  0  0
   -0.2267   -1.7335    0.8672 N   0  0  0  0  0  0  0  0  0  0  0  0
    0.5363   -1.1590    1.9465 C   0  0  2  0  0  0  0  0  0  0  0  0
    1.7919   -2.0075    2.1116 C   0  0  0  0  0  0  0  0  0  0  0  0
    1.8404   -3.1985    1.8112 O   0  0  0  0  0  0  0  0  0  0  0  0
   -0.2609   -1.1218    3.2483 C   0  0  0  0  0  0  0  0  0  0  0  0
   -1.4451   -0.1478    3.2950 C   0  0  0  0  0  0  0  0  0  0  0  0
   -1.3038    0.8723    2.5599 O   0  5  0  0  0  0  0  0  0  0  0  0
   -2.4044   -0.4602    4.0520 O   0  0  0  0  0  0  0  0  0  0  0  0
   -0.0113   -2.6869    0.5854 H   0  0  0  0  0  0  0  0  0  0  0  0
    0.8224   -0.1502    1.6282 H   0  0  0  0  0  0  0  0  0  0  0  0
    0.4088   -0.8789    4.0846 H   0  0  0  0  0  0  0  0  0  0  0  0
   -0.6713   -2.1180    3.4588 H   0  0  0  0  0  0  0  0  0  0  0  0
    2.8648   -1.2649    2.5845 N   0  0  0  0  0  0  0  0  0  0  0  0
    4.1761   -1.8326    2.7962 C   0  0  2  0  0  0  0  0  0  0  0  0
    4.8305   -1.0869    3.9516 C   0  0  0  0  0  0  0  0  0  0  0  0
    4.4959    0.0451    4.2947 O   0  0  0  0  0  0  0  0  0  0  0  0
    5.0275   -1.7425    1.5393 C   0  0  0  0  0  0  0  0  0  0  0  0
    2.7454   -0.2718    2.7616 H   0  0  0  0  0  0  0  0  0  0  0  0
    4.0254   -2.8810    3.0759 H   0  0  0  0  0  0  0  0  0  0  0  0
    5.1892   -0.6995    1.2435 H   0  0  0  0  0  0  0  0  0  0  0  0
    6.0110   -2.1988    1.6927 H   0  0  0  0  0  0  0  0  0  0  0  0
    4.5412   -2.2539    0.7016 H   0  0  0  0  0  0  0  0  0  0  0  0
    5.8611   -1.8170    4.5270 N   0  0  0  0  0  0  0  0  0  0  0  0
    6.6454   -1.3201    5.6333 C   0  0  0  0  0  0  0  0  0  0  0  0
    6.0571   -2.7552    4.1907 H   0  0  0  0  0  0  0  0  0  0  0  0
    7.5407   -0.8097    5.2488 H   0  0  0  0  0  0  0  0  0  0  0  0
    6.0431   -0.6111    6.2204 H   0  0  0  0  0  0  0  0  0  0  0  0
    6.9495   -2.1610    6.2739 H   0  0  0  0  0  0  0  0  0  0  0  0
  1  3  1  0  0  0  0
  1  7  1  0  0  0  0
  1  2  2  0  0  0  0
 30 31  1  0  0  0  0
 31 39  1  0  0  0  0
 31 32  2  0  0  0  0
  8  9  1  0  0  0  0
  9 17  1  0  0  0  0
  9 10  2  0  0  0  0
 18 19  1  0  0  0  0
 19 29  1  0  0  0  0
 19 20  2  0  0  0  0
 21 22  1  0  0  0  0
 22 23  1  0  0  0  0
 22 24  2  0  0  0  0
 30 33  1  0  0  0  0
  8 11  1  0  0  0  0
 39 40  1  0  0  0  0
 18 21  1  0  0  0  0
 29 30  1  0  0  0  0
  7  8  1  0  0  0  0
 17 18  1  0  0  0  0
  3  4  1  0  0  0  0
  3  5  1  0  0  0  0
  3  6  1  0  0  0  0
 33 36  1  0  0  0  0
 33 37  1  0  0  0  0
 33 38  1  0  0  0  0
 11 14  1  0  0  0  0
 11 15  1  0  0  0  0
 11 16  1  0  0  0  0
 40 42  1  0  0  0  0
 40 43  1  0  0  0  0
 40 44  1  0  0  0  0
 21 27  1  0  0  0  0
 21 28  1  0  0  0  0
 30 35  1  0  0  0  0
  8 13  1  0  0  0  0
 18 26  1  0  0  0  0
 39 41  1  0  0  0  0
  7 12  1  0  0  0  0
 29 34  1  0  0  0  0
 17 25  1  0  0  0  0
M  CHG  1  23  -1
M  END
$$$$

  -OEChem-05262214473D

 44 43  0     1  0  0  0  0  0999 V2000
   -4.0256   -1.8030   -2.1581 C   0  0  0  0  0  0  0  0  0  0  0  0
   -3.7513   -2.6782   -2.9709 O   0  0  0  0  0  0  0  0  0  0  0  0
   -5.3491   -1.1169   -2.2339 C   0  0  0  0  0  0  0  0  0  0  0  0
   -5.3223   -0.2211   -2.8750 H   0  0  0  0  0  0  0  0  0  0  0  0
   -6.1322   -1.7605   -2.6658 H   0  0  0  0  0  0  0  0  0  0  0  0
   -5.7568   -0.7715   -1.2704 H   0  0  0  0  0  0  0  0  0  0  0  0
   -3.2124   -1.3578   -1.1289 N   0  0  0  0  0  0  0  0  0  0  0  0
   -1.8971   -1.8843   -0.8752 C   0  0  2  0  0  0  0  0  0  0  0  0
   -1.2676   -1.0599    0.2399 C   0  0  0  0  0  0  0  0  0  0  0  0
   -1.6270    0.0833    0.5138 O   0  0  0  0  0  0  0  0  0  0  0  0
   -1.0364   -1.8506   -2.1285 C   0  0  0  0  0  0  0  0  0  0  0  0
   -3.5631   -0.6202   -0.5206 H   0  0  0  0  0  0  0  0  0  0  0  0
   -2.0301   -2.9174   -0.5360 H   0  0  0  0  0  0  0  0  0  0  0  0
   -0.8921   -0.8236   -2.4833 H   0  0  0  0  0  0  0  0  0  0  0  0
   -0.0457   -2.2777   -1.9410 H   0  0  0  0  0  0  0  0  0  0  0  0
   -1.5052   -2.4193   -2.9387 H   0  0  0  0  0  0  0  0  0  0  0  0
   -0.2267   -1.7335    0.8672 N   0  0  0  0  0  0  0  0  0  0  0  0
    0.5363   -1.1590    1.9465 C   0  0  2  0  0  0  0  0  0  0  0  0
    1.7919   -2.0075    2.1116 C   0  0  0  0  0  0  0  0  0  0  0  0
    1.9343   -3.1053    1.5770 O   0  0  0  0  0  0  0  0  0  0  0  0
   -0.2609   -1.1218    3.2483 C   0  0  0  0  0  0  0  0  0  0  0  0
   -1.4451   -0.1478    3.2950 C   0  0  0  0  0  0  0  0  0  0  0  0
   -1.3038    0.8723    2.5599 O   0  5  0  0  0  0  0  0  0  0  0  0
   -2.4044   -0.4602    4.0520 O   0  0  0  0  0  0  0  0  0  0  0  0
   -0.0113   -2.6869    0.5854 H   0  0  0  0  0  0  0  0  0  0  0  0
    0.8224   -0.1502    1.6282 H   0  0  0  0  0  0  0  0  0  0  0  0
    0.4088   -0.8789    4.0846 H   0  0  0  0  0  0  0  0  0  0  0  0
   -0.6713   -2.1180    3.4588 H   0  0  0  0  0  0  0  0  0  0  0  0
    2.7540   -1.3709    2.8832 N   0  0  0  0  0  0  0  0  0  0  0  0
    4.0458   -1.9545    3.1607 C   0  0  2  0  0  0  0  0  0  0  0  0
    4.4976   -1.4669    4.5310 C   0  0  0  0  0  0  0  0  0  0  0  0
    4.0688   -0.4395    5.0523 O   0  0  0  0  0  0  0  0  0  0  0  0
    5.0612   -1.5853    2.0905 C   0  0  0  0  0  0  0  0  0  0  0  0
    2.5675   -0.4407    3.2464 H   0  0  0  0  0  0  0  0  0  0  0  0
    3.9031   -3.0403    3.1876 H   0  0  0  0  0  0  0  0  0  0  0  0
    5.2173   -0.5012    2.0486 H   0  0  0  0  0  0  0  0  0  0  0  0
    6.0322   -2.0518    2.2871 H   0  0  0  0  0  0  0  0  0  0  0  0
    4.7206   -1.9105    1.1015 H   0  0  0  0  0  0  0  0  0  0  0  0
    5.4676   -2.2908    5.0844 N   0  0  0  0  0  0  0  0  0  0  0  0
    6.0655   -2.0340    6.3738 C   0  0  0  0  0  0  0  0  0  0  0  0
    5.7498   -3.1322    4.5902 H   0  0  0  0  0  0  0  0  0  0  0  0
    6.9831   -1.4418    6.2417 H   0  0  0  0  0  0  0  0  0  0  0  0
    5.3561   -1.4756    7.0022 H   0  0  0  0  0  0  0  0  0  0  0  0
    6.3127   -2.9893    6.8600 H   0  0  0  0  0  0  0  0  0  0  0  0
  1  3  1  0  0  0  0
  1  7  1  0  0  0  0
  1  2  2  0  0  0  0
 30 31  1  0  0  0  0
 31 39  1  0  0  0  0
 31 32  2  0  0  0  0
  8  9  1  0  0  0  0
  9 17  1  0  0  0  0
  9 10  2  0  0  0  0
 18 19  1  0  0  0  0
 19 29  1  0  0  0  0
 19 20  2  0  0  0  0
 21 22  1  0  0  0  0
 22 23  1  0  0  0  0
 22 24  2  0  0  0  0
 30 33  1  0  0  0  0
  8 11  1  0  0  0  0
 39 40  1  0  0  0  0
 18 21  1  0  0  0  0
 29 30  1  0  0  0  0
  7  8  1  0  0  0  0
 17 18  1  0  0  0  0
  3  4  1  0  0  0  0
  3  5  1  0  0  0  0
  3  6  1  0  0  0  0
 33 36  1  0  0  0  0
 33 37  1  0  0  0  0
 33 38  1  0  0  0  0
 11 14  1  0  0  0  0
 11 15  1  0  0  0  0
 11 16  1  0  0  0  0
 40 42  1  0  0  0  0
 40 43  1  0  0  0  0
 40 44  1  0  0  0  0
 21 27  1  0  0  0  0
 21 28  1  0  0  0  0
 30 35  1  0  0  0  0
  8 13  1  0  0  0  0
 18 26  1  0  0  0  0
 39 41  1  0  0  0  0
  7 12  1  0  0  0  0
 29 34  1  0  0  0  0
 17 25  1  0  0  0  0
M  CHG  1  23  -1
M  END
$$$$

  -OEChem-05262214473D

 44 43  0     1  0  0  0  0  0999 V2000
   -4.0256   -1.8030   -2.1581 C   0  0  0  0  0  0  0  0  0  0  0  0
   -3.7513   -2.6782   -2.9709 O   0  0  0  0  0  0  0  0  0  0  0  0
   -5.3491   -1.1169   -2.2339 C   0  0  0  0  0  0  0  0  0  0  0  0
   -5.3223   -0.2211   -2.8750 H   0  0  0  0  0  0  0  0  0  0  0  0
   -6.1322   -1.7605   -2.6658 H   0  0  0  0  0  0  0  0  0  0  0  0
   -5.7568   -0.7715   -1.2704 H   0  0  0  0  0  0  0  0  0  0  0  0
   -3.2124   -1.3578   -1.1289 N   0  0  0  0  0  0  0  0  0  0  0  0
   -1.8971   -1.8843   -0.8752 C   0  0  2  0  0  0  0  0  0  0  0  0
   -1.2676   -1.0599    0.2399 C   0  0  0  0  0  0  0  0  0  0  0  0
   -1.6270    0.0833    0.5138 O   0  0  0  0  0  0  0  0  0  0  0  0
   -1.0364   -1.8506   -2.1285 C   0  0  0  0  0  0  0  0  0  0  0  0
   -3.5631   -0.6202   -0.5206 H   0  0  0  0  0  0  0  0  0  0  0  0
   -2.0301   -2.9174   -0.5360 H   0  0  0  0  0  0  0  0  0  0  0  0
   -0.8921   -0.8236   -2.4833 H   0  0  0  0  0  0  0  0  0  0  0  0
   -0.0457   -2.2777   -1.9410 H   0  0  0  0  0  0  0  0  0  0  0  0
   -1.5052   -2.4193   -2.9387 H   0  0  0  0  0  0  0  0  0  0  0  0
   -0.2267   -1.7335    0.8672 N   0  0  0  0  0  0  0  0  0  0  0  0
    0.5363   -1.1590    1.9465 C   0  0  2  0  0  0  0  0  0  0  0  0
    1.9387   -1.7517    1.8717 C   0  0  0  0  0  0  0  0  0  0  0  0
    2.2898   -2.5341    0.9908 O   0  0  0  0  0  0  0  0  0  0  0  0
   -0.0964   -1.4482    3.3058 C   0  0  0  0  0  0  0  0  0  0  0  0
   -1.4279   -0.7461    3.6013 C   0  0  0  0  0  0  0  0  0  0  0  0
   -1.5662    0.3664    3.0147 O   0  5  0  0  0  0  0  0  0  0  0  0
   -2.2171   -1.3384    4.3870 O   0  0  0  0  0  0  0  0  0  0  0  0
   -0.0113   -2.6869    0.5854 H   0  0  0  0  0  0  0  0  0  0  0  0
    0.5900   -0.0812    1.7558 H   0  0  0  0  0  0  0  0  0  0  0  0
    0.6092   -1.1837    4.1053 H   0  0  0  0  0  0  0  0  0  0  0  0
   -0.2862   -2.5251    3.4033 H   0  0  0  0  0  0  0  0  0  0  0  0
    2.7656   -1.2634    2.8737 N   0  0  0  0  0  0  0  0  0  0  0  0
    4.1522   -1.6478    3.0000 C   0  0  2  0  0  0  0  0  0  0  0  0
    4.5182   -1.6091    4.4778 C   0  0  0  0  0  0  0  0  0  0  0  0
    3.9006   -0.9412    5.3046 O   0  0  0  0  0  0  0  0  0  0  0  0
    5.0566   -0.7303    2.1918 C   0  0  0  0  0  0  0  0  0  0  0  0
    2.4024   -0.5808    3.5324 H   0  0  0  0  0  0  0  0  0  0  0  0
    4.2302   -2.6761    2.6306 H   0  0  0  0  0  0  0  0  0  0  0  0
    4.9919    0.3045    2.5474 H   0  0  0  0  0  0  0  0  0  0  0  0
    6.1042   -1.0403    2.2657 H   0  0  0  0  0  0  0  0  0  0  0  0
    4.7729   -0.7366    1.1339 H   0  0  0  0  0  0  0  0  0  0  0  0
    5.6420   -2.3740    4.7574 N   0  0  0  0  0  0  0  0  0  0  0  0
    6.1962   -2.4888    6.0862 C   0  0  0  0  0  0  0  0  0  0  0  0
    6.0793   -2.9100    4.0136 H   0  0  0  0  0  0  0  0  0  0  0  0
    6.9744   -1.7242    6.2268 H   0  0  0  0  0  0  0  0  0  0  0  0
    5.3990   -2.3416    6.8297 H   0  0  0  0  0  0  0  0  0  0  0  0
    6.6370   -3.4884    6.2144 H   0  0  0  0  0  0  0  0  0  0  0  0
  1  3  1  0  0  0  0
  1  7  1  0  0  0  0
  1  2  2  0  0  0  0
 30 31  1  0  0  0  0
 31 39  1  0  0  0  0
 31 32  2  0  0  0  0
  8  9  1  0  0  0  0
  9 17  1  0  0  0  0
  9 10  2  0  0  0  0
 18 19  1  0  0  0  0
 19 29  1  0  0  0  0
 19 20  2  0  0  0  0
 21 22  1  0  0  0  0
 22 23  1  0  0  0  0
 22 24  2  0  0  0  0
 30 33  1  0  0  0  0
  8 11  1  0  0  0  0
 39 40  1  0  0  0  0
 18 21  1  0  0  0  0
 29 30  1  0  0  0  0
  7  8  1  0  0  0  0
 17 18  1  0  0  0  0
  3  4  1  0  0  0  0
  3  5  1  0  0  0  0
  3  6  1  0  0  0  0
 33 36  1  0  0  0  0
 33 37  1  0  0  0  0
 33 38  1  0  0  0  0
 11 14  1  0  0  0  0
 11 15  1  0  0  0  0
 11 16  1  0  0  0  0
 40 42  1  0  0  0  0
 40 43  1  0  0  0  0
 40 44  1  0  0  0  0
 21 27  1  0  0  0  0
 21 28  1  0  0  0  0
 30 35  1  0  0  0  0
  8 13  1  0  0  0  0
 18 26  1  0  0  0  0
 39 41  1  0  0  0  0
  7 12  1  0  0  0  0
 29 34  1  0  0  0  0
 17 25  1  0  0  0  0
M  CHG  1  23  -1
M  END
$$$$

  -OEChem-05262214473D

 44 43  0     1  0  0  0  0  0999 V2000
   -4.0256   -1.8030   -2.1581 C   0  0  0  0  0  0  0  0  0  0  0  0
   -3.7513   -2.6782   -2.9709 O   0  0  0  0  0  0  0  0  0  0  0  0
   -5.3491   -1.1169   -2.2339 C   0  0  0  0  0  0  0  0  0  0  0  0
   -5.3223   -0.2211   -2.8750 H   0  0  0  0  0  0  0  0  0  0  0  0
   -6.1322   -1.7605   -2.6658 H   0  0  0  0  0  0  0  0  0  0  0  0
   -5.7568   -0.7715   -1.2704 H   0  0  0  0  0  0  0  0  0  0  0  0
   -3.2124   -1.3578   -1.1289 N   0  0  0  0  0  0  0  0  0  0  0  0
   -1.8971   -1.8843   -0.8752 C   0  0  2  0  0  0  0  0  0  0  0  0
   -1.2676   -1.0599    0.2399 C   0  0  0  0  0  0  0  0  0  0  0  0
   -1.6270    0.0833    0.5138 O   0  0  0  0  0  0  0  0  0  0  0  0
   -1.0364   -1.8506   -2.1285 C   0  0  0  0  0  0  0  0  0  0  0  0
   -3.5631   -0.6202   -0.5206 H   0  0  0  0  0  0  0  0  0  0  0  0
   -2.0301   -2.9174   -0.5360 H   0  0  0  0  0  0  0  0  0  0  0  0
   -0.8921   -0.8236   -2.4833 H   0  0  0  0  0  0  0  0  0  0  0  0
   -0.0457   -2.2777   -1.9410 H   0  0  0  0  0  0  0  0  0  0  0  0
   -1.5052   -2.4193   -2.9387 H   0  0  0  0  0  0  0  0  0  0  0  0
   -0.2267   -1.7335    0.8672 N   0  0  0  0  0  0  0  0  0  0  0  0
    0.5363   -1.1590    1.9465 C   0  0  2  0  0  0  0  0  0  0  0  0
    1.9387   -1.7517    1.8717 C   0  0  0  0  0  0  0  0  0  0  0  0
    2.3775   -2.3111    0.8688 O   0  0  0  0  0  0  0  0  0  0  0  0
   -0.0964   -1.4482    3.3058 C   0  0  0  0  0  0  0  0  0  0  0  0
   -1.4279   -0.7461    3.6013 C   0  0  0  0  0  0  0  0  0  0  0  0
   -1.5662    0.3664    3.0147 O   0  5  0  0  0  0  0  0  0  0  0  0
   -2.2171   -1.3384    4.3870 O   0  0  0  0  0  0  0  0  0  0  0  0
   -0.0113   -2.6869    0.5854 H   0  0  0  0  0  0  0  0  0  0  0  0
    0.5900   -0.0812    1.7558 H   0  0  0  0  0  0  0  0  0  0  0  0
    0.6092   -1.1837    4.1053 H   0  0  0  0  0  0  0  0  0  0  0  0
   -0.2862   -2.5251    3.4033 H   0  0  0  0  0  0  0  0  0  0  0  0
    2.6592   -1.5360    3.0382 N   0  0  0  0  0  0  0  0  0  0  0  0
    4.0254   -1.9738    3.2058 C   0  0  2  0  0  0  0  0  0  0  0  0
    4.2385   -2.2963    4.6789 C   0  0  0  0  0  0  0  0  0  0  0  0
    3.5400   -1.8287    5.5758 O   0  0  0  0  0  0  0  0  0  0  0  0
    5.0081   -0.9135    2.7338 C   0  0  0  0  0  0  0  0  0  0  0  0
    2.2308   -1.0206    3.8015 H   0  0  0  0  0  0  0  0  0  0  0  0
    4.1402   -2.8867    2.6112 H   0  0  0  0  0  0  0  0  0  0  0  0
    4.9079    0.0086    3.3179 H   0  0  0  0  0  0  0  0  0  0  0  0
    6.0425   -1.2581    2.8349 H   0  0  0  0  0  0  0  0  0  0  0  0
    4.8339   -0.6613    1.6822 H   0  0  0  0  0  0  0  0  0  0  0  0
    5.3274   -3.1335    4.8777 N   0  0  0  0  0  0  0  0  0  0  0  0
    5.7429   -3.5743    6.1888 C   0  0  0  0  0  0  0  0  0  0  0  0
    5.8382   -3.4882    4.0745 H   0  0  0  0  0  0  0  0  0  0  0  0
    6.5031   -2.8846    6.5843 H   0  0  0  0  0  0  0  0  0  0  0  0
    4.8741   -3.5880    6.8633 H   0  0  0  0  0  0  0  0  0  0  0  0
    6.1678   -4.5864    6.1176 H   0  0  0  0  0  0  0  0  0  0  0  0
  1  3  1  0  0  0  0
  1  7  1  0  0  0  0
  1  2  2  0  0  0  0
 30 31  1  0  0  0  0
 31 39  1  0  0  0  0
 31 32  2  0  0  0  0
  8  9  1  0  0  0  0
  9 17  1  0  0  0  0
  9 10  2  0  0  0  0
 18 19  1  0  0  0  0
 19 29  1  0  0  0  0
 19 20  2  0  0  0  0
 21 22  1  0  0  0  0
 22 23  1  0  0  0  0
 22 24  2  0  0  0  0
 30 33  1  0  0  0  0
  8 11  1  0  0  0  0
 39 40  1  0  0  0  0
 18 21  1  0  0  0  0
 29 30  1  0  0  0  0
  7  8  1  0  0  0  0
 17 18  1  0  0  0  0
  3  4  1  0  0  0  0
  3  5  1  0  0  0  0
  3  6  1  0  0  0  0
 33 36  1  0  0  0  0
 33 37  1  0  0  0  0
 33 38  1  0  0  0  0
 11 14  1  0  0  0  0
 11 15  1  0  0  0  0
 11 16  1  0  0  0  0
 40 42  1  0  0  0  0
 40 43  1  0  0  0  0
 40 44  1  0  0  0  0
 21 27  1  0  0  0  0
 21 28  1  0  0  0  0
 30 35  1  0  0  0  0
  8 13  1  0  0  0  0
 18 26  1  0  0  0  0
 39 41  1  0  0  0  0
  7 12  1  0  0  0  0
 29 34  1  0  0  0  0
 17 25  1  0  0  0  0
M  CHG  1  23  -1
M  END
$$$$

  -OEChem-05262214473D

 44 43  0     1  0  0  0  0  0999 V2000
   -4.0256   -1.8030   -2.1581 C   0  0  0  0  0  0  0  0  0  0  0  0
   -3.7513   -2.6782   -2.9709 O   0  0  0  0  0  0  0  0  0  0  0  0
   -5.3491   -1.1169   -2.2339 C   0  0  0  0  0  0  0  0  0  0  0  0
   -5.3223   -0.2211   -2.8750 H   0  0  0  0  0  0  0  0  0  0  0  0
   -6.1322   -1.7605   -2.6658 H   0  0  0  0  0  0  0  0  0  0  0  0
   -5.7568   -0.7715   -1.2704 H   0  0  0  0  0  0  0  0  0  0  0  0
   -3.2124   -1.3578   -1.1289 N   0  0  0  0  0  0  0  0  0  0  0  0
   -1.8971   -1.8843   -0.8752 C   0  0  2  0  0  0  0  0  0  0  0  0
   -1.2676   -1.0599    0.2399 C   0  0  0  0  0  0  0  0  0  0  0  0
   -1.6270    0.0833    0.5138 O   0  0  0  0  0  0  0  0  0  0  0  0
   -1.0364   -1.8506   -2.1285 C   0  0  0  0  0  0  0  0  0  0  0  0
   -3.5631   -0.6202   -0.5206 H   0  0  0  0  0  0  0  0  0  0  0  0
   -2.0301   -2.9174   -0.5360 H   0  0  0  0  0  0  0  0  0  0  0  0
   -0.8921   -0.8236   -2.4833 H   0  0  0  0  0  0  0  0  0  0  0  0
   -0.0457   -2.2777   -1.9410 H   0  0  0  0  0  0  0  0  0  0  0  0
   -1.5052   -2.4193   -2.9387 H   0  0  0  0  0  0  0  0  0  0  0  0
   -0.2267   -1.7335    0.8672 N   0  0  0  0  0  0  0  0  0  0  0  0
    0.5363   -1.1590    1.9465 C   0  0  2  0  0  0  0  0  0  0  0  0
    1.9387   -1.7517    1.8717 C   0  0  0  0  0  0  0  0  0  0  0  0
    2.4774   -2.0676    0.8128 O   0  0  0  0  0  0  0  0  0  0  0  0
   -0.0964   -1.4482    3.3058 C   0  0  0  0  0  0  0  0  0  0  0  0
   -1.4279   -0.7461    3.6013 C   0  0  0  0  0  0  0  0  0  0  0  0
   -1.5662    0.3664    3.0147 O   0  5  0  0  0  0  0  0  0  0  0  0
   -2.2171   -1.3384    4.3870 O   0  0  0  0  0  0  0  0  0  0  0  0
   -0.0113   -2.6869    0.5854 H   0  0  0  0  0  0  0  0  0  0  0  0
    0.5900   -0.0812    1.7558 H   0  0  0  0  0  0  0  0  0  0  0  0
    0.6092   -1.1837    4.1053 H   0  0  0  0  0  0  0  0  0  0  0  0
   -0.2862   -2.5251    3.4033 H   0  0  0  0  0  0  0  0  0  0  0  0
    2.5363   -1.8372    3.1214 N   0  0  0  0  0  0  0  0  0  0  0  0
    3.8781   -2.3361    3.3142 C   0  0  2  0  0  0  0  0  0  0  0  0
    3.9394   -3.0044    4.6814 C   0  0  0  0  0  0  0  0  0  0  0  0
    3.1531   -2.7459    5.5902 O   0  0  0  0  0  0  0  0  0  0  0  0
    4.9044   -1.2189    3.2088 C   0  0  0  0  0  0  0  0  0  0  0  0
    2.0325   -1.5072    3.9394 H   0  0  0  0  0  0  0  0  0  0  0  0
    4.0525   -3.0842    2.5332 H   0  0  0  0  0  0  0  0  0  0  0  0
    4.7455   -0.4597    3.9833 H   0  0  0  0  0  0  0  0  0  0  0  0
    5.9229   -1.6033    3.3267 H   0  0  0  0  0  0  0  0  0  0  0  0
    4.8387   -0.7199    2.2359 H   0  0  0  0  0  0  0  0  0  0  0  0
    5.0019   -3.8917    4.7814 N   0  0  0  0  0  0  0  0  0  0  0  0
    5.2810   -4.6414    5.9838 C   0  0  0  0  0  0  0  0  0  0  0  0
    5.5918   -4.0581    3.9714 H   0  0  0  0  0  0  0  0  0  0  0  0
    5.9971   -4.0845    6.6059 H   0  0  0  0  0  0  0  0  0  0  0  0
    4.3478   -4.7933    6.5460 H   0  0  0  0  0  0  0  0  0  0  0  0
    5.7104   -5.6180    5.7155 H   0  0  0  0  0  0  0  0  0  0  0  0
  1  3  1  0  0  0  0
  1  7  1  0  0  0  0
  1  2  2  0  0  0  0
 30 31  1  0  0  0  0
 31 39  1  0  0  0  0
 31 32  2  0  0  0  0
  8  9  1  0  0  0  0
  9 17  1  0  0  0  0
  9 10  2  0  0  0  0
 18 19  1  0  0  0  0
 19 29  1  0  0  0  0
 19 20  2  0  0  0  0
 21 22  1  0  0  0  0
 22 23  1  0  0  0  0
 22 24  2  0  0  0  0
 30 33  1  0  0  0  0
  8 11  1  0  0  0  0
 39 40  1  0  0  0  0
 18 21  1  0  0  0  0
 29 30  1  0  0  0  0
  7  8  1  0  0  0  0
 17 18  1  0  0  0  0
  3  4  1  0  0  0  0
  3  5  1  0  0  0  0
  3  6  1  0  0  0  0
 33 36  1  0  0  0  0
 33 37  1  0  0  0  0
 33 38  1  0  0  0  0
 11 14  1  0  0  0  0
 11 15  1  0  0  0  0
 11 16  1  0  0  0  0
 40 42  1  0  0  0  0
 40 43  1  0  0  0  0
 40 44  1  0  0  0  0
 21 27  1  0  0  0  0
 21 28  1  0  0  0  0
 30 35  1  0  0  0  0
  8 13  1  0  0  0  0
 18 26  1  0  0  0  0
 39 41  1  0  0  0  0
  7 12  1  0  0  0  0
 29 34  1  0  0  0  0
 17 25  1  0  0  0  0
M  CHG  1  23  -1
M  END
$$$$

  -OEChem-05262214473D

 44 43  0     1  0  0  0  0  0999 V2000
   -4.0256   -1.8030   -2.1581 C   0  0  0  0  0  0  0  0  0  0  0  0
   -3.7513   -2.6782   -2.9709 O   0  0  0  0  0  0  0  0  0  0  0  0
   -5.3491   -1.1169   -2.2339 C   0  0  0  0  0  0  0  0  0  0  0  0
   -5.3223   -0.2211   -2.8750 H   0  0  0  0  0  0  0  0  0  0  0  0
   -6.1322   -1.7605   -2.6658 H   0  0  0  0  0  0  0  0  0  0  0  0
   -5.7568   -0.7715   -1.2704 H   0  0  0  0  0  0  0  0  0  0  0  0
   -3.2124   -1.3578   -1.1289 N   0  0  0  0  0  0  0  0  0  0  0  0
   -1.8971   -1.8843   -0.8752 C   0  0  2  0  0  0  0  0  0  0  0  0
   -1.2676   -1.0599    0.2399 C   0  0  0  0  0  0  0  0  0  0  0  0
   -1.6270    0.0833    0.5138 O   0  0  0  0  0  0  0  0  0  0  0  0
   -1.0364   -1.8506   -2.1285 C   0  0  0  0  0  0  0  0  0  0  0  0
   -3.5631   -0.6202   -0.5206 H   0  0  0  0  0  0  0  0  0  0  0  0
   -2.0301   -2.9174   -0.5360 H   0  0  0  0  0  0  0  0  0  0  0  0
   -0.8921   -0.8236   -2.4833 H   0  0  0  0  0  0  0  0  0  0  0  0
   -0.0457   -2.2777   -1.9410 H   0  0  0  0  0  0  0  0  0  0  0  0
   -1.5052   -2.4193   -2.9387 H   0  0  0  0  0  0  0  0  0  0  0  0
   -0.2267   -1.7335    0.8672 N   0  0  0  0  0  0  0  0  0  0  0  0
    0.5363   -1.1590    1.9465 C   0  0  2  0  0  0  0  0  0  0  0  0
    1.9387   -1.7517    1.8717 C   0  0  0  0  0  0  0  0  0  0  0  0
    2.5826   -1.8205    0.8267 O   0  0  0  0  0  0  0  0  0  0  0  0
   -0.0964   -1.4482    3.3058 C   0  0  0  0  0  0  0  0  0  0  0  0
   -1.4279   -0.7461    3.6013 C   0  0  0  0  0  0  0  0  0  0  0  0
   -1.5662    0.3664    3.0147 O   0  5  0  0  0  0  0  0  0  0  0  0
   -2.2171   -1.3384    4.3870 O   0  0  0  0  0  0  0  0  0  0  0  0
   -0.0113   -2.6869    0.5854 H   0  0  0  0  0  0  0  0  0  0  0  0
    0.5900   -0.0812    1.7558 H   0  0  0  0  0  0  0  0  0  0  0  0
    0.6092   -1.1837    4.1053 H   0  0  0  0  0  0  0  0  0  0  0  0
   -0.2862   -2.5251    3.4033 H   0  0  0  0  0  0  0  0  0  0  0  0
    2.4055   -2.1464    3.1177 N   0  0  0  0  0  0  0  0  0  0  0  0
    3.7202   -2.7101    3.3178 C   0  0  2  0  0  0  0  0  0  0  0  0
    3.6412   -3.6852    4.4850 C   0  0  0  0  0  0  0  0  0  0  0  0
    2.7663   -3.6304    5.3468 O   0  0  0  0  0  0  0  0  0  0  0  0
    4.7525   -1.6256    3.5844 C   0  0  0  0  0  0  0  0  0  0  0  0
    1.8209   -2.0077    3.9368 H   0  0  0  0  0  0  0  0  0  0  0  0
    3.9732   -3.2554    2.4020 H   0  0  0  0  0  0  0  0  0  0  0  0
    4.5157   -1.0684    4.4981 H   0  0  0  0  0  0  0  0  0  0  0  0
    5.7534   -2.0523    3.7075 H   0  0  0  0  0  0  0  0  0  0  0  0
    4.7869   -0.9084    2.7572 H   0  0  0  0  0  0  0  0  0  0  0  0
    4.6875   -4.5970    4.4750 N   0  0  0  0  0  0  0  0  0  0  0  0
    4.8419   -5.6176    5.4853 C   0  0  0  0  0  0  0  0  0  0  0  0
    5.3570   -4.5810    3.7113 H   0  0  0  0  0  0  0  0  0  0  0  0
    5.4910   -5.2423    6.2901 H   0  0  0  0  0  0  0  0  0  0  0  0
    3.8560   -5.8753    5.8996 H   0  0  0  0  0  0  0  0  0  0  0  0
    5.2960   -6.5128    5.0355 H   0  0  0  0  0  0  0  0  0  0  0  0
  1  3  1  0  0  0  0
  1  7  1  0  0  0  0
  1  2  2  0  0  0  0
 30 31  1  0  0  0  0
 31 39  1  0  0  0  0
 31 32  2  0  0  0  0
  8  9  1  0  0  0  0
  9 17  1  0  0  0  0
  9 10  2  0  0  0  0
 18 19  1  0  0  0  0
 19 29  1  0  0  0  0
 19 20  2  0  0  0  0
 21 22  1  0  0  0  0
 22 23  1  0  0  0  0
 22 24  2  0  0  0  0
 30 33  1  0  0  0  0
  8 11  1  0  0  0  0
 39 40  1  0  0  0  0
 18 21  1  0  0  0  0
 29 30  1  0  0  0  0
  7  8  1  0  0  0  0
 17 18  1  0  0  0  0
  3  4  1  0  0  0  0
  3  5  1  0  0  0  0
  3  6  1  0  0  0  0
 33 36  1  0  0  0  0
 33 37  1  0  0  0  0
 33 38  1  0  0  0  0
 11 14  1  0  0  0  0
 11 15  1  0  0  0  0
 11 16  1  0  0  0  0
 40 42  1  0  0  0  0
 40 43  1  0  0  0  0
 40 44  1  0  0  0  0
 21 27  1  0  0  0  0
 21 28  1  0  0  0  0
 30 35  1  0  0  0  0
  8 13  1  0  0  0  0
 18 26  1  0  0  0  0
 39 41  1  0  0  0  0
  7 12  1  0  0  0  0
 29 34  1  0  0  0  0
 17 25  1  0  0  0  0
M  CHG  1  23  -1
M  END
$$$$

  -OEChem-05262214473D

 44 43  0     1  0  0  0  0  0999 V2000
   -4.0256   -1.8030   -2.1581 C   0  0  0  0  0  0  0  0  0  0  0  0
   -3.7513   -2.6782   -2.9709 O   0  0  0  0  0  0  0  0  0  0  0  0
   -5.3491   -1.1169   -2.2339 C   0  0  0  0  0  0  0  0  0  0  0  0
   -5.3223   -0.2211   -2.8750 H   0  0  0  0  0  0  0  0  0  0  0  0
   -6.1322   -1.7605   -2.6658 H   0  0  0  0  0  0  0  0  0  0  0  0
   -5.7568   -0.7715   -1.2704 H   0  0  0  0  0  0  0  0  0  0  0  0
   -3.2124   -1.3578   -1.1289 N   0  0  0  0  0  0  0  0  0  0  0  0
   -1.8971   -1.8843   -0.8752 C   0  0  2  0  0  0  0  0  0  0  0  0
   -1.2676   -1.0599    0.2399 C   0  0  0  0  0  0  0  0  0  0  0  0
   -1.6270    0.0833    0.5138 O   0  0  0  0  0  0  0  0  0  0  0  0
   -1.0364   -1.8506   -2.1285 C   0  0  0  0  0  0  0  0  0  0  0  0
   -3.5631   -0.6202   -0.5206 H   0  0  0  0  0  0  0  0  0  0  0  0
   -2.0301   -2.9174   -0.5360 H   0  0  0  0  0  0  0  0  0  0  0  0
   -0.8921   -0.8236   -2.4833 H   0  0  0  0  0  0  0  0  0  0  0  0
   -0.0457   -2.2777   -1.9410 H   0  0  0  0  0  0  0  0  0  0  0  0
   -1.5052   -2.4193   -2.9387 H   0  0  0  0  0  0  0  0  0  0  0  0
   -0.2267   -1.7335    0.8672 N   0  0  0  0  0  0  0  0  0  0  0  0
    0.5363   -1.1590    1.9465 C   0  0  2  0  0  0  0  0  0  0  0  0
    1.9387   -1.7517    1.8717 C   0  0  0  0  0  0  0  0  0  0  0  0
    2.6860   -1.5864    0.9096 O   0  0  0  0  0  0  0  0  0  0  0  0
   -0.0964   -1.4482    3.3058 C   0  0  0  0  0  0  0  0  0  0  0  0
   -1.4279   -0.7461    3.6013 C   0  0  0  0  0  0  0  0  0  0  0  0
   -1.5662    0.3664    3.0147 O   0  5  0  0  0  0  0  0  0  0  0  0
   -2.2171   -1.3384    4.3870 O   0  0  0  0  0  0  0  0  0  0  0  0
   -0.0113   -2.6869    0.5854 H   0  0  0  0  0  0  0  0  0  0  0  0
    0.5900   -0.0812    1.7558 H   0  0  0  0  0  0  0  0  0  0  0  0
    0.6092   -1.1837    4.1053 H   0  0  0  0  0  0  0  0  0  0  0  0
   -0.2862   -2.5251    3.4033 H   0  0  0  0  0  0  0  0  0  0  0  0
    2.2755   -2.4425    3.0274 N   0  0  0  0  0  0  0  0  0  0  0  0
    3.5627   -3.0701    3.2163 C   0  0  2  0  0  0  0  0  0  0  0  0
    3.3643   -4.2922    4.1032 C   0  0  0  0  0  0  0  0  0  0  0  0
    2.4060   -4.4219    4.8621 O   0  0  0  0  0  0  0  0  0  0  0  0
    4.5629   -2.1060    3.8351 C   0  0  0  0  0  0  0  0  0  0  0  0
    1.6104   -2.4877    3.7938 H   0  0  0  0  0  0  0  0  0  0  0  0
    3.9076   -3.3885    2.2266 H   0  0  0  0  0  0  0  0  0  0  0  0
    4.2343   -1.7760    4.8274 H   0  0  0  0  0  0  0  0  0  0  0  0
    5.5458   -2.5745    3.9513 H   0  0  0  0  0  0  0  0  0  0  0  0
    4.6819   -1.2140    3.2107 H   0  0  0  0  0  0  0  0  0  0  0  0
    4.4056   -5.2013    3.9796 N   0  0  0  0  0  0  0  0  0  0  0  0
    4.4555   -6.4361    4.7271 C   0  0  0  0  0  0  0  0  0  0  0  0
    5.1497   -5.0211    3.3120 H   0  0  0  0  0  0  0  0  0  0  0  0
    5.0192   -6.2790    5.6585 H   0  0  0  0  0  0  0  0  0  0  0  0
    3.4323   -6.7602    4.9681 H   0  0  0  0  0  0  0  0  0  0  0  0
    4.9527   -7.2100    4.1238 H   0  0  0  0  0  0  0  0  0  0  0  0
  1  3  1  0  0  0  0
  1  7  1  0  0  0  0
  1  2  2  0  0  0  0
 30 31  1  0  0  0  0
 31 39  1  0  0  0  0
 31 32  2  0  0  0  0
  8  9  1  0  0  0  0
  9 17  1  0  0  0  0
  9 10  2  0  0  0  0
 18 19  1  0  0  0  0
 19 29  1  0  0  0  0
 19 20  2  0  0  0  0
 21 22  1  0  0  0  0
 22 23  1  0  0  0  0
 22 24  2  0  0  0  0
 30 33  1  0  0  0  0
  8 11  1  0  0  0  0
 39 40  1  0  0  0  0
 18 21  1  0  0  0  0
 29 30  1  0  0  0  0
  7  8  1  0  0  0  0
 17 18  1  0  0  0  0
  3  4  1  0  0  0  0
  3  5  1  0  0  0  0
  3  6  1  0  0  0  0
 33 36  1  0  0  0  0
 33 37  1  0  0  0  0
 33 38  1  0  0  0  0
 11 14  1  0  0  0  0
 11 15  1  0  0  0  0
 11 16  1  0  0  0  0
 40 42  1  0  0  0  0
 40 43  1  0  0  0  0
 40 44  1  0  0  0  0
 21 27  1  0  0  0  0
 21 28  1  0  0  0  0
 30 35  1  0  0  0  0
  8 13  1  0  0  0  0
 18 26  1  0  0  0  0
 39 41  1  0  0  0  0
  7 12  1  0  0  0  0
 29 34  1  0  0  0  0
 17 25  1  0  0  0  0
M  CHG  1  23  -1
M  END
$$$$

  -OEChem-05262214473D

 44 43  0     1  0  0  0  0  0999 V2000
   -4.0256   -1.8030   -2.1581 C   0  0  0  0  0  0  0  0  0  0  0  0
   -3.7513   -2.6782   -2.9709 O   0  0  0  0  0  0  0  0  0  0  0  0
   -5.3491   -1.1169   -2.2339 C   0  0  0  0  0  0  0  0  0  0  0  0
   -5.3223   -0.2211   -2.8750 H   0  0  0  0  0  0  0  0  0  0  0  0
   -6.1322   -1.7605   -2.6658 H   0  0  0  0  0  0  0  0  0  0  0  0
   -5.7568   -0.7715   -1.2704 H   0  0  0  0  0  0  0  0  0  0  0  0
   -3.2124   -1.3578   -1.1289 N   0  0  0  0  0  0  0  0  0  0  0  0
   -1.8971   -1.8843   -0.8752 C   0  0  2  0  0  0  0  0  0  0  0  0
   -1.2676   -1.0599    0.2399 C   0  0  0  0  0  0  0  0  0  0  0  0
   -1.6270    0.0833    0.5138 O   0  0  0  0  0  0  0  0  0  0  0  0
   -1.0364   -1.8506   -2.1285 C   0  0  0  0  0  0  0  0  0  0  0  0
   -3.5631   -0.6202   -0.5206 H   0  0  0  0  0  0  0  0  0  0  0  0
   -2.0301   -2.9174   -0.5360 H   0  0  0  0  0  0  0  0  0  0  0  0
   -0.8921   -0.8236   -2.4833 H   0  0  0  0  0  0  0  0  0  0  0  0
   -0.0457   -2.2777   -1.9410 H   0  0  0  0  0  0  0  0  0  0  0  0
   -1.5052   -2.4193   -2.9387 H   0  0  0  0  0  0  0  0  0  0  0  0
   -0.2267   -1.7335    0.8672 N   0  0  0  0  0  0  0  0  0  0  0  0
    0.5363   -1.1590    1.9465 C   0  0  2  0  0  0  0  0  0  0  0  0
    1.9387   -1.7517    1.8717 C   0  0  0  0  0  0  0  0  0  0  0  0
    2.7804   -1.3813    1.0558 O   0  0  0  0  0  0  0  0  0  0  0  0
   -0.0964   -1.4482    3.3058 C   0  0  0  0  0  0  0  0  0  0  0  0
   -1.4279   -0.7461    3.6013 C   0  0  0  0  0  0  0  0  0  0  0  0
   -1.5662    0.3664    3.0147 O   0  5  0  0  0  0  0  0  0  0  0  0
   -2.2171   -1.3384    4.3870 O   0  0  0  0  0  0  0  0  0  0  0  0
   -0.0113   -2.6869    0.5854 H   0  0  0  0  0  0  0  0  0  0  0  0
    0.5900   -0.0812    1.7558 H   0  0  0  0  0  0  0  0  0  0  0  0
    0.6092   -1.1837    4.1053 H   0  0  0  0  0  0  0  0  0  0  0  0
   -0.2862   -2.5251    3.4033 H   0  0  0  0  0  0  0  0  0  0  0  0
    2.1553   -2.7053    2.8566 N   0  0  0  0  0  0  0  0  0  0  0  0
    3.4161   -3.3917    3.0168 C   0  0  2  0  0  0  0  0  0  0  0  0
    3.1275   -4.7841    3.5621 C   0  0  0  0  0  0  0  0  0  0  0  0
    2.0966   -5.0664    4.1692 O   0  0  0  0  0  0  0  0  0  0  0  0
    4.3483   -2.6273    3.9438 C   0  0  0  0  0  0  0  0  0  0  0  0
    1.4153   -2.9147    3.5202 H   0  0  0  0  0  0  0  0  0  0  0  0
    3.8602   -3.4745    2.0188 H   0  0  0  0  0  0  0  0  0  0  0  0
    3.9203   -2.5343    4.9486 H   0  0  0  0  0  0  0  0  0  0  0  0
    5.3140   -3.1343    4.0416 H   0  0  0  0  0  0  0  0  0  0  0  0
    4.5310   -1.6158    3.5654 H   0  0  0  0  0  0  0  0  0  0  0  0
    4.1756   -5.6635    3.3287 N   0  0  0  0  0  0  0  0  0  0  0  0
    4.1481   -7.0414    3.7609 C   0  0  0  0  0  0  0  0  0  0  0  0
    4.9840   -5.3485    2.8006 H   0  0  0  0  0  0  0  0  0  0  0  0
    4.6138   -7.1240    4.7541 H   0  0  0  0  0  0  0  0  0  0  0  0
    3.1055   -7.3879    3.8150 H   0  0  0  0  0  0  0  0  0  0  0  0
    4.7040   -7.6620    3.0427 H   0  0  0  0  0  0  0  0  0  0  0  0
  1  3  1  0  0  0  0
  1  7  1  0  0  0  0
  1  2  2  0  0  0  0
 30 31  1  0  0  0  0
 31 39  1  0  0  0  0
 31 32  2  0  0  0  0
  8  9  1  0  0  0  0
  9 17  1  0  0  0  0
  9 10  2  0  0  0  0
 18 19  1  0  0  0  0
 19 29  1  0  0  0  0
 19 20  2  0  0  0  0
 21 22  1  0  0  0  0
 22 23  1  0  0  0  0
 22 24  2  0  0  0  0
 30 33  1  0  0  0  0
  8 11  1  0  0  0  0
 39 40  1  0  0  0  0
 18 21  1  0  0  0  0
 29 30  1  0  0  0  0
  7  8  1  0  0  0  0
 17 18  1  0  0  0  0
  3  4  1  0  0  0  0
  3  5  1  0  0  0  0
  3  6  1  0  0  0  0
 33 36  1  0  0  0  0
 33 37  1  0  0  0  0
 33 38  1  0  0  0  0
 11 14  1  0  0  0  0
 11 15  1  0  0  0  0
 11 16  1  0  0  0  0
 40 42  1  0  0  0  0
 40 43  1  0  0  0  0
 40 44  1  0  0  0  0
 21 27  1  0  0  0  0
 21 28  1  0  0  0  0
 30 35  1  0  0  0  0
  8 13  1  0  0  0  0
 18 26  1  0  0  0  0
 39 41  1  0  0  0  0
  7 12  1  0  0  0  0
 29 34  1  0  0  0  0
 17 25  1  0  0  0  0
M  CHG  1  23  -1
M  END
$$$$

  -OEChem-05262214473D

 44 43  0     1  0  0  0  0  0999 V2000
   -4.0256   -1.8030   -2.1581 C   0  0  0  0  0  0  0  0  0  0  0  0
   -3.7513   -2.6782   -2.9709 O   0  0  0  0  0  0  0  0  0  0  0  0
   -5.3491   -1.1169   -2.2339 C   0  0  0  0  0  0  0  0  0  0  0  0
   -5.3223   -0.2211   -2.8750 H   0  0  0  0  0  0  0  0  0  0  0  0
   -6.1322   -1.7605   -2.6658 H   0  0  0  0  0  0  0  0  0  0  0  0
   -5.7568   -0.7715   -1.2704 H   0  0  0  0  0  0  0  0  0  0  0  0
   -3.2124   -1.3578   -1.1289 N   0  0  0  0  0  0  0  0  0  0  0  0
   -1.8971   -1.8843   -0.8752 C   0  0  2  0  0  0  0  0  0  0  0  0
   -1.2676   -1.0599    0.2399 C   0  0  0  0  0  0  0  0  0  0  0  0
   -1.6270    0.0833    0.5138 O   0  0  0  0  0  0  0  0  0  0  0  0
   -1.0364   -1.8506   -2.1285 C   0  0  0  0  0  0  0  0  0  0  0  0
   -3.5631   -0.6202   -0.5206 H   0  0  0  0  0  0  0  0  0  0  0  0
   -2.0301   -2.9174   -0.5360 H   0  0  0  0  0  0  0  0  0  0  0  0
   -0.8921   -0.8236   -2.4833 H   0  0  0  0  0  0  0  0  0  0  0  0
   -0.0457   -2.2777   -1.9410 H   0  0  0  0  0  0  0  0  0  0  0  0
   -1.5052   -2.4193   -2.9387 H   0  0  0  0  0  0  0  0  0  0  0  0
   -0.2267   -1.7335    0.8672 N   0  0  0  0  0  0  0  0  0  0  0  0
    0.5363   -1.1590    1.9465 C   0  0  2  0  0  0  0  0  0  0  0  0
    1.9387   -1.7517    1.8717 C   0  0  0  0  0  0  0  0  0  0  0  0
    2.8596   -1.2192    1.2554 O   0  0  0  0  0  0  0  0  0  0  0  0
   -0.0964   -1.4482    3.3058 C   0  0  0  0  0  0  0  0  0  0  0  0
   -1.4279   -0.7461    3.6013 C   0  0  0  0  0  0  0  0  0  0  0  0
   -1.5662    0.3664    3.0147 O   0  5  0  0  0  0  0  0  0  0  0  0
   -2.2171   -1.3384    4.3870 O   0  0  0  0  0  0  0  0  0  0  0  0
   -0.0113   -2.6869    0.5854 H   0  0  0  0  0  0  0  0  0  0  0  0
    0.5900   -0.0812    1.7558 H   0  0  0  0  0  0  0  0  0  0  0  0
    0.6092   -1.1837    4.1053 H   0  0  0  0  0  0  0  0  0  0  0  0
   -0.2862   -2.5251    3.4033 H   0  0  0  0  0  0  0  0  0  0  0  0
    2.0531   -2.9170    2.6168 N   0  0  0  0  0  0  0  0  0  0  0  0
    3.2905   -3.6530    2.7327 C   0  0  2  0  0  0  0  0  0  0  0  0
    2.9470   -5.1274    2.8984 C   0  0  0  0  0  0  0  0  0  0  0  0
    1.8593   -5.5201    3.3153 O   0  0  0  0  0  0  0  0  0  0  0  0
    4.1236   -3.1541    3.9031 C   0  0  0  0  0  0  0  0  0  0  0  0
    1.2491   -3.2595    3.1346 H   0  0  0  0  0  0  0  0  0  0  0  0
    3.8342   -3.5074    1.7929 H   0  0  0  0  0  0  0  0  0  0  0  0
    3.5951   -3.2916    4.8535 H   0  0  0  0  0  0  0  0  0  0  0  0
    5.0739   -3.6936    3.9722 H   0  0  0  0  0  0  0  0  0  0  0  0
    4.3445   -2.0865    3.7972 H   0  0  0  0  0  0  0  0  0  0  0  0
    4.0130   -5.9521    2.5668 N   0  0  0  0  0  0  0  0  0  0  0  0
    3.9408   -7.3920    2.6527 C   0  0  0  0  0  0  0  0  0  0  0  0
    4.8713   -5.5408    2.2120 H   0  0  0  0  0  0  0  0  0  0  0  0
    4.3025   -7.7196    3.6385 H   0  0  0  0  0  0  0  0  0  0  0  0
    2.8980   -7.7154    2.5188 H   0  0  0  0  0  0  0  0  0  0  0  0
    4.5668   -7.8379    1.8657 H   0  0  0  0  0  0  0  0  0  0  0  0
  1  3  1  0  0  0  0
  1  7  1  0  0  0  0
  1  2  2  0  0  0  0
 30 31  1  0  0  0  0
 31 39  1  0  0  0  0
 31 32  2  0  0  0  0
  8  9  1  0  0  0  0
  9 17  1  0  0  0  0
  9 10  2  0  0  0  0
 18 19  1  0  0  0  0
 19 29  1  0  0  0  0
 19 20  2  0  0  0  0
 21 22  1  0  0  0  0
 22 23  1  0  0  0  0
 22 24  2  0  0  0  0
 30 33  1  0  0  0  0
  8 11  1  0  0  0  0
 39 40  1  0  0  0  0
 18 21  1  0  0  0  0
 29 30  1  0  0  0  0
  7  8  1  0  0  0  0
 17 18  1  0  0  0  0
  3  4  1  0  0  0  0
  3  5  1  0  0  0  0
  3  6  1  0  0  0  0
 33 36  1  0  0  0  0
 33 37  1  0  0  0  0
 33 38  1  0  0  0  0
 11 14  1  0  0  0  0
 11 15  1  0  0  0  0
 11 16  1  0  0  0  0
 40 42  1  0  0  0  0
 40 43  1  0  0  0  0
 40 44  1  0  0  0  0
 21 27  1  0  0  0  0
 21 28  1  0  0  0  0
 30 35  1  0  0  0  0
  8 13  1  0  0  0  0
 18 26  1  0  0  0  0
 39 41  1  0  0  0  0
  7 12  1  0  0  0  0
 29 34  1  0  0  0  0
 17 25  1  0  0  0  0
M  CHG  1  23  -1
M  END
$$$$

  -OEChem-05262214473D

 44 43  0     1  0  0  0  0  0999 V2000
   -4.0256   -1.8030   -2.1581 C   0  0  0  0  0  0  0  0  0  0  0  0
   -3.7513   -2.6782   -2.9709 O   0  0  0  0  0  0  0  0  0  0  0  0
   -5.3491   -1.1169   -2.2339 C   0  0  0  0  0  0  0  0  0  0  0  0
   -5.3223   -0.2211   -2.8750 H   0  0  0  0  0  0  0  0  0  0  0  0
   -6.1322   -1.7605   -2.6658 H   0  0  0  0  0  0  0  0  0  0  0  0
   -5.7568   -0.7715   -1.2704 H   0  0  0  0  0  0  0  0  0  0  0  0
   -3.2124   -1.3578   -1.1289 N   0  0  0  0  0  0  0  0  0  0  0  0
   -1.8971   -1.8843   -0.8752 C   0  0  2  0  0  0  0  0  0  0  0  0
   -1.2676   -1.0599    0.2399 C   0  0  0  0  0  0  0  0  0  0  0  0
   -1.6270    0.0833    0.5138 O   0  0  0  0  0  0  0  0  0  0  0  0
   -1.0364   -1.8506   -2.1285 C   0  0  0  0  0  0  0  0  0  0  0  0
   -3.5631   -0.6202   -0.5206 H   0  0  0  0  0  0  0  0  0  0  0  0
   -2.0301   -2.9174   -0.5360 H   0  0  0  0  0  0  0  0  0  0  0  0
   -0.8921   -0.8236   -2.4833 H   0  0  0  0  0  0  0  0  0  0  0  0
   -0.0457   -2.2777   -1.9410 H   0  0  0  0  0  0  0  0  0  0  0  0
   -1.5052   -2.4193   -2.9387 H   0  0  0  0  0  0  0  0  0  0  0  0
   -0.2267   -1.7335    0.8672 N   0  0  0  0  0  0  0  0  0  0  0  0
    0.5363   -1.1590    1.9465 C   0  0  2  0  0  0  0  0  0  0  0  0
    1.9387   -1.7517    1.8717 C   0  0  0  0  0  0  0  0  0  0  0  0
    2.9180   -1.1112    1.4948 O   0  0  0  0  0  0  0  0  0  0  0  0
   -0.0964   -1.4482    3.3058 C   0  0  0  0  0  0  0  0  0  0  0  0
   -1.4279   -0.7461    3.6013 C   0  0  0  0  0  0  0  0  0  0  0  0
   -1.5662    0.3664    3.0147 O   0  5  0  0  0  0  0  0  0  0  0  0
   -2.2171   -1.3384    4.3870 O   0  0  0  0  0  0  0  0  0  0  0  0
   -0.0113   -2.6869    0.5854 H   0  0  0  0  0  0  0  0  0  0  0  0
    0.5900   -0.0812    1.7558 H   0  0  0  0  0  0  0  0  0  0  0  0
    0.6092   -1.1837    4.1053 H   0  0  0  0  0  0  0  0  0  0  0  0
   -0.2862   -2.5251    3.4033 H   0  0  0  0  0  0  0  0  0  0  0  0
    1.9757   -3.0631    2.3246 N   0  0  0  0  0  0  0  0  0  0  0  0
    3.1945   -3.8361    2.3834 C   0  0  2  0  0  0  0  0  0  0  0  0
    2.8351   -5.2987    2.1574 C   0  0  0  0  0  0  0  0  0  0  0  0
    1.7103   -5.7519    2.3586 O   0  0  0  0  0  0  0  0  0  0  0  0
    3.9039   -3.6503    3.7157 C   0  0  0  0  0  0  0  0  0  0  0  0
    1.1229   -3.4986    2.6633 H   0  0  0  0  0  0  0  0  0  0  0  0
    3.8314   -3.4851    1.5642 H   0  0  0  0  0  0  0  0  0  0  0  0
    3.2810   -3.9964    4.5486 H   0  0  0  0  0  0  0  0  0  0  0  0
    4.8419   -4.2143    3.7478 H   0  0  0  0  0  0  0  0  0  0  0  0
    4.1350   -2.5939    3.8902 H   0  0  0  0  0  0  0  0  0  0  0  0
    3.9289   -6.0473    1.7458 N   0  0  0  0  0  0  0  0  0  0  0  0
    3.8476   -7.4642    1.4778 C   0  0  0  0  0  0  0  0  0  0  0  0
    4.8193   -5.5851    1.5863 H   0  0  0  0  0  0  0  0  0  0  0  0
    4.1066   -8.0254    2.3877 H   0  0  0  0  0  0  0  0  0  0  0  0
    2.8238   -7.7204    1.1680 H   0  0  0  0  0  0  0  0  0  0  0  0
    4.5506   -7.7259    0.6732 H   0  0  0  0  0  0  0  0  0  0  0  0
  1  3  1  0  0  0  0
  1  7  1  0  0  0  0
  1  2  2  0  0  0  0
 30 31  1  0  0  0  0
 31 39  1  0  0  0  0
 31 32  2  0  0  0  0
  8  9  1  0  0  0  0
  9 17  1  0  0  0  0
  9 10  2  0  0  0  0
 18 19  1  0  0  0  0
 19 29  1  0  0  0  0
 19 20  2  0  0  0  0
 21 22  1  0  0  0  0
 22 23  1  0  0  0  0
 22 24  2  0  0  0  0
 30 33  1  0  0  0  0
  8 11  1  0  0  0  0
 39 40  1  0  0  0  0
 18 21  1  0  0  0  0
 29 30  1  0  0  0  0
  7  8  1  0  0  0  0
 17 18  1  0  0  0  0
  3  4  1  0  0  0  0
  3  5  1  0  0  0  0
  3  6  1  0  0  0  0
 33 36  1  0  0  0  0
 33 37  1  0  0  0  0
 33 38  1  0  0  0  0
 11 14  1  0  0  0  0
 11 15  1  0  0  0  0
 11 16  1  0  0  0  0
 40 42  1  0  0  0  0
 40 43  1  0  0  0  0
 40 44  1  0  0  0  0
 21 27  1  0  0  0  0
 21 28  1  0  0  0  0
 30 35  1  0  0  0  0
  8 13  1  0  0  0  0
 18 26  1  0  0  0  0
 39 41  1  0  0  0  0
  7 12  1  0  0  0  0
 29 34  1  0  0  0  0
 17 25  1  0  0  0  0
M  CHG  1  23  -1
M  END
$$$$

  -OEChem-05262214473D

 44 43  0     1  0  0  0  0  0999 V2000
   -4.0256   -1.8030   -2.1581 C   0  0  0  0  0  0  0  0  0  0  0  0
   -3.7513   -2.6782   -2.9709 O   0  0  0  0  0  0  0  0  0  0  0  0
   -5.3491   -1.1169   -2.2339 C   0  0  0  0  0  0  0  0  0  0  0  0
   -5.3223   -0.2211   -2.8750 H   0  0  0  0  0  0  0  0  0  0  0  0
   -6.1322   -1.7605   -2.6658 H   0  0  0  0  0  0  0  0  0  0  0  0
   -5.7568   -0.7715   -1.2704 H   0  0  0  0  0  0  0  0  0  0  0  0
   -3.2124   -1.3578   -1.1289 N   0  0  0  0  0  0  0  0  0  0  0  0
   -1.8971   -1.8843   -0.8752 C   0  0  2  0  0  0  0  0  0  0  0  0
   -1.2676   -1.0599    0.2399 C   0  0  0  0  0  0  0  0  0  0  0  0
   -1.6270    0.0833    0.5138 O   0  0  0  0  0  0  0  0  0  0  0  0
   -1.0364   -1.8506   -2.1285 C   0  0  0  0  0  0  0  0  0  0  0  0
   -3.5631   -0.6202   -0.5206 H   0  0  0  0  0  0  0  0  0  0  0  0
   -2.0301   -2.9174   -0.5360 H   0  0  0  0  0  0  0  0  0  0  0  0
   -0.8921   -0.8236   -2.4833 H   0  0  0  0  0  0  0  0  0  0  0  0
   -0.0457   -2.2777   -1.9410 H   0  0  0  0  0  0  0  0  0  0  0  0
   -1.5052   -2.4193   -2.9387 H   0  0  0  0  0  0  0  0  0  0  0  0
   -0.2267   -1.7335    0.8672 N   0  0  0  0  0  0  0  0  0  0  0  0
    0.5363   -1.1590    1.9465 C   0  0  2  0  0  0  0  0  0  0  0  0
    1.9387   -1.7517    1.8717 C   0  0  0  0  0  0  0  0  0  0  0  0
    2.9517   -1.0646    1.7575 O   0  0  0  0  0  0  0  0  0  0  0  0
   -0.0964   -1.4482    3.3058 C   0  0  0  0  0  0  0  0  0  0  0  0
   -1.4279   -0.7461    3.6013 C   0  0  0  0  0  0  0  0  0  0  0  0
   -1.5662    0.3664    3.0147 O   0  5  0  0  0  0  0  0  0  0  0  0
   -2.2171   -1.3384    4.3870 O   0  0  0  0  0  0  0  0  0  0  0  0
   -0.0113   -2.6869    0.5854 H   0  0  0  0  0  0  0  0  0  0  0  0
    0.5900   -0.0812    1.7558 H   0  0  0  0  0  0  0  0  0  0  0  0
    0.6092   -1.1837    4.1053 H   0  0  0  0  0  0  0  0  0  0  0  0
   -0.2862   -2.5251    3.4033 H   0  0  0  0  0  0  0  0  0  0  0  0
    1.9286   -3.1337    1.9998 N   0  0  0  0  0  0  0  0  0  0  0  0
    3.1346   -3.9286    1.9928 C   0  0  2  0  0  0  0  0  0  0  0  0
    2.7994   -5.2863    1.3896 C   0  0  0  0  0  0  0  0  0  0  0  0
    1.6597   -5.7461    1.3643 O   0  0  0  0  0  0  0  0  0  0  0  0
    3.7042   -4.0822    3.3944 C   0  0  0  0  0  0  0  0  0  0  0  0
    1.0453   -3.6158    2.1385 H   0  0  0  0  0  0  0  0  0  0  0  0
    3.8521   -3.4091    1.3483 H   0  0  0  0  0  0  0  0  0  0  0  0
    2.9993   -4.6006    4.0546 H   0  0  0  0  0  0  0  0  0  0  0  0
    4.6337   -4.6609    3.3837 H   0  0  0  0  0  0  0  0  0  0  0  0
    3.9168   -3.1035    3.8381 H   0  0  0  0  0  0  0  0  0  0  0  0
    3.9292   -5.9427    0.9217 N   0  0  0  0  0  0  0  0  0  0  0  0
    3.8750   -7.2529    0.3164 C   0  0  0  0  0  0  0  0  0  0  0  0
    4.8314   -5.4781    0.9662 H   0  0  0  0  0  0  0  0  0  0  0  0
    4.0393   -8.0205    1.0870 H   0  0  0  0  0  0  0  0  0  0  0  0
    2.8880   -7.4027   -0.1455 H   0  0  0  0  0  0  0  0  0  0  0  0
    4.6563   -7.3335   -0.4537 H   0  0  0  0  0  0  0  0  0  0  0  0
  1  3  1  0  0  0  0
  1  7  1  0  0  0  0
  1  2  2  0  0  0  0
 30 31  1  0  0  0  0
 31 39  1  0  0  0  0
 31 32  2  0  0  0  0
  8  9  1  0  0  0  0
  9 17  1  0  0  0  0
  9 10  2  0  0  0  0
 18 19  1  0  0  0  0
 19 29  1  0  0  0  0
 19 20  2  0  0  0  0
 21 22  1  0  0  0  0
 22 23  1  0  0  0  0
 22 24  2  0  0  0  0
 30 33  1  0  0  0  0
  8 11  1  0  0  0  0
 39 40  1  0  0  0  0
 18 21  1  0  0  0  0
 29 30  1  0  0  0  0
  7  8  1  0  0  0  0
 17 18  1  0  0  0  0
  3  4  1  0  0  0  0
  3  5  1  0  0  0  0
  3  6  1  0  0  0  0
 33 36  1  0  0  0  0
 33 37  1  0  0  0  0
 33 38  1  0  0  0  0
 11 14  1  0  0  0  0
 11 15  1  0  0  0  0
 11 16  1  0  0  0  0
 40 42  1  0  0  0  0
 40 43  1  0  0  0  0
 40 44  1  0  0  0  0
 21 27  1  0  0  0  0
 21 28  1  0  0  0  0
 30 35  1  0  0  0  0
  8 13  1  0  0  0  0
 18 26  1  0  0  0  0
 39 41  1  0  0  0  0
  7 12  1  0  0  0  0
 29 34  1  0  0  0  0
 17 25  1  0  0  0  0
M  CHG  1  23  -1
M  END
$$$$

  -OEChem-05262214473D

 44 43  0     1  0  0  0  0  0999 V2000
   -4.0256   -1.8030   -2.1581 C   0  0  0  0  0  0  0  0  0  0  0  0
   -3.7513   -2.6782   -2.9709 O   0  0  0  0  0  0  0  0  0  0  0  0
   -5.3491   -1.1169   -2.2339 C   0  0  0  0  0  0  0  0  0  0  0  0
   -5.3223   -0.2211   -2.8750 H   0  0  0  0  0  0  0  0  0  0  0  0
   -6.1322   -1.7605   -2.6658 H   0  0  0  0  0  0  0  0  0  0  0  0
   -5.7568   -0.7715   -1.2704 H   0  0  0  0  0  0  0  0  0  0  0  0
   -3.2124   -1.3578   -1.1289 N   0  0  0  0  0  0  0  0  0  0  0  0
   -1.8971   -1.8843   -0.8752 C   0  0  2  0  0  0  0  0  0  0  0  0
   -1.2676   -1.0599    0.2399 C   0  0  0  0  0  0  0  0  0  0  0  0
   -1.6270    0.0833    0.5138 O   0  0  0  0  0  0  0  0  0  0  0  0
   -1.0364   -1.8506   -2.1285 C   0  0  0  0  0  0  0  0  0  0  0  0
   -3.5631   -0.6202   -0.5206 H   0  0  0  0  0  0  0  0  0  0  0  0
   -2.0301   -2.9174   -0.5360 H   0  0  0  0  0  0  0  0  0  0  0  0
   -0.8921   -0.8236   -2.4833 H   0  0  0  0  0  0  0  0  0  0  0  0
   -0.0457   -2.2777   -1.9410 H   0  0  0  0  0  0  0  0  0  0  0  0
   -1.5052   -2.4193   -2.9387 H   0  0  0  0  0  0  0  0  0  0  0  0
   -0.2267   -1.7335    0.8672 N   0  0  0  0  0  0  0  0  0  0  0  0
    0.5363   -1.1590    1.9465 C   0  0  2  0  0  0  0  0  0  0  0  0
    1.9387   -1.7517    1.8717 C   0  0  0  0  0  0  0  0  0  0  0  0
    2.9584   -1.0826    2.0258 O   0  0  0  0  0  0  0  0  0  0  0  0
   -0.0964   -1.4482    3.3058 C   0  0  0  0  0  0  0  0  0  0  0  0
   -1.4279   -0.7461    3.6013 C   0  0  0  0  0  0  0  0  0  0  0  0
   -1.5662    0.3664    3.0147 O   0  5  0  0  0  0  0  0  0  0  0  0
   -2.2171   -1.3384    4.3870 O   0  0  0  0  0  0  0  0  0  0  0  0
   -0.0113   -2.6869    0.5854 H   0  0  0  0  0  0  0  0  0  0  0  0
    0.5900   -0.0812    1.7558 H   0  0  0  0  0  0  0  0  0  0  0  0
    0.6092   -1.1837    4.1053 H   0  0  0  0  0  0  0  0  0  0  0  0
   -0.2862   -2.5251    3.4033 H   0  0  0  0  0  0  0  0  0  0  0  0
    1.9148   -3.1238    1.6644 N   0  0  0  0  0  0  0  0  0  0  0  0
    3.1148   -3.9241    1.5874 C   0  0  2  0  0  0  0  0  0  0  0  0
    2.8424   -5.0910    0.6473 C   0  0  0  0  0  0  0  0  0  0  0  0
    1.7109   -5.5032    0.4002 O   0  0  0  0  0  0  0  0  0  0  0  0
    3.5382   -4.4203    2.9612 C   0  0  0  0  0  0  0  0  0  0  0  0
    1.0218   -3.6030    1.5958 H   0  0  0  0  0  0  0  0  0  0  0  0
    3.8947   -3.2845    1.1600 H   0  0  0  0  0  0  0  0  0  0  0  0
    2.7693   -5.0630    3.4053 H   0  0  0  0  0  0  0  0  0  0  0  0
    4.4636   -5.0029    2.9048 H   0  0  0  0  0  0  0  0  0  0  0  0
    3.7049   -3.5806    3.6445 H   0  0  0  0  0  0  0  0  0  0  0  0
    4.0137   -5.6454    0.1505 N   0  0  0  0  0  0  0  0  0  0  0  0
    4.0209   -6.7727   -0.7524 C   0  0  0  0  0  0  0  0  0  0  0  0
    4.9068   -5.2274    0.3939 H   0  0  0  0  0  0  0  0  0  0  0  0
    4.1052   -7.7051   -0.1749 H   0  0  0  0  0  0  0  0  0  0  0  0
    3.0862   -6.7839   -1.3322 H   0  0  0  0  0  0  0  0  0  0  0  0
    4.8768   -6.6876   -1.4381 H   0  0  0  0  0  0  0  0  0  0  0  0
  1  3  1  0  0  0  0
  1  7  1  0  0  0  0
  1  2  2  0  0  0  0
 30 31  1  0  0  0  0
 31 39  1  0  0  0  0
 31 32  2  0  0  0  0
  8  9  1  0  0  0  0
  9 17  1  0  0  0  0
  9 10  2  0  0  0  0
 18 19  1  0  0  0  0
 19 29  1  0  0  0  0
 19 20  2  0  0  0  0
 21 22  1  0  0  0  0
 22 23  1  0  0  0  0
 22 24  2  0  0  0  0
 30 33  1  0  0  0  0
  8 11  1  0  0  0  0
 39 40  1  0  0  0  0
 18 21  1  0  0  0  0
 29 30  1  0  0  0  0
  7  8  1  0  0  0  0
 17 18  1  0  0  0  0
  3  4  1  0  0  0  0
  3  5  1  0  0  0  0
  3  6  1  0  0  0  0
 33 36  1  0  0  0  0
 33 37  1  0  0  0  0
 33 38  1  0  0  0  0
 11 14  1  0  0  0  0
 11 15  1  0  0  0  0
 11 16  1  0  0  0  0
 40 42  1  0  0  0  0
 40 43  1  0  0  0  0
 40 44  1  0  0  0  0
 21 27  1  0  0  0  0
 21 28  1  0  0  0  0
 30 35  1  0  0  0  0
  8 13  1  0  0  0  0
 18 26  1  0  0  0  0
 39 41  1  0  0  0  0
  7 12  1  0  0  0  0
 29 34  1  0  0  0  0
 17 25  1  0  0  0  0
M  CHG  1  23  -1
M  END
$$$$

  -OEChem-05262214473D

 44 43  0     1  0  0  0  0  0999 V2000
   -4.0256   -1.8030   -2.1581 C   0  0  0  0  0  0  0  0  0  0  0  0
   -3.7513   -2.6782   -2.9709 O   0  0  0  0  0  0  0  0  0  0  0  0
   -5.3491   -1.1169   -2.2339 C   0  0  0  0  0  0  0  0  0  0  0  0
   -5.3223   -0.2211   -2.8750 H   0  0  0  0  0  0  0  0  0  0  0  0
   -6.1322   -1.7605   -2.6658 H   0  0  0  0  0  0  0  0  0  0  0  0
   -5.7568   -0.7715   -1.2704 H   0  0  0  0  0  0  0  0  0  0  0  0
   -3.2124   -1.3578   -1.1289 N   0  0  0  0  0  0  0  0  0  0  0  0
   -1.8971   -1.8843   -0.8752 C   0  0  2  0  0  0  0  0  0  0  0  0
   -1.2676   -1.0599    0.2399 C   0  0  0  0  0  0  0  0  0  0  0  0
   -1.6270    0.0833    0.5138 O   0  0  0  0  0  0  0  0  0  0  0  0
   -1.0364   -1.8506   -2.1285 C   0  0  0  0  0  0  0  0  0  0  0  0
   -3.5631   -0.6202   -0.5206 H   0  0  0  0  0  0  0  0  0  0  0  0
   -2.0301   -2.9174   -0.5360 H   0  0  0  0  0  0  0  0  0  0  0  0
   -0.8921   -0.8236   -2.4833 H   0  0  0  0  0  0  0  0  0  0  0  0
   -0.0457   -2.2777   -1.9410 H   0  0  0  0  0  0  0  0  0  0  0  0
   -1.5052   -2.4193   -2.9387 H   0  0  0  0  0  0  0  0  0  0  0  0
   -0.2267   -1.7335    0.8672 N   0  0  0  0  0  0  0  0  0  0  0  0
    0.5363   -1.1590    1.9465 C   0  0  2  0  0  0  0  0  0  0  0  0
    1.9387   -1.7517    1.8717 C   0  0  0  0  0  0  0  0  0  0  0  0
    2.9377   -1.1640    2.2814 O   0  0  0  0  0  0  0  0  0  0  0  0
   -0.0964   -1.4482    3.3058 C   0  0  0  0  0  0  0  0  0  0  0  0
   -1.4279   -0.7461    3.6013 C   0  0  0  0  0  0  0  0  0  0  0  0
   -1.5662    0.3664    3.0147 O   0  5  0  0  0  0  0  0  0  0  0  0
   -2.2171   -1.3384    4.3870 O   0  0  0  0  0  0  0  0  0  0  0  0
   -0.0113   -2.6869    0.5854 H   0  0  0  0  0  0  0  0  0  0  0  0
    0.5900   -0.0812    1.7558 H   0  0  0  0  0  0  0  0  0  0  0  0
    0.6092   -1.1837    4.1053 H   0  0  0  0  0  0  0  0  0  0  0  0
   -0.2862   -2.5251    3.4033 H   0  0  0  0  0  0  0  0  0  0  0  0
    1.9354   -3.0344    1.3415 N   0  0  0  0  0  0  0  0  0  0  0  0
    3.1366   -3.8231    1.1949 C   0  0  2  0  0  0  0  0  0  0  0  0
    2.9610   -4.7262   -0.0188 C   0  0  0  0  0  0  0  0  0  0  0  0
    1.8606   -5.0396   -0.4681 O   0  0  0  0  0  0  0  0  0  0  0  0
    3.4171   -4.6417    2.4455 C   0  0  0  0  0  0  0  0  0  0  0  0
    1.0538   -3.4611    1.0723 H   0  0  0  0  0  0  0  0  0  0  0  0
    3.9564   -3.1198    1.0120 H   0  0  0  0  0  0  0  0  0  0  0  0
    2.6065   -5.3521    2.6449 H   0  0  0  0  0  0  0  0  0  0  0  0
    4.3432   -5.2170    2.3436 H   0  0  0  0  0  0  0  0  0  0  0  0
    3.5136   -3.9927    3.3226 H   0  0  0  0  0  0  0  0  0  0  0  0
    4.1766   -5.1758   -0.5150 N   0  0  0  0  0  0  0  0  0  0  0  0
    4.2755   -6.0562   -1.6557 C   0  0  0  0  0  0  0  0  0  0  0  0
    5.0405   -4.8498   -0.0917 H   0  0  0  0  0  0  0  0  0  0  0  0
    4.2999   -7.1009   -1.3121 H   0  0  0  0  0  0  0  0  0  0  0  0
    3.4049   -5.9061   -2.3111 H   0  0  0  0  0  0  0  0  0  0  0  0
    5.1970   -5.8320   -2.2130 H   0  0  0  0  0  0  0  0  0  0  0  0
  1  3  1  0  0  0  0
  1  7  1  0  0  0  0
  1  2  2  0  0  0  0
 30 31  1  0  0  0  0
 31 39  1  0  0  0  0
 31 32  2  0  0  0  0
  8  9  1  0  0  0  0
  9 17  1  0  0  0  0
  9 10  2  0  0  0  0
 18 19  1  0  0  0  0
 19 29  1  0  0  0  0
 19 20  2  0  0  0  0
 21 22  1  0  0  0  0
 22 23  1  0  0  0  0
 22 24  2  0  0  0  0
 30 33  1  0  0  0  0
  8 11  1  0  0  0  0
 39 40  1  0  0  0  0
 18 21  1  0  0  0  0
 29 30  1  0  0  0  0
  7  8  1  0  0  0  0
 17 18  1  0  0  0  0
  3  4  1  0  0  0  0
  3  5  1  0  0  0  0
  3  6  1  0  0  0  0
 33 36  1  0  0  0  0
 33 37  1  0  0  0  0
 33 38  1  0  0  0  0
 11 14  1  0  0  0  0
 11 15  1  0  0  0  0
 11 16  1  0  0  0  0
 40 42  1  0  0  0  0
 40 43  1  0  0  0  0
 40 44  1  0  0  0  0
 21 27  1  0  0  0  0
 21 28  1  0  0  0  0
 30 35  1  0  0  0  0
  8 13  1  0  0  0  0
 18 26  1  0  0  0  0
 39 41  1  0  0  0  0
  7 12  1  0  0  0  0
 29 34  1  0  0  0  0
 17 25  1  0  0  0  0
M  CHG  1  23  -1
M  END
$$$$

  -OEChem-05262214473D

 44 43  0     1  0  0  0  0  0999 V2000
   -4.0256   -1.8030   -2.1581 C   0  0  0  0  0  0  0  0  0  0  0  0
   -3.7513   -2.6782   -2.9709 O   0  0  0  0  0  0  0  0  0  0  0  0
   -5.3491   -1.1169   -2.2339 C   0  0  0  0  0  0  0  0  0  0  0  0
   -5.3223   -0.2211   -2.8750 H   0  0  0  0  0  0  0  0  0  0  0  0
   -6.1322   -1.7605   -2.6658 H   0  0  0  0  0  0  0  0  0  0  0  0
   -5.7568   -0.7715   -1.2704 H   0  0  0  0  0  0  0  0  0  0  0  0
   -3.2124   -1.3578   -1.1289 N   0  0  0  0  0  0  0  0  0  0  0  0
   -1.8971   -1.8843   -0.8752 C   0  0  2  0  0  0  0  0  0  0  0  0
   -1.2676   -1.0599    0.2399 C   0  0  0  0  0  0  0  0  0  0  0  0
   -1.6270    0.0833    0.5138 O   0  0  0  0  0  0  0  0  0  0  0  0
   -1.0364   -1.8506   -2.1285 C   0  0  0  0  0  0  0  0  0  0  0  0
   -3.5631   -0.6202   -0.5206 H   0  0  0  0  0  0  0  0  0  0  0  0
   -2.0301   -2.9174   -0.5360 H   0  0  0  0  0  0  0  0  0  0  0  0
   -0.8921   -0.8236   -2.4833 H   0  0  0  0  0  0  0  0  0  0  0  0
   -0.0457   -2.2777   -1.9410 H   0  0  0  0  0  0  0  0  0  0  0  0
   -1.5052   -2.4193   -2.9387 H   0  0  0  0  0  0  0  0  0  0  0  0
   -0.2267   -1.7335    0.8672 N   0  0  0  0  0  0  0  0  0  0  0  0
    0.5363   -1.1590    1.9465 C   0  0  2  0  0  0  0  0  0  0  0  0
    1.9387   -1.7517    1.8717 C   0  0  0  0  0  0  0  0  0  0  0  0
    2.8909   -1.3031    2.5068 O   0  0  0  0  0  0  0  0  0  0  0  0
   -0.0964   -1.4482    3.3058 C   0  0  0  0  0  0  0  0  0  0  0  0
   -1.4279   -0.7461    3.6013 C   0  0  0  0  0  0  0  0  0  0  0  0
   -1.5662    0.3664    3.0147 O   0  5  0  0  0  0  0  0  0  0  0  0
   -2.2171   -1.3384    4.3870 O   0  0  0  0  0  0  0  0  0  0  0  0
   -0.0113   -2.6869    0.5854 H   0  0  0  0  0  0  0  0  0  0  0  0
    0.5900   -0.0812    1.7558 H   0  0  0  0  0  0  0  0  0  0  0  0
    0.6092   -1.1837    4.1053 H   0  0  0  0  0  0  0  0  0  0  0  0
   -0.2862   -2.5251    3.4033 H   0  0  0  0  0  0  0  0  0  0  0  0
    1.9889   -2.8713    1.0529 N   0  0  0  0  0  0  0  0  0  0  0  0
    3.1984   -3.6323    0.8420 C   0  0  2  0  0  0  0  0  0  0  0  0
    3.1473   -4.2166   -0.5635 C   0  0  0  0  0  0  0  0  0  0  0  0
    2.0983   -4.3869   -1.1814 O   0  0  0  0  0  0  0  0  0  0  0  0
    3.3493   -4.7311    1.8824 C   0  0  0  0  0  0  0  0  0  0  0  0
    1.1393   -3.1998    0.6036 H   0  0  0  0  0  0  0  0  0  0  0  0
    4.0329   -2.9263    0.9145 H   0  0  0  0  0  0  0  0  0  0  0  0
    2.5222   -5.4482    1.8251 H   0  0  0  0  0  0  0  0  0  0  0  0
    4.2806   -5.2887    1.7384 H   0  0  0  0  0  0  0  0  0  0  0  0
    3.3559   -4.3116    2.8942 H   0  0  0  0  0  0  0  0  0  0  0  0
    4.4070   -4.5657   -1.0297 N   0  0  0  0  0  0  0  0  0  0  0  0
    4.6214   -5.1522   -2.3320 C   0  0  0  0  0  0  0  0  0  0  0  0
    5.2233   -4.3712   -0.4573 H   0  0  0  0  0  0  0  0  0  0  0  0
    4.6101   -6.2489   -2.2471 H   0  0  0  0  0  0  0  0  0  0  0  0
    3.8225   -4.8292   -3.0155 H   0  0  0  0  0  0  0  0  0  0  0  0
    5.5952   -4.8251   -2.7255 H   0  0  0  0  0  0  0  0  0  0  0  0
  1  3  1  0  0  0  0
  1  7  1  0  0  0  0
  1  2  2  0  0  0  0
 30 31  1  0  0  0  0
 31 39  1  0  0  0  0
 31 32  2  0  0  0  0
  8  9  1  0  0  0  0
  9 17  1  0  0  0  0
  9 10  2  0  0  0  0
 18 19  1  0  0  0  0
 19 29  1  0  0  0  0
 19 20  2  0  0  0  0
 21 22  1  0  0  0  0
 22 23  1  0  0  0  0
 22 24  2  0  0  0  0
 30 33  1  0  0  0  0
  8 11  1  0  0  0  0
 39 40  1  0  0  0  0
 18 21  1  0  0  0  0
 29 30  1  0  0  0  0
  7  8  1  0  0  0  0
 17 18  1  0  0  0  0
  3  4  1  0  0  0  0
  3  5  1  0  0  0  0
  3  6  1  0  0  0  0
 33 36  1  0  0  0  0
 33 37  1  0  0  0  0
 33 38  1  0  0  0  0
 11 14  1  0  0  0  0
 11 15  1  0  0  0  0
 11 16  1  0  0  0  0
 40 42  1  0  0  0  0
 40 43  1  0  0  0  0
 40 44  1  0  0  0  0
 21 27  1  0  0  0  0
 21 28  1  0  0  0  0
 30 35  1  0  0  0  0
  8 13  1  0  0  0  0
 18 26  1  0  0  0  0
 39 41  1  0  0  0  0
  7 12  1  0  0  0  0
 29 34  1  0  0  0  0
 17 25  1  0  0  0  0
M  CHG  1  23  -1
M  END
$$$$

  -OEChem-05262214473D

 44 43  0     1  0  0  0  0  0999 V2000
   -4.0256   -1.8030   -2.1581 C   0  0  0  0  0  0  0  0  0  0  0  0
   -3.7513   -2.6782   -2.9709 O   0  0  0  0  0  0  0  0  0  0  0  0
   -5.3491   -1.1169   -2.2339 C   0  0  0  0  0  0  0  0  0  0  0  0
   -5.3223   -0.2211   -2.8750 H   0  0  0  0  0  0  0  0  0  0  0  0
   -6.1322   -1.7605   -2.6658 H   0  0  0  0  0  0  0  0  0  0  0  0
   -5.7568   -0.7715   -1.2704 H   0  0  0  0  0  0  0  0  0  0  0  0
   -3.2124   -1.3578   -1.1289 N   0  0  0  0  0  0  0  0  0  0  0  0
   -1.8971   -1.8843   -0.8752 C   0  0  2  0  0  0  0  0  0  0  0  0
   -1.2676   -1.0599    0.2399 C   0  0  0  0  0  0  0  0  0  0  0  0
   -1.6270    0.0833    0.5138 O   0  0  0  0  0  0  0  0  0  0  0  0
   -1.0364   -1.8506   -2.1285 C   0  0  0  0  0  0  0  0  0  0  0  0
   -3.5631   -0.6202   -0.5206 H   0  0  0  0  0  0  0  0  0  0  0  0
   -2.0301   -2.9174   -0.5360 H   0  0  0  0  0  0  0  0  0  0  0  0
   -0.8921   -0.8236   -2.4833 H   0  0  0  0  0  0  0  0  0  0  0  0
   -0.0457   -2.2777   -1.9410 H   0  0  0  0  0  0  0  0  0  0  0  0
   -1.5052   -2.4193   -2.9387 H   0  0  0  0  0  0  0  0  0  0  0  0
   -0.2267   -1.7335    0.8672 N   0  0  0  0  0  0  0  0  0  0  0  0
    0.5363   -1.1590    1.9465 C   0  0  2  0  0  0  0  0  0  0  0  0
    1.9387   -1.7517    1.8717 C   0  0  0  0  0  0  0  0  0  0  0  0
    2.8212   -1.4906    2.6867 O   0  0  0  0  0  0  0  0  0  0  0  0
   -0.0964   -1.4482    3.3058 C   0  0  0  0  0  0  0  0  0  0  0  0
   -1.4279   -0.7461    3.6013 C   0  0  0  0  0  0  0  0  0  0  0  0
   -1.5662    0.3664    3.0147 O   0  5  0  0  0  0  0  0  0  0  0  0
   -2.2171   -1.3384    4.3870 O   0  0  0  0  0  0  0  0  0  0  0  0
   -0.0113   -2.6869    0.5854 H   0  0  0  0  0  0  0  0  0  0  0  0
    0.5900   -0.0812    1.7558 H   0  0  0  0  0  0  0  0  0  0  0  0
    0.6092   -1.1837    4.1053 H   0  0  0  0  0  0  0  0  0  0  0  0
   -0.2862   -2.5251    3.4033 H   0  0  0  0  0  0  0  0  0  0  0  0
    2.0718   -2.6457    0.8184 N   0  0  0  0  0  0  0  0  0  0  0  0
    3.2960   -3.3647    0.5528 C   0  0  2  0  0  0  0  0  0  0  0  0
    3.3885   -3.5972   -0.9495 C   0  0  0  0  0  0  0  0  0  0  0  0
    2.4081   -3.5897   -1.6910 O   0  0  0  0  0  0  0  0  0  0  0  0
    3.3392   -4.6826    1.3104 C   0  0  0  0  0  0  0  0  0  0  0  0
    1.2722   -2.8369    0.2217 H   0  0  0  0  0  0  0  0  0  0  0  0
    4.1192   -2.7172    0.8741 H   0  0  0  0  0  0  0  0  0  0  0  0
    2.5220   -5.3447    1.0019 H   0  0  0  0  0  0  0  0  0  0  0  0
    4.2801   -5.2131    1.1305 H   0  0  0  0  0  0  0  0  0  0  0  0
    3.2427   -4.5157    2.3887 H   0  0  0  0  0  0  0  0  0  0  0  0
    4.6891   -3.8568   -1.3584 N   0  0  0  0  0  0  0  0  0  0  0  0
    5.0351   -4.1224   -2.7352 C   0  0  0  0  0  0  0  0  0  0  0  0
    5.4427   -3.8241   -0.6781 H   0  0  0  0  0  0  0  0  0  0  0  0
    5.0146   -5.2072   -2.9162 H   0  0  0  0  0  0  0  0  0  0  0  0
    4.3103   -3.6265   -3.3976 H   0  0  0  0  0  0  0  0  0  0  0  0
    6.0441   -3.7356   -2.9407 H   0  0  0  0  0  0  0  0  0  0  0  0
  1  3  1  0  0  0  0
  1  7  1  0  0  0  0
  1  2  2  0  0  0  0
 30 31  1  0  0  0  0
 31 39  1  0  0  0  0
 31 32  2  0  0  0  0
  8  9  1  0  0  0  0
  9 17  1  0  0  0  0
  9 10  2  0  0  0  0
 18 19  1  0  0  0  0
 19 29  1  0  0  0  0
 19 20  2  0  0  0  0
 21 22  1  0  0  0  0
 22 23  1  0  0  0  0
 22 24  2  0  0  0  0
 30 33  1  0  0  0  0
  8 11  1  0  0  0  0
 39 40  1  0  0  0  0
 18 21  1  0  0  0  0
 29 30  1  0  0  0  0
  7  8  1  0  0  0  0
 17 18  1  0  0  0  0
  3  4  1  0  0  0  0
  3  5  1  0  0  0  0
  3  6  1  0  0  0  0
 33 36  1  0  0  0  0
 33 37  1  0  0  0  0
 33 38  1  0  0  0  0
 11 14  1  0  0  0  0
 11 15  1  0  0  0  0
 11 16  1  0  0  0  0
 40 42  1  0  0  0  0
 40 43  1  0  0  0  0
 40 44  1  0  0  0  0
 21 27  1  0  0  0  0
 21 28  1  0  0  0  0
 30 35  1  0  0  0  0
  8 13  1  0  0  0  0
 18 26  1  0  0  0  0
 39 41  1  0  0  0  0
  7 12  1  0  0  0  0
 29 34  1  0  0  0  0
 17 25  1  0  0  0  0
M  CHG  1  23  -1
M  END
$$$$

  -OEChem-05262214473D

 44 43  0     1  0  0  0  0  0999 V2000
   -4.0256   -1.8030   -2.1581 C   0  0  0  0  0  0  0  0  0  0  0  0
   -3.7513   -2.6782   -2.9709 O   0  0  0  0  0  0  0  0  0  0  0  0
   -5.3491   -1.1169   -2.2339 C   0  0  0  0  0  0  0  0  0  0  0  0
   -5.3223   -0.2211   -2.8750 H   0  0  0  0  0  0  0  0  0  0  0  0
   -6.1322   -1.7605   -2.6658 H   0  0  0  0  0  0  0  0  0  0  0  0
   -5.7568   -0.7715   -1.2704 H   0  0  0  0  0  0  0  0  0  0  0  0
   -3.2124   -1.3578   -1.1289 N   0  0  0  0  0  0  0  0  0  0  0  0
   -1.8971   -1.8843   -0.8752 C   0  0  2  0  0  0  0  0  0  0  0  0
   -1.2676   -1.0599    0.2399 C   0  0  0  0  0  0  0  0  0  0  0  0
   -1.6270    0.0833    0.5138 O   0  0  0  0  0  0  0  0  0  0  0  0
   -1.0364   -1.8506   -2.1285 C   0  0  0  0  0  0  0  0  0  0  0  0
   -3.5631   -0.6202   -0.5206 H   0  0  0  0  0  0  0  0  0  0  0  0
   -2.0301   -2.9174   -0.5360 H   0  0  0  0  0  0  0  0  0  0  0  0
   -0.8921   -0.8236   -2.4833 H   0  0  0  0  0  0  0  0  0  0  0  0
   -0.0457   -2.2777   -1.9410 H   0  0  0  0  0  0  0  0  0  0  0  0
   -1.5052   -2.4193   -2.9387 H   0  0  0  0  0  0  0  0  0  0  0  0
   -0.2267   -1.7335    0.8672 N   0  0  0  0  0  0  0  0  0  0  0  0
    0.5363   -1.1590    1.9465 C   0  0  2  0  0  0  0  0  0  0  0  0
    1.9387   -1.7517    1.8717 C   0  0  0  0  0  0  0  0  0  0  0  0
    2.7335   -1.7137    2.8088 O   0  0  0  0  0  0  0  0  0  0  0  0
   -0.0964   -1.4482    3.3058 C   0  0  0  0  0  0  0  0  0  0  0  0
   -1.4279   -0.7461    3.6013 C   0  0  0  0  0  0  0  0  0  0  0  0
   -1.5662    0.3664    3.0147 O   0  5  0  0  0  0  0  0  0  0  0  0
   -2.2171   -1.3384    4.3870 O   0  0  0  0  0  0  0  0  0  0  0  0
   -0.0113   -2.6869    0.5854 H   0  0  0  0  0  0  0  0  0  0  0  0
    0.5900   -0.0812    1.7558 H   0  0  0  0  0  0  0  0  0  0  0  0
    0.6092   -1.1837    4.1053 H   0  0  0  0  0  0  0  0  0  0  0  0
   -0.2862   -2.5251    3.4033 H   0  0  0  0  0  0  0  0  0  0  0  0
    2.1782   -2.3731    0.6539 N   0  0  0  0  0  0  0  0  0  0  0  0
    3.4229   -3.0387    0.3470 C   0  0  2  0  0  0  0  0  0  0  0  0
    3.6682   -2.9100   -1.1506 C   0  0  0  0  0  0  0  0  0  0  0  0
    2.7687   -2.7022   -1.9622 O   0  0  0  0  0  0  0  0  0  0  0  0
    3.3877   -4.4995    0.7685 C   0  0  0  0  0  0  0  0  0  0  0  0
    1.4437   -2.3971   -0.0473 H   0  0  0  0  0  0  0  0  0  0  0  0
    4.2092   -2.5067    0.8935 H   0  0  0  0  0  0  0  0  0  0  0  0
    2.6059   -5.0488    0.2314 H   0  0  0  0  0  0  0  0  0  0  0  0
    4.3418   -4.9952    0.5612 H   0  0  0  0  0  0  0  0  0  0  0  0
    3.1816   -4.5910    1.8404 H   0  0  0  0  0  0  0  0  0  0  0  0
    5.0036   -3.0973   -1.4786 N   0  0  0  0  0  0  0  0  0  0  0  0
    5.4884   -3.0370   -2.8378 C   0  0  0  0  0  0  0  0  0  0  0  0
    5.6838   -3.2459   -0.7390 H   0  0  0  0  0  0  0  0  0  0  0  0
    5.4859   -4.0469   -3.2737 H   0  0  0  0  0  0  0  0  0  0  0  0
    4.8353   -2.3801   -3.4311 H   0  0  0  0  0  0  0  0  0  0  0  0
    6.5133   -2.6376   -2.8440 H   0  0  0  0  0  0  0  0  0  0  0  0
  1  3  1  0  0  0  0
  1  7  1  0  0  0  0
  1  2  2  0  0  0  0
 30 31  1  0  0  0  0
 31 39  1  0  0  0  0
 31 32  2  0  0  0  0
  8  9  1  0  0  0  0
  9 17  1  0  0  0  0
  9 10  2  0  0  0  0
 18 19  1  0  0  0  0
 19 29  1  0  0  0  0
 19 20  2  0  0  0  0
 21 22  1  0  0  0  0
 22 23  1  0  0  0  0
 22 24  2  0  0  0  0
 30 33  1  0  0  0  0
  8 11  1  0  0  0  0
 39 40  1  0  0  0  0
 18 21  1  0  0  0  0
 29 30  1  0  0  0  0
  7  8  1  0  0  0  0
 17 18  1  0  0  0  0
  3  4  1  0  0  0  0
  3  5  1  0  0  0  0
  3  6  1  0  0  0  0
 33 36  1  0  0  0  0
 33 37  1  0  0  0  0
 33 38  1  0  0  0  0
 11 14  1  0  0  0  0
 11 15  1  0  0  0  0
 11 16  1  0  0  0  0
 40 42  1  0  0  0  0
 40 43  1  0  0  0  0
 40 44  1  0  0  0  0
 21 27  1  0  0  0  0
 21 28  1  0  0  0  0
 30 35  1  0  0  0  0
  8 13  1  0  0  0  0
 18 26  1  0  0  0  0
 39 41  1  0  0  0  0
  7 12  1  0  0  0  0
 29 34  1  0  0  0  0
 17 25  1  0  0  0  0
M  CHG  1  23  -1
M  END
$$$$

  -OEChem-05262214473D

 44 43  0     1  0  0  0  0  0999 V2000
   -4.0256   -1.8030   -2.1581 C   0  0  0  0  0  0  0  0  0  0  0  0
   -3.7513   -2.6782   -2.9709 O   0  0  0  0  0  0  0  0  0  0  0  0
   -5.3491   -1.1169   -2.2339 C   0  0  0  0  0  0  0  0  0  0  0  0
   -5.3223   -0.2211   -2.8750 H   0  0  0  0  0  0  0  0  0  0  0  0
   -6.1322   -1.7605   -2.6658 H   0  0  0  0  0  0  0  0  0  0  0  0
   -5.7568   -0.7715   -1.2704 H   0  0  0  0  0  0  0  0  0  0  0  0
   -3.2124   -1.3578   -1.1289 N   0  0  0  0  0  0  0  0  0  0  0  0
   -1.8971   -1.8843   -0.8752 C   0  0  2  0  0  0  0  0  0  0  0  0
   -1.2676   -1.0599    0.2399 C   0  0  0  0  0  0  0  0  0  0  0  0
   -1.6270    0.0833    0.5138 O   0  0  0  0  0  0  0  0  0  0  0  0
   -1.0364   -1.8506   -2.1285 C   0  0  0  0  0  0  0  0  0  0  0  0
   -3.5631   -0.6202   -0.5206 H   0  0  0  0  0  0  0  0  0  0  0  0
   -2.0301   -2.9174   -0.5360 H   0  0  0  0  0  0  0  0  0  0  0  0
   -0.8921   -0.8236   -2.4833 H   0  0  0  0  0  0  0  0  0  0  0  0
   -0.0457   -2.2777   -1.9410 H   0  0  0  0  0  0  0  0  0  0  0  0
   -1.5052   -2.4193   -2.9387 H   0  0  0  0  0  0  0  0  0  0  0  0
   -0.2267   -1.7335    0.8672 N   0  0  0  0  0  0  0  0  0  0  0  0
    0.5363   -1.1590    1.9465 C   0  0  2  0  0  0  0  0  0  0  0  0
    1.9387   -1.7517    1.8717 C   0  0  0  0  0  0  0  0  0  0  0  0
    2.6336   -1.9571    2.8647 O   0  0  0  0  0  0  0  0  0  0  0  0
   -0.0964   -1.4482    3.3058 C   0  0  0  0  0  0  0  0  0  0  0  0
   -1.4279   -0.7461    3.6013 C   0  0  0  0  0  0  0  0  0  0  0  0
   -1.5662    0.3664    3.0147 O   0  5  0  0  0  0  0  0  0  0  0  0
   -2.2171   -1.3384    4.3870 O   0  0  0  0  0  0  0  0  0  0  0  0
   -0.0113   -2.6869    0.5854 H   0  0  0  0  0  0  0  0  0  0  0  0
    0.5900   -0.0812    1.7558 H   0  0  0  0  0  0  0  0  0  0  0  0
    0.6092   -1.1837    4.1053 H   0  0  0  0  0  0  0  0  0  0  0  0
   -0.2862   -2.5251    3.4033 H   0  0  0  0  0  0  0  0  0  0  0  0
    2.3011   -2.0719    0.5707 N   0  0  0  0  0  0  0  0  0  0  0  0
    3.5702   -2.6764    0.2386 C   0  0  2  0  0  0  0  0  0  0  0  0
    3.9673   -2.2018   -1.1530 C   0  0  0  0  0  0  0  0  0  0  0  0
    3.1555   -1.7850   -1.9766 O   0  0  0  0  0  0  0  0  0  0  0  0
    3.4915   -4.1941    0.2935 C   0  0  0  0  0  0  0  0  0  0  0  0
    1.6421   -1.9104   -0.1853 H   0  0  0  0  0  0  0  0  0  0  0  0
    4.2968   -2.3091    0.9715 H   0  0  0  0  0  0  0  0  0  0  0  0
    2.7683   -4.5805   -0.4340 H   0  0  0  0  0  0  0  0  0  0  0  0
    4.4615   -4.6501    0.0695 H   0  0  0  0  0  0  0  0  0  0  0  0
    3.1769   -4.5324    1.2867 H   0  0  0  0  0  0  0  0  0  0  0  0
    5.3292   -2.3391   -1.3823 N   0  0  0  0  0  0  0  0  0  0  0  0
    5.9503   -1.9698   -2.6329 C   0  0  0  0  0  0  0  0  0  0  0  0
    5.9301   -2.6760   -0.6359 H   0  0  0  0  0  0  0  0  0  0  0  0
    5.9919   -2.8470   -3.2953 H   0  0  0  0  0  0  0  0  0  0  0  0
    5.3616   -1.1748   -3.1138 H   0  0  0  0  0  0  0  0  0  0  0  0
    6.9707   -1.6060   -2.4419 H   0  0  0  0  0  0  0  0  0  0  0  0
  1  3  1  0  0  0  0
  1  7  1  0  0  0  0
  1  2  2  0  0  0  0
 30 31  1  0  0  0  0
 31 39  1  0  0  0  0
 31 32  2  0  0  0  0
  8  9  1  0  0  0  0
  9 17  1  0  0  0  0
  9 10  2  0  0  0  0
 18 19  1  0  0  0  0
 19 29  1  0  0  0  0
 19 20  2  0  0  0  0
 21 22  1  0  0  0  0
 22 23  1  0  0  0  0
 22 24  2  0  0  0  0
 30 33  1  0  0  0  0
  8 11  1  0  0  0  0
 39 40  1  0  0  0  0
 18 21  1  0  0  0  0
 29 30  1  0  0  0  0
  7  8  1  0  0  0  0
 17 18  1  0  0  0  0
  3  4  1  0  0  0  0
  3  5  1  0  0  0  0
  3  6  1  0  0  0  0
 33 36  1  0  0  0  0
 33 37  1  0  0  0  0
 33 38  1  0  0  0  0
 11 14  1  0  0  0  0
 11 15  1  0  0  0  0
 11 16  1  0  0  0  0
 40 42  1  0  0  0  0
 40 43  1  0  0  0  0
 40 44  1  0  0  0  0
 21 27  1  0  0  0  0
 21 28  1  0  0  0  0
 30 35  1  0  0  0  0
  8 13  1  0  0  0  0
 18 26  1  0  0  0  0
 39 41  1  0  0  0  0
  7 12  1  0  0  0  0
 29 34  1  0  0  0  0
 17 25  1  0  0  0  0
M  CHG  1  23  -1
M  END
$$$$

  -OEChem-05262214473D

 44 43  0     1  0  0  0  0  0999 V2000
   -4.0256   -1.8030   -2.1581 C   0  0  0  0  0  0  0  0  0  0  0  0
   -3.7513   -2.6782   -2.9709 O   0  0  0  0  0  0  0  0  0  0  0  0
   -5.3491   -1.1169   -2.2339 C   0  0  0  0  0  0  0  0  0  0  0  0
   -5.3223   -0.2211   -2.8750 H   0  0  0  0  0  0  0  0  0  0  0  0
   -6.1322   -1.7605   -2.6658 H   0  0  0  0  0  0  0  0  0  0  0  0
   -5.7568   -0.7715   -1.2704 H   0  0  0  0  0  0  0  0  0  0  0  0
   -3.2124   -1.3578   -1.1289 N   0  0  0  0  0  0  0  0  0  0  0  0
   -1.8971   -1.8843   -0.8752 C   0  0  2  0  0  0  0  0  0  0  0  0
   -1.2676   -1.0599    0.2399 C   0  0  0  0  0  0  0  0  0  0  0  0
   -1.6270    0.0833    0.5138 O   0  0  0  0  0  0  0  0  0  0  0  0
   -1.0364   -1.8506   -2.1285 C   0  0  0  0  0  0  0  0  0  0  0  0
   -3.5631   -0.6202   -0.5206 H   0  0  0  0  0  0  0  0  0  0  0  0
   -2.0301   -2.9174   -0.5360 H   0  0  0  0  0  0  0  0  0  0  0  0
   -0.8921   -0.8236   -2.4833 H   0  0  0  0  0  0  0  0  0  0  0  0
   -0.0457   -2.2777   -1.9410 H   0  0  0  0  0  0  0  0  0  0  0  0
   -1.5052   -2.4193   -2.9387 H   0  0  0  0  0  0  0  0  0  0  0  0
   -0.2267   -1.7335    0.8672 N   0  0  0  0  0  0  0  0  0  0  0  0
    0.5363   -1.1590    1.9465 C   0  0  2  0  0  0  0  0  0  0  0  0
    1.9387   -1.7517    1.8717 C   0  0  0  0  0  0  0  0  0  0  0  0
    2.5284   -2.2043    2.8508 O   0  0  0  0  0  0  0  0  0  0  0  0
   -0.0964   -1.4482    3.3058 C   0  0  0  0  0  0  0  0  0  0  0  0
   -1.4279   -0.7461    3.6013 C   0  0  0  0  0  0  0  0  0  0  0  0
   -1.5662    0.3664    3.0147 O   0  5  0  0  0  0  0  0  0  0  0  0
   -2.2171   -1.3384    4.3870 O   0  0  0  0  0  0  0  0  0  0  0  0
   -0.0113   -2.6869    0.5854 H   0  0  0  0  0  0  0  0  0  0  0  0
    0.5900   -0.0812    1.7558 H   0  0  0  0  0  0  0  0  0  0  0  0
    0.6092   -1.1837    4.1053 H   0  0  0  0  0  0  0  0  0  0  0  0
   -0.2862   -2.5251    3.4033 H   0  0  0  0  0  0  0  0  0  0  0  0
    2.4319   -1.7627    0.5744 N   0  0  0  0  0  0  0  0  0  0  0  0
    3.7280   -2.3024    0.2350 C   0  0  2  0  0  0  0  0  0  0  0  0
    4.2655   -1.5211   -0.9566 C   0  0  0  0  0  0  0  0  0  0  0  0
    3.5423   -0.9005   -1.7331 O   0  0  0  0  0  0  0  0  0  0  0  0
    3.6433   -3.7873   -0.0821 C   0  0  0  0  0  0  0  0  0  0  0  0
    1.8537   -1.4100   -0.1826 H   0  0  0  0  0  0  0  0  0  0  0  0
    4.3762   -2.1379    1.1027 H   0  0  0  0  0  0  0  0  0  0  0  0
    2.9981   -3.9718   -0.9488 H   0  0  0  0  0  0  0  0  0  0  0  0
    4.6309   -4.2011   -0.3113 H   0  0  0  0  0  0  0  0  0  0  0  0
    3.2287   -4.3438    0.7653 H   0  0  0  0  0  0  0  0  0  0  0  0
    5.6436   -1.6338   -1.0760 N   0  0  0  0  0  0  0  0  0  0  0  0
    6.3895   -0.9937   -2.1343 C   0  0  0  0  0  0  0  0  0  0  0  0
    6.1650   -2.1531   -0.3759 H   0  0  0  0  0  0  0  0  0  0  0  0
    6.4980   -1.6892   -2.9796 H   0  0  0  0  0  0  0  0  0  0  0  0
    5.8534   -0.0928   -2.4674 H   0  0  0  0  0  0  0  0  0  0  0  0
    7.3852   -0.7112   -1.7619 H   0  0  0  0  0  0  0  0  0  0  0  0
  1  3  1  0  0  0  0
  1  7  1  0  0  0  0
  1  2  2  0  0  0  0
 30 31  1  0  0  0  0
 31 39  1  0  0  0  0
 31 32  2  0  0  0  0
  8  9  1  0  0  0  0
  9 17  1  0  0  0  0
  9 10  2  0  0  0  0
 18 19  1  0  0  0  0
 19 29  1  0  0  0  0
 19 20  2  0  0  0  0
 21 22  1  0  0  0  0
 22 23  1  0  0  0  0
 22 24  2  0  0  0  0
 30 33  1  0  0  0  0
  8 11  1  0  0  0  0
 39 40  1  0  0  0  0
 18 21  1  0  0  0  0
 29 30  1  0  0  0  0
  7  8  1  0  0  0  0
 17 18  1  0  0  0  0
  3  4  1  0  0  0  0
  3  5  1  0  0  0  0
  3  6  1  0  0  0  0
 33 36  1  0  0  0  0
 33 37  1  0  0  0  0
 33 38  1  0  0  0  0
 11 14  1  0  0  0  0
 11 15  1  0  0  0  0
 11 16  1  0  0  0  0
 40 42  1  0  0  0  0
 40 43  1  0  0  0  0
 40 44  1  0  0  0  0
 21 27  1  0  0  0  0
 21 28  1  0  0  0  0
 30 35  1  0  0  0  0
  8 13  1  0  0  0  0
 18 26  1  0  0  0  0
 39 41  1  0  0  0  0
  7 12  1  0  0  0  0
 29 34  1  0  0  0  0
 17 25  1  0  0  0  0
M  CHG  1  23  -1
M  END
$$$$

  -OEChem-05262214473D

 44 43  0     1  0  0  0  0  0999 V2000
   -4.0256   -1.8030   -2.1581 C   0  0  0  0  0  0  0  0  0  0  0  0
   -3.7513   -2.6782   -2.9709 O   0  0  0  0  0  0  0  0  0  0  0  0
   -5.3491   -1.1169   -2.2339 C   0  0  0  0  0  0  0  0  0  0  0  0
   -5.3223   -0.2211   -2.8750 H   0  0  0  0  0  0  0  0  0  0  0  0
   -6.1322   -1.7605   -2.6658 H   0  0  0  0  0  0  0  0  0  0  0  0
   -5.7568   -0.7715   -1.2704 H   0  0  0  0  0  0  0  0  0  0  0  0
   -3.2124   -1.3578   -1.1289 N   0  0  0  0  0  0  0  0  0  0  0  0
   -1.8971   -1.8843   -0.8752 C   0  0  2  0  0  0  0  0  0  0  0  0
   -1.2676   -1.0599    0.2399 C   0  0  0  0  0  0  0  0  0  0  0  0
   -1.6270    0.0833    0.5138 O   0  0  0  0  0  0  0  0  0  0  0  0
   -1.0364   -1.8506   -2.1285 C   0  0  0  0  0  0  0  0  0  0  0  0
   -3.5631   -0.6202   -0.5206 H   0  0  0  0  0  0  0  0  0  0  0  0
   -2.0301   -2.9174   -0.5360 H   0  0  0  0  0  0  0  0  0  0  0  0
   -0.8921   -0.8236   -2.4833 H   0  0  0  0  0  0  0  0  0  0  0  0
   -0.0457   -2.2777   -1.9410 H   0  0  0  0  0  0  0  0  0  0  0  0
   -1.5052   -2.4193   -2.9387 H   0  0  0  0  0  0  0  0  0  0  0  0
   -0.2267   -1.7335    0.8672 N   0  0  0  0  0  0  0  0  0  0  0  0
    0.5363   -1.1590    1.9465 C   0  0  2  0  0  0  0  0  0  0  0  0
    1.9387   -1.7517    1.8717 C   0  0  0  0  0  0  0  0  0  0  0  0
    2.4250   -2.4384    2.7679 O   0  0  0  0  0  0  0  0  0  0  0  0
   -0.0964   -1.4482    3.3058 C   0  0  0  0  0  0  0  0  0  0  0  0
   -1.4279   -0.7461    3.6013 C   0  0  0  0  0  0  0  0  0  0  0  0
   -1.5662    0.3664    3.0147 O   0  5  0  0  0  0  0  0  0  0  0  0
   -2.2171   -1.3384    4.3870 O   0  0  0  0  0  0  0  0  0  0  0  0
   -0.0113   -2.6869    0.5854 H   0  0  0  0  0  0  0  0  0  0  0  0
    0.5900   -0.0812    1.7558 H   0  0  0  0  0  0  0  0  0  0  0  0
    0.6092   -1.1837    4.1053 H   0  0  0  0  0  0  0  0  0  0  0  0
   -0.2862   -2.5251    3.4033 H   0  0  0  0  0  0  0  0  0  0  0  0
    2.5619   -1.4666    0.6647 N   0  0  0  0  0  0  0  0  0  0  0  0
    3.8856   -1.9424    0.3365 C   0  0  2  0  0  0  0  0  0  0  0  0
    4.5424   -0.9140   -0.5749 C   0  0  0  0  0  0  0  0  0  0  0  0
    3.9027   -0.1090   -1.2485 O   0  0  0  0  0  0  0  0  0  0  0  0
    3.8330   -3.3069   -0.3329 C   0  0  0  0  0  0  0  0  0  0  0  0
    2.0642   -0.9300   -0.0396 H   0  0  0  0  0  0  0  0  0  0  0  0
    4.4418   -2.0048    1.2782 H   0  0  0  0  0  0  0  0  0  0  0  0
    3.2796   -3.2642   -1.2781 H   0  0  0  0  0  0  0  0  0  0  0  0
    4.8386   -3.6789   -0.5552 H   0  0  0  0  0  0  0  0  0  0  0  0
    3.3337   -4.0383    0.3119 H   0  0  0  0  0  0  0  0  0  0  0  0
    5.9254   -1.0295   -0.5805 N   0  0  0  0  0  0  0  0  0  0  0  0
    6.7758   -0.1751   -1.3761 C   0  0  0  0  0  0  0  0  0  0  0  0
    6.3723   -1.7130    0.0235 H   0  0  0  0  0  0  0  0  0  0  0  0
    6.9698   -0.6525   -2.3480 H   0  0  0  0  0  0  0  0  0  0  0  0
    6.2771    0.7922   -1.5359 H   0  0  0  0  0  0  0  0  0  0  0  0
    7.7285   -0.0140   -0.8502 H   0  0  0  0  0  0  0  0  0  0  0  0
  1  3  1  0  0  0  0
  1  7  1  0  0  0  0
  1  2  2  0  0  0  0
 30 31  1  0  0  0  0
 31 39  1  0  0  0  0
 31 32  2  0  0  0  0
  8  9  1  0  0  0  0
  9 17  1  0  0  0  0
  9 10  2  0  0  0  0
 18 19  1  0  0  0  0
 19 29  1  0  0  0  0
 19 20  2  0  0  0  0
 21 22  1  0  0  0  0
 22 23  1  0  0  0  0
 22 24  2  0  0  0  0
 30 33  1  0  0  0  0
  8 11  1  0  0  0  0
 39 40  1  0  0  0  0
 18 21  1  0  0  0  0
 29 30  1  0  0  0  0
  7  8  1  0  0  0  0
 17 18  1  0  0  0  0
  3  4  1  0  0  0  0
  3  5  1  0  0  0  0
  3  6  1  0  0  0  0
 33 36  1  0  0  0  0
 33 37  1  0  0  0  0
 33 38  1  0  0  0  0
 11 14  1  0  0  0  0
 11 15  1  0  0  0  0
 11 16  1  0  0  0  0
 40 42  1  0  0  0  0
 40 43  1  0  0  0  0
 40 44  1  0  0  0  0
 21 27  1  0  0  0  0
 21 28  1  0  0  0  0
 30 35  1  0  0  0  0
  8 13  1  0  0  0  0
 18 26  1  0  0  0  0
 39 41  1  0  0  0  0
  7 12  1  0  0  0  0
 29 34  1  0  0  0  0
 17 25  1  0  0  0  0
M  CHG  1  23  -1
M  END
$$$$

  -OEChem-05262214473D

 44 43  0     1  0  0  0  0  0999 V2000
   -4.0256   -1.8030   -2.1581 C   0  0  0  0  0  0  0  0  0  0  0  0
   -3.7513   -2.6782   -2.9709 O   0  0  0  0  0  0  0  0  0  0  0  0
   -5.3491   -1.1169   -2.2339 C   0  0  0  0  0  0  0  0  0  0  0  0
   -5.3223   -0.2211   -2.8750 H   0  0  0  0  0  0  0  0  0  0  0  0
   -6.1322   -1.7605   -2.6658 H   0  0  0  0  0  0  0  0  0  0  0  0
   -5.7568   -0.7715   -1.2704 H   0  0  0  0  0  0  0  0  0  0  0  0
   -3.2124   -1.3578   -1.1289 N   0  0  0  0  0  0  0  0  0  0  0  0
   -1.8971   -1.8843   -0.8752 C   0  0  2  0  0  0  0  0  0  0  0  0
   -1.2676   -1.0599    0.2399 C   0  0  0  0  0  0  0  0  0  0  0  0
   -1.6270    0.0833    0.5138 O   0  0  0  0  0  0  0  0  0  0  0  0
   -1.0364   -1.8506   -2.1285 C   0  0  0  0  0  0  0  0  0  0  0  0
   -3.5631   -0.6202   -0.5206 H   0  0  0  0  0  0  0  0  0  0  0  0
   -2.0301   -2.9174   -0.5360 H   0  0  0  0  0  0  0  0  0  0  0  0
   -0.8921   -0.8236   -2.4833 H   0  0  0  0  0  0  0  0  0  0  0  0
   -0.0457   -2.2777   -1.9410 H   0  0  0  0  0  0  0  0  0  0  0  0
   -1.5052   -2.4193   -2.9387 H   0  0  0  0  0  0  0  0  0  0  0  0
   -0.2267   -1.7335    0.8672 N   0  0  0  0  0  0  0  0  0  0  0  0
    0.5363   -1.1590    1.9465 C   0  0  2  0  0  0  0  0  0  0  0  0
    1.9387   -1.7517    1.8717 C   0  0  0  0  0  0  0  0  0  0  0  0
    2.3306   -2.6434    2.6217 O   0  0  0  0  0  0  0  0  0  0  0  0
   -0.0964   -1.4482    3.3058 C   0  0  0  0  0  0  0  0  0  0  0  0
   -1.4279   -0.7461    3.6013 C   0  0  0  0  0  0  0  0  0  0  0  0
   -1.5662    0.3664    3.0147 O   0  5  0  0  0  0  0  0  0  0  0  0
   -2.2171   -1.3384    4.3870 O   0  0  0  0  0  0  0  0  0  0  0  0
   -0.0113   -2.6869    0.5854 H   0  0  0  0  0  0  0  0  0  0  0  0
    0.5900   -0.0812    1.7558 H   0  0  0  0  0  0  0  0  0  0  0  0
    0.6092   -1.1837    4.1053 H   0  0  0  0  0  0  0  0  0  0  0  0
   -0.2862   -2.5251    3.4033 H   0  0  0  0  0  0  0  0  0  0  0  0
    2.6821   -1.2038    0.8356 N   0  0  0  0  0  0  0  0  0  0  0  0
    4.0322   -1.6208    0.5360 C   0  0  2  0  0  0  0  0  0  0  0  0
    4.7792   -0.4221   -0.0337 C   0  0  0  0  0  0  0  0  0  0  0  0
    4.2120    0.5355   -0.5556 O   0  0  0  0  0  0  0  0  0  0  0  0
    4.0475   -2.7856   -0.4415 C   0  0  0  0  0  0  0  0  0  0  0  0
    2.2593   -0.5030    0.2340 H   0  0  0  0  0  0  0  0  0  0  0  0
    4.4892   -1.9189    1.4859 H   0  0  0  0  0  0  0  0  0  0  0  0
    3.5936   -2.5059   -1.3993 H   0  0  0  0  0  0  0  0  0  0  0  0
    5.0704   -3.1190   -0.6455 H   0  0  0  0  0  0  0  0  0  0  0  0
    3.4846   -3.6365   -0.0428 H   0  0  0  0  0  0  0  0  0  0  0  0
    6.1555   -0.5673    0.0703 N   0  0  0  0  0  0  0  0  0  0  0  0
    7.0832    0.4301   -0.4100 C   0  0  0  0  0  0  0  0  0  0  0  0
    6.5379   -1.3856    0.5349 H   0  0  0  0  0  0  0  0  0  0  0  0
    7.3752    0.1925   -1.4435 H   0  0  0  0  0  0  0  0  0  0  0  0
    6.6038    1.4198   -0.3828 H   0  0  0  0  0  0  0  0  0  0  0  0
    7.9772    0.4379    0.2309 H   0  0  0  0  0  0  0  0  0  0  0  0
  1  3  1  0  0  0  0
  1  7  1  0  0  0  0
  1  2  2  0  0  0  0
 30 31  1  0  0  0  0
 31 39  1  0  0  0  0
 31 32  2  0  0  0  0
  8  9  1  0  0  0  0
  9 17  1  0  0  0  0
  9 10  2  0  0  0  0
 18 19  1  0  0  0  0
 19 29  1  0  0  0  0
 19 20  2  0  0  0  0
 21 22  1  0  0  0  0
 22 23  1  0  0  0  0
 22 24  2  0  0  0  0
 30 33  1  0  0  0  0
  8 11  1  0  0  0  0
 39 40  1  0  0  0  0
 18 21  1  0  0  0  0
 29 30  1  0  0  0  0
  7  8  1  0  0  0  0
 17 18  1  0  0  0  0
  3  4  1  0  0  0  0
  3  5  1  0  0  0  0
  3  6  1  0  0  0  0
 33 36  1  0  0  0  0
 33 37  1  0  0  0  0
 33 38  1  0  0  0  0
 11 14  1  0  0  0  0
 11 15  1  0  0  0  0
 11 16  1  0  0  0  0
 40 42  1  0  0  0  0
 40 43  1  0  0  0  0
 40 44  1  0  0  0  0
 21 27  1  0  0  0  0
 21 28  1  0  0  0  0
 30 35  1  0  0  0  0
  8 13  1  0  0  0  0
 18 26  1  0  0  0  0
 39 41  1  0  0  0  0
  7 12  1  0  0  0  0
 29 34  1  0  0  0  0
 17 25  1  0  0  0  0
M  CHG  1  23  -1
M  END
$$$$

  -OEChem-05262214473D

 44 43  0     1  0  0  0  0  0999 V2000
   -4.0256   -1.8030   -2.1581 C   0  0  0  0  0  0  0  0  0  0  0  0
   -3.7513   -2.6782   -2.9709 O   0  0  0  0  0  0  0  0  0  0  0  0
   -5.3491   -1.1169   -2.2339 C   0  0  0  0  0  0  0  0  0  0  0  0
   -5.3223   -0.2211   -2.8750 H   0  0  0  0  0  0  0  0  0  0  0  0
   -6.1322   -1.7605   -2.6658 H   0  0  0  0  0  0  0  0  0  0  0  0
   -5.7568   -0.7715   -1.2704 H   0  0  0  0  0  0  0  0  0  0  0  0
   -3.2124   -1.3578   -1.1289 N   0  0  0  0  0  0  0  0  0  0  0  0
   -1.8971   -1.8843   -0.8752 C   0  0  2  0  0  0  0  0  0  0  0  0
   -1.2676   -1.0599    0.2399 C   0  0  0  0  0  0  0  0  0  0  0  0
   -1.6270    0.0833    0.5138 O   0  0  0  0  0  0  0  0  0  0  0  0
   -1.0364   -1.8506   -2.1285 C   0  0  0  0  0  0  0  0  0  0  0  0
   -3.5631   -0.6202   -0.5206 H   0  0  0  0  0  0  0  0  0  0  0  0
   -2.0301   -2.9174   -0.5360 H   0  0  0  0  0  0  0  0  0  0  0  0
   -0.8921   -0.8236   -2.4833 H   0  0  0  0  0  0  0  0  0  0  0  0
   -0.0457   -2.2777   -1.9410 H   0  0  0  0  0  0  0  0  0  0  0  0
   -1.5052   -2.4193   -2.9387 H   0  0  0  0  0  0  0  0  0  0  0  0
   -0.2267   -1.7335    0.8672 N   0  0  0  0  0  0  0  0  0  0  0  0
    0.5363   -1.1590    1.9465 C   0  0  2  0  0  0  0  0  0  0  0  0
    1.9387   -1.7517    1.8717 C   0  0  0  0  0  0  0  0  0  0  0  0
    2.2514   -2.8055    2.4221 O   0  0  0  0  0  0  0  0  0  0  0  0
   -0.0964   -1.4482    3.3058 C   0  0  0  0  0  0  0  0  0  0  0  0
   -1.4279   -0.7461    3.6013 C   0  0  0  0  0  0  0  0  0  0  0  0
   -1.5662    0.3664    3.0147 O   0  5  0  0  0  0  0  0  0  0  0  0
   -2.2171   -1.3384    4.3870 O   0  0  0  0  0  0  0  0  0  0  0  0
   -0.0113   -2.6869    0.5854 H   0  0  0  0  0  0  0  0  0  0  0  0
    0.5900   -0.0812    1.7558 H   0  0  0  0  0  0  0  0  0  0  0  0
    0.6092   -1.1837    4.1053 H   0  0  0  0  0  0  0  0  0  0  0  0
   -0.2862   -2.5251    3.4033 H   0  0  0  0  0  0  0  0  0  0  0  0
    2.7843   -0.9921    1.0753 N   0  0  0  0  0  0  0  0  0  0  0  0
    4.1577   -1.3595    0.8202 C   0  0  2  0  0  0  0  0  0  0  0  0
    4.9597   -0.0788    0.6300 C   0  0  0  0  0  0  0  0  0  0  0  0
    4.4493    0.9892    0.2983 O   0  0  0  0  0  0  0  0  0  0  0  0
    4.2723   -2.2589   -0.4008 C   0  0  0  0  0  0  0  0  0  0  0  0
    2.4255   -0.1582    0.6195 H   0  0  0  0  0  0  0  0  0  0  0  0
    4.5152   -1.8859    1.7119 H   0  0  0  0  0  0  0  0  0  0  0  0
    3.9187   -1.7486   -1.3042 H   0  0  0  0  0  0  0  0  0  0  0  0
    5.3104   -2.5597   -0.5760 H   0  0  0  0  0  0  0  0  0  0  0  0
    3.6711   -3.1658   -0.2746 H   0  0  0  0  0  0  0  0  0  0  0  0
    6.3181   -0.2788    0.8322 N   0  0  0  0  0  0  0  0  0  0  0  0
    7.2905    0.7807    0.6983 C   0  0  0  0  0  0  0  0  0  0  0  0
    6.6506   -1.1933    1.1235 H   0  0  0  0  0  0  0  0  0  0  0  0
    7.6865    0.7882   -0.3279 H   0  0  0  0  0  0  0  0  0  0  0  0
    6.8114    1.7473    0.9133 H   0  0  0  0  0  0  0  0  0  0  0  0
    8.1143    0.6139    1.4079 H   0  0  0  0  0  0  0  0  0  0  0  0
  1  3  1  0  0  0  0
  1  7  1  0  0  0  0
  1  2  2  0  0  0  0
 30 31  1  0  0  0  0
 31 39  1  0  0  0  0
 31 32  2  0  0  0  0
  8  9  1  0  0  0  0
  9 17  1  0  0  0  0
  9 10  2  0  0  0  0
 18 19  1  0  0  0  0
 19 29  1  0  0  0  0
 19 20  2  0  0  0  0
 21 22  1  0  0  0  0
 22 23  1  0  0  0  0
 22 24  2  0  0  0  0
 30 33  1  0  0  0  0
  8 11  1  0  0  0  0
 39 40  1  0  0  0  0
 18 21  1  0  0  0  0
 29 30  1  0  0  0  0
  7  8  1  0  0  0  0
 17 18  1  0  0  0  0
  3  4  1  0  0  0  0
  3  5  1  0  0  0  0
  3  6  1  0  0  0  0
 33 36  1  0  0  0  0
 33 37  1  0  0  0  0
 33 38  1  0  0  0  0
 11 14  1  0  0  0  0
 11 15  1  0  0  0  0
 11 16  1  0  0  0  0
 40 42  1  0  0  0  0
 40 43  1  0  0  0  0
 40 44  1  0  0  0  0
 21 27  1  0  0  0  0
 21 28  1  0  0  0  0
 30 35  1  0  0  0  0
  8 13  1  0  0  0  0
 18 26  1  0  0  0  0
 39 41  1  0  0  0  0
  7 12  1  0  0  0  0
 29 34  1  0  0  0  0
 17 25  1  0  0  0  0
M  CHG  1  23  -1
M  END
$$$$

  -OEChem-05262214473D

 44 43  0     1  0  0  0  0  0999 V2000
   -4.0256   -1.8030   -2.1581 C   0  0  0  0  0  0  0  0  0  0  0  0
   -3.7513   -2.6782   -2.9709 O   0  0  0  0  0  0  0  0  0  0  0  0
   -5.3491   -1.1169   -2.2339 C   0  0  0  0  0  0  0  0  0  0  0  0
   -5.3223   -0.2211   -2.8750 H   0  0  0  0  0  0  0  0  0  0  0  0
   -6.1322   -1.7605   -2.6658 H   0  0  0  0  0  0  0  0  0  0  0  0
   -5.7568   -0.7715   -1.2704 H   0  0  0  0  0  0  0  0  0  0  0  0
   -3.2124   -1.3578   -1.1289 N   0  0  0  0  0  0  0  0  0  0  0  0
   -1.8971   -1.8843   -0.8752 C   0  0  2  0  0  0  0  0  0  0  0  0
   -1.2676   -1.0599    0.2399 C   0  0  0  0  0  0  0  0  0  0  0  0
   -1.6270    0.0833    0.5138 O   0  0  0  0  0  0  0  0  0  0  0  0
   -1.0364   -1.8506   -2.1285 C   0  0  0  0  0  0  0  0  0  0  0  0
   -3.5631   -0.6202   -0.5206 H   0  0  0  0  0  0  0  0  0  0  0  0
   -2.0301   -2.9174   -0.5360 H   0  0  0  0  0  0  0  0  0  0  0  0
   -0.8921   -0.8236   -2.4833 H   0  0  0  0  0  0  0  0  0  0  0  0
   -0.0457   -2.2777   -1.9410 H   0  0  0  0  0  0  0  0  0  0  0  0
   -1.5052   -2.4193   -2.9387 H   0  0  0  0  0  0  0  0  0  0  0  0
   -0.2267   -1.7335    0.8672 N   0  0  0  0  0  0  0  0  0  0  0  0
    0.5363   -1.1590    1.9465 C   0  0  2  0  0  0  0  0  0  0  0  0
    1.9387   -1.7517    1.8717 C   0  0  0  0  0  0  0  0  0  0  0  0
    2.1930   -2.9135    2.1828 O   0  0  0  0  0  0  0  0  0  0  0  0
   -0.0964   -1.4482    3.3058 C   0  0  0  0  0  0  0  0  0  0  0  0
   -1.4279   -0.7461    3.6013 C   0  0  0  0  0  0  0  0  0  0  0  0
   -1.5662    0.3664    3.0147 O   0  5  0  0  0  0  0  0  0  0  0  0
   -2.2171   -1.3384    4.3870 O   0  0  0  0  0  0  0  0  0  0  0  0
   -0.0113   -2.6869    0.5854 H   0  0  0  0  0  0  0  0  0  0  0  0
    0.5900   -0.0812    1.7558 H   0  0  0  0  0  0  0  0  0  0  0  0
    0.6092   -1.1837    4.1053 H   0  0  0  0  0  0  0  0  0  0  0  0
   -0.2862   -2.5251    3.4033 H   0  0  0  0  0  0  0  0  0  0  0  0
    2.8617   -0.8460    1.3675 N   0  0  0  0  0  0  0  0  0  0  0  0
    4.2538   -1.1764    1.1694 C   0  0  2  0  0  0  0  0  0  0  0  0
    5.0716    0.0925    1.3710 C   0  0  0  0  0  0  0  0  0  0  0  0
    4.5983    1.2210    1.2550 O   0  0  0  0  0  0  0  0  0  0  0  0
    4.4920   -1.7627   -0.2134 C   0  0  0  0  0  0  0  0  0  0  0  0
    2.5517    0.0809    1.0908 H   0  0  0  0  0  0  0  0  0  0  0  0
    4.5179   -1.9082    1.9406 H   0  0  0  0  0  0  0  0  0  0  0  0
    4.2328   -1.0438   -0.9993 H   0  0  0  0  0  0  0  0  0  0  0  0
    5.5425   -2.0390   -0.3516 H   0  0  0  0  0  0  0  0  0  0  0  0
    3.8806   -2.6584   -0.3676 H   0  0  0  0  0  0  0  0  0  0  0  0
    6.4021   -0.1835    1.6532 N   0  0  0  0  0  0  0  0  0  0  0  0
    7.3837    0.8529    1.8732 C   0  0  0  0  0  0  0  0  0  0  0  0
    6.7027   -1.1490    1.7492 H   0  0  0  0  0  0  0  0  0  0  0  0
    7.8824    1.0939    0.9229 H   0  0  0  0  0  0  0  0  0  0  0  0
    6.8856    1.7524    2.2642 H   0  0  0  0  0  0  0  0  0  0  0  0
    8.1306    0.5019    2.6004 H   0  0  0  0  0  0  0  0  0  0  0  0
  1  3  1  0  0  0  0
  1  7  1  0  0  0  0
  1  2  2  0  0  0  0
 30 31  1  0  0  0  0
 31 39  1  0  0  0  0
 31 32  2  0  0  0  0
  8  9  1  0  0  0  0
  9 17  1  0  0  0  0
  9 10  2  0  0  0  0
 18 19  1  0  0  0  0
 19 29  1  0  0  0  0
 19 20  2  0  0  0  0
 21 22  1  0  0  0  0
 22 23  1  0  0  0  0
 22 24  2  0  0  0  0
 30 33  1  0  0  0  0
  8 11  1  0  0  0  0
 39 40  1  0  0  0  0
 18 21  1  0  0  0  0
 29 30  1  0  0  0  0
  7  8  1  0  0  0  0
 17 18  1  0  0  0  0
  3  4  1  0  0  0  0
  3  5  1  0  0  0  0
  3  6  1  0  0  0  0
 33 36  1  0  0  0  0
 33 37  1  0  0  0  0
 33 38  1  0  0  0  0
 11 14  1  0  0  0  0
 11 15  1  0  0  0  0
 11 16  1  0  0  0  0
 40 42  1  0  0  0  0
 40 43  1  0  0  0  0
 40 44  1  0  0  0  0
 21 27  1  0  0  0  0
 21 28  1  0  0  0  0
 30 35  1  0  0  0  0
  8 13  1  0  0  0  0
 18 26  1  0  0  0  0
 39 41  1  0  0  0  0
  7 12  1  0  0  0  0
 29 34  1  0  0  0  0
 17 25  1  0  0  0  0
M  CHG  1  23  -1
M  END
$$$$

  -OEChem-05262214473D

 44 43  0     1  0  0  0  0  0999 V2000
   -4.0256   -1.8030   -2.1581 C   0  0  0  0  0  0  0  0  0  0  0  0
   -3.7513   -2.6782   -2.9709 O   0  0  0  0  0  0  0  0  0  0  0  0
   -5.3491   -1.1169   -2.2339 C   0  0  0  0  0  0  0  0  0  0  0  0
   -5.3223   -0.2211   -2.8750 H   0  0  0  0  0  0  0  0  0  0  0  0
   -6.1322   -1.7605   -2.6658 H   0  0  0  0  0  0  0  0  0  0  0  0
   -5.7568   -0.7715   -1.2704 H   0  0  0  0  0  0  0  0  0  0  0  0
   -3.2124   -1.3578   -1.1289 N   0  0  0  0  0  0  0  0  0  0  0  0
   -1.8971   -1.8843   -0.8752 C   0  0  2  0  0  0  0  0  0  0  0  0
   -1.2676   -1.0599    0.2399 C   0  0  0  0  0  0  0  0  0  0  0  0
   -1.6270    0.0833    0.5138 O   0  0  0  0  0  0  0  0  0  0  0  0
   -1.0364   -1.8506   -2.1285 C   0  0  0  0  0  0  0  0  0  0  0  0
   -3.5631   -0.6202   -0.5206 H   0  0  0  0  0  0  0  0  0  0  0  0
   -2.0301   -2.9174   -0.5360 H   0  0  0  0  0  0  0  0  0  0  0  0
   -0.8921   -0.8236   -2.4833 H   0  0  0  0  0  0  0  0  0  0  0  0
   -0.0457   -2.2777   -1.9410 H   0  0  0  0  0  0  0  0  0  0  0  0
   -1.5052   -2.4193   -2.9387 H   0  0  0  0  0  0  0  0  0  0  0  0
   -0.2267   -1.7335    0.8672 N   0  0  0  0  0  0  0  0  0  0  0  0
    0.5363   -1.1590    1.9465 C   0  0  2  0  0  0  0  0  0  0  0  0
    1.9387   -1.7517    1.8717 C   0  0  0  0  0  0  0  0  0  0  0  0
    2.1593   -2.9601    1.9200 O   0  0  0  0  0  0  0  0  0  0  0  0
   -0.0964   -1.4482    3.3058 C   0  0  0  0  0  0  0  0  0  0  0  0
   -1.4279   -0.7461    3.6013 C   0  0  0  0  0  0  0  0  0  0  0  0
   -1.5662    0.3664    3.0147 O   0  5  0  0  0  0  0  0  0  0  0  0
   -2.2171   -1.3384    4.3870 O   0  0  0  0  0  0  0  0  0  0  0  0
   -0.0113   -2.6869    0.5854 H   0  0  0  0  0  0  0  0  0  0  0  0
    0.5900   -0.0812    1.7558 H   0  0  0  0  0  0  0  0  0  0  0  0
    0.6092   -1.1837    4.1053 H   0  0  0  0  0  0  0  0  0  0  0  0
   -0.2862   -2.5251    3.4033 H   0  0  0  0  0  0  0  0  0  0  0  0
    2.9088   -0.7754    1.6923 N   0  0  0  0  0  0  0  0  0  0  0  0
    4.3137   -1.0839    1.5601 C   0  0  2  0  0  0  0  0  0  0  0  0
    5.1073    0.0800    2.1388 C   0  0  0  0  0  0  0  0  0  0  0  0
    4.6489    1.2153    2.2493 O   0  0  0  0  0  0  0  0  0  0  0  0
    4.6916   -1.3308    0.1078 C   0  0  0  0  0  0  0  0  0  0  0  0
    2.6293    0.1981    1.6157 H   0  0  0  0  0  0  0  0  0  0  0  0
    4.4973   -1.9843    2.1564 H   0  0  0  0  0  0  0  0  0  0  0  0
    4.5145   -0.4396   -0.5053 H   0  0  0  0  0  0  0  0  0  0  0  0
    5.7506   -1.5925    0.0124 H   0  0  0  0  0  0  0  0  0  0  0  0
    4.0987   -2.1487   -0.3155 H   0  0  0  0  0  0  0  0  0  0  0  0
    6.4019   -0.2881    2.4773 N   0  0  0  0  0  0  0  0  0  0  0  0
    7.3564    0.6417    3.0346 C   0  0  0  0  0  0  0  0  0  0  0  0
    6.6906   -1.2560    2.3693 H   0  0  0  0  0  0  0  0  0  0  0  0
    7.9497    1.0890    2.2235 H   0  0  0  0  0  0  0  0  0  0  0  0
    6.8214    1.4346    3.5777 H   0  0  0  0  0  0  0  0  0  0  0  0
    8.0249    0.1095    3.7273 H   0  0  0  0  0  0  0  0  0  0  0  0
  1  3  1  0  0  0  0
  1  7  1  0  0  0  0
  1  2  2  0  0  0  0
 30 31  1  0  0  0  0
 31 39  1  0  0  0  0
 31 32  2  0  0  0  0
  8  9  1  0  0  0  0
  9 17  1  0  0  0  0
  9 10  2  0  0  0  0
 18 19  1  0  0  0  0
 19 29  1  0  0  0  0
 19 20  2  0  0  0  0
 21 22  1  0  0  0  0
 22 23  1  0  0  0  0
 22 24  2  0  0  0  0
 30 33  1  0  0  0  0
  8 11  1  0  0  0  0
 39 40  1  0  0  0  0
 18 21  1  0  0  0  0
 29 30  1  0  0  0  0
  7  8  1  0  0  0  0
 17 18  1  0  0  0  0
  3  4  1  0  0  0  0
  3  5  1  0  0  0  0
  3  6  1  0  0  0  0
 33 36  1  0  0  0  0
 33 37  1  0  0  0  0
 33 38  1  0  0  0  0
 11 14  1  0  0  0  0
 11 15  1  0  0  0  0
 11 16  1  0  0  0  0
 40 42  1  0  0  0  0
 40 43  1  0  0  0  0
 40 44  1  0  0  0  0
 21 27  1  0  0  0  0
 21 28  1  0  0  0  0
 30 35  1  0  0  0  0
  8 13  1  0  0  0  0
 18 26  1  0  0  0  0
 39 41  1  0  0  0  0
  7 12  1  0  0  0  0
 29 34  1  0  0  0  0
 17 25  1  0  0  0  0
M  CHG  1  23  -1
M  END
$$$$

  -OEChem-05262214473D

 44 43  0     1  0  0  0  0  0999 V2000
   -4.0256   -1.8030   -2.1581 C   0  0  0  0  0  0  0  0  0  0  0  0
   -3.7513   -2.6782   -2.9709 O   0  0  0  0  0  0  0  0  0  0  0  0
   -5.3491   -1.1169   -2.2339 C   0  0  0  0  0  0  0  0  0  0  0  0
   -5.3223   -0.2211   -2.8750 H   0  0  0  0  0  0  0  0  0  0  0  0
   -6.1322   -1.7605   -2.6658 H   0  0  0  0  0  0  0  0  0  0  0  0
   -5.7568   -0.7715   -1.2704 H   0  0  0  0  0  0  0  0  0  0  0  0
   -3.2124   -1.3578   -1.1289 N   0  0  0  0  0  0  0  0  0  0  0  0
   -1.8971   -1.8843   -0.8752 C   0  0  2  0  0  0  0  0  0  0  0  0
   -1.2676   -1.0599    0.2399 C   0  0  0  0  0  0  0  0  0  0  0  0
   -1.6270    0.0833    0.5138 O   0  0  0  0  0  0  0  0  0  0  0  0
   -1.0364   -1.8506   -2.1285 C   0  0  0  0  0  0  0  0  0  0  0  0
   -3.5631   -0.6202   -0.5206 H   0  0  0  0  0  0  0  0  0  0  0  0
   -2.0301   -2.9174   -0.5360 H   0  0  0  0  0  0  0  0  0  0  0  0
   -0.8921   -0.8236   -2.4833 H   0  0  0  0  0  0  0  0  0  0  0  0
   -0.0457   -2.2777   -1.9410 H   0  0  0  0  0  0  0  0  0  0  0  0
   -1.5052   -2.4193   -2.9387 H   0  0  0  0  0  0  0  0  0  0  0  0
   -0.2267   -1.7335    0.8672 N   0  0  0  0  0  0  0  0  0  0  0  0
    0.5363   -1.1590    1.9465 C   0  0  2  0  0  0  0  0  0  0  0  0
    1.9387   -1.7517    1.8717 C   0  0  0  0  0  0  0  0  0  0  0  0
    2.1526   -2.9421    1.6517 O   0  0  0  0  0  0  0  0  0  0  0  0
   -0.0964   -1.4482    3.3058 C   0  0  0  0  0  0  0  0  0  0  0  0
   -1.4279   -0.7461    3.6013 C   0  0  0  0  0  0  0  0  0  0  0  0
   -1.5662    0.3664    3.0147 O   0  5  0  0  0  0  0  0  0  0  0  0
   -2.2171   -1.3384    4.3870 O   0  0  0  0  0  0  0  0  0  0  0  0
   -0.0113   -2.6869    0.5854 H   0  0  0  0  0  0  0  0  0  0  0  0
    0.5900   -0.0812    1.7558 H   0  0  0  0  0  0  0  0  0  0  0  0
    0.6092   -1.1837    4.1053 H   0  0  0  0  0  0  0  0  0  0  0  0
   -0.2862   -2.5251    3.4033 H   0  0  0  0  0  0  0  0  0  0  0  0
    2.9225   -0.7852    2.0277 N   0  0  0  0  0  0  0  0  0  0  0  0
    4.3334   -1.0884    1.9654 C   0  0  2  0  0  0  0  0  0  0  0  0
    5.0644   -0.1153    2.8810 C   0  0  0  0  0  0  0  0  0  0  0  0
    4.5977    0.9723    3.2135 O   0  0  0  0  0  0  0  0  0  0  0  0
    4.8577   -0.9926    0.5411 C   0  0  0  0  0  0  0  0  0  0  0  0
    2.6528    0.1853    2.1584 H   0  0  0  0  0  0  0  0  0  0  0  0
    4.4547   -2.1089    2.3448 H   0  0  0  0  0  0  0  0  0  0  0  0
    4.7446    0.0228    0.1440 H   0  0  0  0  0  0  0  0  0  0  0  0
    5.9207   -1.2504    0.4914 H   0  0  0  0  0  0  0  0  0  0  0  0
    4.3107   -1.6716   -0.1220 H   0  0  0  0  0  0  0  0  0  0  0  0
    6.3174   -0.5854    3.2485 N   0  0  0  0  0  0  0  0  0  0  0  0
    7.2104    0.1614    4.1034 C   0  0  0  0  0  0  0  0  0  0  0  0
    6.6151   -1.5068    2.9416 H   0  0  0  0  0  0  0  0  0  0  0  0
    7.8838    0.7736    3.4855 H   0  0  0  0  0  0  0  0  0  0  0  0
    6.6232    0.8158    4.7644 H   0  0  0  0  0  0  0  0  0  0  0  0
    7.8044   -0.5365    4.7117 H   0  0  0  0  0  0  0  0  0  0  0  0
  1  3  1  0  0  0  0
  1  7  1  0  0  0  0
  1  2  2  0  0  0  0
 30 31  1  0  0  0  0
 31 39  1  0  0  0  0
 31 32  2  0  0  0  0
  8  9  1  0  0  0  0
  9 17  1  0  0  0  0
  9 10  2  0  0  0  0
 18 19  1  0  0  0  0
 19 29  1  0  0  0  0
 19 20  2  0  0  0  0
 21 22  1  0  0  0  0
 22 23  1  0  0  0  0
 22 24  2  0  0  0  0
 30 33  1  0  0  0  0
  8 11  1  0  0  0  0
 39 40  1  0  0  0  0
 18 21  1  0  0  0  0
 29 30  1  0  0  0  0
  7  8  1  0  0  0  0
 17 18  1  0  0  0  0
  3  4  1  0  0  0  0
  3  5  1  0  0  0  0
  3  6  1  0  0  0  0
 33 36  1  0  0  0  0
 33 37  1  0  0  0  0
 33 38  1  0  0  0  0
 11 14  1  0  0  0  0
 11 15  1  0  0  0  0
 11 16  1  0  0  0  0
 40 42  1  0  0  0  0
 40 43  1  0  0  0  0
 40 44  1  0  0  0  0
 21 27  1  0  0  0  0
 21 28  1  0  0  0  0
 30 35  1  0  0  0  0
  8 13  1  0  0  0  0
 18 26  1  0  0  0  0
 39 41  1  0  0  0  0
  7 12  1  0  0  0  0
 29 34  1  0  0  0  0
 17 25  1  0  0  0  0
M  CHG  1  23  -1
M  END
$$$$

  -OEChem-05262214473D

 44 43  0     1  0  0  0  0  0999 V2000
   -4.0256   -1.8030   -2.1581 C   0  0  0  0  0  0  0  0  0  0  0  0
   -3.7513   -2.6782   -2.9709 O   0  0  0  0  0  0  0  0  0  0  0  0
   -5.3491   -1.1169   -2.2339 C   0  0  0  0  0  0  0  0  0  0  0  0
   -5.3223   -0.2211   -2.8750 H   0  0  0  0  0  0  0  0  0  0  0  0
   -6.1322   -1.7605   -2.6658 H   0  0  0  0  0  0  0  0  0  0  0  0
   -5.7568   -0.7715   -1.2704 H   0  0  0  0  0  0  0  0  0  0  0  0
   -3.2124   -1.3578   -1.1289 N   0  0  0  0  0  0  0  0  0  0  0  0
   -1.8971   -1.8843   -0.8752 C   0  0  2  0  0  0  0  0  0  0  0  0
   -1.2676   -1.0599    0.2399 C   0  0  0  0  0  0  0  0  0  0  0  0
   -1.6270    0.0833    0.5138 O   0  0  0  0  0  0  0  0  0  0  0  0
   -1.0364   -1.8506   -2.1285 C   0  0  0  0  0  0  0  0  0  0  0  0
   -3.5631   -0.6202   -0.5206 H   0  0  0  0  0  0  0  0  0  0  0  0
   -2.0301   -2.9174   -0.5360 H   0  0  0  0  0  0  0  0  0  0  0  0
   -0.8921   -0.8236   -2.4833 H   0  0  0  0  0  0  0  0  0  0  0  0
   -0.0457   -2.2777   -1.9410 H   0  0  0  0  0  0  0  0  0  0  0  0
   -1.5052   -2.4193   -2.9387 H   0  0  0  0  0  0  0  0  0  0  0  0
   -0.2267   -1.7335    0.8672 N   0  0  0  0  0  0  0  0  0  0  0  0
    0.5363   -1.1590    1.9465 C   0  0  2  0  0  0  0  0  0  0  0  0
    1.9387   -1.7517    1.8717 C   0  0  0  0  0  0  0  0  0  0  0  0
    2.1733   -2.8608    1.3961 O   0  0  0  0  0  0  0  0  0  0  0  0
   -0.0964   -1.4482    3.3058 C   0  0  0  0  0  0  0  0  0  0  0  0
   -1.4279   -0.7461    3.6013 C   0  0  0  0  0  0  0  0  0  0  0  0
   -1.5662    0.3664    3.0147 O   0  5  0  0  0  0  0  0  0  0  0  0
   -2.2171   -1.3384    4.3870 O   0  0  0  0  0  0  0  0  0  0  0  0
   -0.0113   -2.6869    0.5854 H   0  0  0  0  0  0  0  0  0  0  0  0
    0.5900   -0.0812    1.7558 H   0  0  0  0  0  0  0  0  0  0  0  0
    0.6092   -1.1837    4.1053 H   0  0  0  0  0  0  0  0  0  0  0  0
   -0.2862   -2.5251    3.4033 H   0  0  0  0  0  0  0  0  0  0  0  0
    2.9020   -0.8747    2.3506 N   0  0  0  0  0  0  0  0  0  0  0  0
    4.3117   -1.1894    2.3579 C   0  0  2  0  0  0  0  0  0  0  0  0
    4.9457   -0.4801    3.5472 C   0  0  0  0  0  0  0  0  0  0  0  0
    4.4481    0.5087    4.0817 O   0  0  0  0  0  0  0  0  0  0  0  0
    4.9787   -0.7713    1.0568 C   0  0  0  0  0  0  0  0  0  0  0  0
    2.6208    0.0434    2.6819 H   0  0  0  0  0  0  0  0  0  0  0  0
    4.3930   -2.2735    2.4927 H   0  0  0  0  0  0  0  0  0  0  0  0
    4.9073    0.3118    0.9044 H   0  0  0  0  0  0  0  0  0  0  0  0
    6.0412   -1.0363    1.0526 H   0  0  0  0  0  0  0  0  0  0  0  0
    4.5020   -1.2596    0.2000 H   0  0  0  0  0  0  0  0  0  0  0  0
    6.1544   -1.0550    3.9140 N   0  0  0  0  0  0  0  0  0  0  0  0
    6.9558   -0.5551    5.0067 C   0  0  0  0  0  0  0  0  0  0  0  0
    6.4815   -1.8843    3.4271 H   0  0  0  0  0  0  0  0  0  0  0  0
    7.6891    0.1694    4.6227 H   0  0  0  0  0  0  0  0  0  0  0  0
    6.3045   -0.0620    5.7433 H   0  0  0  0  0  0  0  0  0  0  0  0
    7.4842   -1.3920    5.4866 H   0  0  0  0  0  0  0  0  0  0  0  0
  1  3  1  0  0  0  0
  1  7  1  0  0  0  0
  1  2  2  0  0  0  0
 30 31  1  0  0  0  0
 31 39  1  0  0  0  0
 31 32  2  0  0  0  0
  8  9  1  0  0  0  0
  9 17  1  0  0  0  0
  9 10  2  0  0  0  0
 18 19  1  0  0  0  0
 19 29  1  0  0  0  0
 19 20  2  0  0  0  0
 21 22  1  0  0  0  0
 22 23  1  0  0  0  0
 22 24  2  0  0  0  0
 30 33  1  0  0  0  0
  8 11  1  0  0  0  0
 39 40  1  0  0  0  0
 18 21  1  0  0  0  0
 29 30  1  0  0  0  0
  7  8  1  0  0  0  0
 17 18  1  0  0  0  0
  3  4  1  0  0  0  0
  3  5  1  0  0  0  0
  3  6  1  0  0  0  0
 33 36  1  0  0  0  0
 33 37  1  0  0  0  0
 33 38  1  0  0  0  0
 11 14  1  0  0  0  0
 11 15  1  0  0  0  0
 11 16  1  0  0  0  0
 40 42  1  0  0  0  0
 40 43  1  0  0  0  0
 40 44  1  0  0  0  0
 21 27  1  0  0  0  0
 21 28  1  0  0  0  0
 30 35  1  0  0  0  0
  8 13  1  0  0  0  0
 18 26  1  0  0  0  0
 39 41  1  0  0  0  0
  7 12  1  0  0  0  0
 29 34  1  0  0  0  0
 17 25  1  0  0  0  0
M  CHG  1  23  -1
M  END
$$$$

  -OEChem-05262214473D

 44 43  0     1  0  0  0  0  0999 V2000
   -4.0256   -1.8030   -2.1581 C   0  0  0  0  0  0  0  0  0  0  0  0
   -3.7513   -2.6782   -2.9709 O   0  0  0  0  0  0  0  0  0  0  0  0
   -5.3491   -1.1169   -2.2339 C   0  0  0  0  0  0  0  0  0  0  0  0
   -5.3223   -0.2211   -2.8750 H   0  0  0  0  0  0  0  0  0  0  0  0
   -6.1322   -1.7605   -2.6658 H   0  0  0  0  0  0  0  0  0  0  0  0
   -5.7568   -0.7715   -1.2704 H   0  0  0  0  0  0  0  0  0  0  0  0
   -3.2124   -1.3578   -1.1289 N   0  0  0  0  0  0  0  0  0  0  0  0
   -1.8971   -1.8843   -0.8752 C   0  0  2  0  0  0  0  0  0  0  0  0
   -1.2676   -1.0599    0.2399 C   0  0  0  0  0  0  0  0  0  0  0  0
   -1.6270    0.0833    0.5138 O   0  0  0  0  0  0  0  0  0  0  0  0
   -1.0364   -1.8506   -2.1285 C   0  0  0  0  0  0  0  0  0  0  0  0
   -3.5631   -0.6202   -0.5206 H   0  0  0  0  0  0  0  0  0  0  0  0
   -2.0301   -2.9174   -0.5360 H   0  0  0  0  0  0  0  0  0  0  0  0
   -0.8921   -0.8236   -2.4833 H   0  0  0  0  0  0  0  0  0  0  0  0
   -0.0457   -2.2777   -1.9410 H   0  0  0  0  0  0  0  0  0  0  0  0
   -1.5052   -2.4193   -2.9387 H   0  0  0  0  0  0  0  0  0  0  0  0
   -0.2267   -1.7335    0.8672 N   0  0  0  0  0  0  0  0  0  0  0  0
    0.5363   -1.1590    1.9465 C   0  0  2  0  0  0  0  0  0  0  0  0
    1.9387   -1.7517    1.8717 C   0  0  0  0  0  0  0  0  0  0  0  0
    2.2201   -2.7216    1.1707 O   0  0  0  0  0  0  0  0  0  0  0  0
   -0.0964   -1.4482    3.3058 C   0  0  0  0  0  0  0  0  0  0  0  0
   -1.4279   -0.7461    3.6013 C   0  0  0  0  0  0  0  0  0  0  0  0
   -1.5662    0.3664    3.0147 O   0  5  0  0  0  0  0  0  0  0  0  0
   -2.2171   -1.3384    4.3870 O   0  0  0  0  0  0  0  0  0  0  0  0
   -0.0113   -2.6869    0.5854 H   0  0  0  0  0  0  0  0  0  0  0  0
    0.5900   -0.0812    1.7558 H   0  0  0  0  0  0  0  0  0  0  0  0
    0.6092   -1.1837    4.1053 H   0  0  0  0  0  0  0  0  0  0  0  0
   -0.2862   -2.5251    3.4033 H   0  0  0  0  0  0  0  0  0  0  0  0
    2.8484   -1.0378    2.6392 N   0  0  0  0  0  0  0  0  0  0  0  0
    4.2499   -1.3802    2.7108 C   0  0  2  0  0  0  0  0  0  0  0  0
    4.7594   -0.9896    4.0918 C   0  0  0  0  0  0  0  0  0  0  0  0
    4.2103   -0.1440    4.7950 O   0  0  0  0  0  0  0  0  0  0  0  0
    5.0466   -0.6818    1.6198 C   0  0  0  0  0  0  0  0  0  0  0  0
    2.5353   -0.2179    3.1505 H   0  0  0  0  0  0  0  0  0  0  0  0
    4.3165   -2.4670    2.5902 H   0  0  0  0  0  0  0  0  0  0  0  0
    4.9917    0.4079    1.7242 H   0  0  0  0  0  0  0  0  0  0  0  0
    6.1037   -0.9646    1.6578 H   0  0  0  0  0  0  0  0  0  0  0  0
    4.6597   -0.9406    0.6283 H   0  0  0  0  0  0  0  0  0  0  0  0
    5.9241   -1.6651    4.4287 N   0  0  0  0  0  0  0  0  0  0  0  0
    6.6099   -1.4590    5.6830 C   0  0  0  0  0  0  0  0  0  0  0  0
    6.2987   -2.3629    3.7928 H   0  0  0  0  0  0  0  0  0  0  0  0
    7.3789   -0.6826    5.5577 H   0  0  0  0  0  0  0  0  0  0  0  0
    5.8869   -1.1389    6.4477 H   0  0  0  0  0  0  0  0  0  0  0  0
    7.0860   -2.3989    5.9991 H   0  0  0  0  0  0  0  0  0  0  0  0
  1  3  1  0  0  0  0
  1  7  1  0  0  0  0
  1  2  2  0  0  0  0
 30 31  1  0  0  0  0
 31 39  1  0  0  0  0
 31 32  2  0  0  0  0
  8  9  1  0  0  0  0
  9 17  1  0  0  0  0
  9 10  2  0  0  0  0
 18 19  1  0  0  0  0
 19 29  1  0  0  0  0
 19 20  2  0  0  0  0
 21 22  1  0  0  0  0
 22 23  1  0  0  0  0
 22 24  2  0  0  0  0
 30 33  1  0  0  0  0
  8 11  1  0  0  0  0
 39 40  1  0  0  0  0
 18 21  1  0  0  0  0
 29 30  1  0  0  0  0
  7  8  1  0  0  0  0
 17 18  1  0  0  0  0
  3  4  1  0  0  0  0
  3  5  1  0  0  0  0
  3  6  1  0  0  0  0
 33 36  1  0  0  0  0
 33 37  1  0  0  0  0
 33 38  1  0  0  0  0
 11 14  1  0  0  0  0
 11 15  1  0  0  0  0
 11 16  1  0  0  0  0
 40 42  1  0  0  0  0
 40 43  1  0  0  0  0
 40 44  1  0  0  0  0
 21 27  1  0  0  0  0
 21 28  1  0  0  0  0
 30 35  1  0  0  0  0
  8 13  1  0  0  0  0
 18 26  1  0  0  0  0
 39 41  1  0  0  0  0
  7 12  1  0  0  0  0
 29 34  1  0  0  0  0
 17 25  1  0  0  0  0
M  CHG  1  23  -1
M  END
$$$$

  -OEChem-05262214473D

 44 43  0     1  0  0  0  0  0999 V2000
   -4.0256   -1.8030   -2.1581 C   0  0  0  0  0  0  0  0  0  0  0  0
   -3.7513   -2.6782   -2.9709 O   0  0  0  0  0  0  0  0  0  0  0  0
   -5.3491   -1.1169   -2.2339 C   0  0  0  0  0  0  0  0  0  0  0  0
   -5.3223   -0.2211   -2.8750 H   0  0  0  0  0  0  0  0  0  0  0  0
   -6.1322   -1.7605   -2.6658 H   0  0  0  0  0  0  0  0  0  0  0  0
   -5.7568   -0.7715   -1.2704 H   0  0  0  0  0  0  0  0  0  0  0  0
   -3.2124   -1.3578   -1.1289 N   0  0  0  0  0  0  0  0  0  0  0  0
   -1.8971   -1.8843   -0.8752 C   0  0  2  0  0  0  0  0  0  0  0  0
   -1.2676   -1.0599    0.2399 C   0  0  0  0  0  0  0  0  0  0  0  0
   -1.6270    0.0833    0.5138 O   0  0  0  0  0  0  0  0  0  0  0  0
   -1.0364   -1.8506   -2.1285 C   0  0  0  0  0  0  0  0  0  0  0  0
   -3.5631   -0.6202   -0.5206 H   0  0  0  0  0  0  0  0  0  0  0  0
   -2.0301   -2.9174   -0.5360 H   0  0  0  0  0  0  0  0  0  0  0  0
   -0.8921   -0.8236   -2.4833 H   0  0  0  0  0  0  0  0  0  0  0  0
   -0.0457   -2.2777   -1.9410 H   0  0  0  0  0  0  0  0  0  0  0  0
   -1.5052   -2.4193   -2.9387 H   0  0  0  0  0  0  0  0  0  0  0  0
   -0.2267   -1.7335    0.8672 N   0  0  0  0  0  0  0  0  0  0  0  0
    0.5363   -1.1590    1.9465 C   0  0  2  0  0  0  0  0  0  0  0  0
    2.0062   -1.4433    1.6598 C   0  0  0  0  0  0  0  0  0  0  0  0
    2.3919   -2.0210    0.6455 O   0  0  0  0  0  0  0  0  0  0  0  0
    0.1317   -1.7395    3.2996 C   0  0  0  0  0  0  0  0  0  0  0  0
   -1.2637   -1.3627    3.8135 C   0  0  0  0  0  0  0  0  0  0  0  0
   -1.6747   -0.2355    3.4118 O   0  5  0  0  0  0  0  0  0  0  0  0
   -1.8313   -2.1963    4.5710 O   0  0  0  0  0  0  0  0  0  0  0  0
   -0.0113   -2.6869    0.5854 H   0  0  0  0  0  0  0  0  0  0  0  0
    0.3653   -0.0771    1.9125 H   0  0  0  0  0  0  0  0  0  0  0  0
    0.8639   -1.4422    4.0628 H   0  0  0  0  0  0  0  0  0  0  0  0
    0.1589   -2.8361    3.2542 H   0  0  0  0  0  0  0  0  0  0  0  0
    2.8386   -0.9298    2.6445 N   0  0  0  0  0  0  0  0  0  0  0  0
    4.2777   -1.0405    2.5881 C   0  0  2  0  0  0  0  0  0  0  0  0
    4.7999   -1.1168    4.0167 C   0  0  0  0  0  0  0  0  0  0  0  0
    4.1693   -0.6971    4.9847 O   0  0  0  0  0  0  0  0  0  0  0  0
    4.8943    0.1349    1.8459 C   0  0  0  0  0  0  0  0  0  0  0  0
    2.4337   -0.4234    3.4265 H   0  0  0  0  0  0  0  0  0  0  0  0
    4.5026   -1.9769    2.0659 H   0  0  0  0  0  0  0  0  0  0  0  0
    4.6796    1.0820    2.3543 H   0  0  0  0  0  0  0  0  0  0  0  0
    5.9827    0.0351    1.7791 H   0  0  0  0  0  0  0  0  0  0  0  0
    4.4953    0.2060    0.8283 H   0  0  0  0  0  0  0  0  0  0  0  0
    6.0715   -1.6694    4.0787 N   0  0  0  0  0  0  0  0  0  0  0  0
    6.7886   -1.8381    5.3210 C   0  0  0  0  0  0  0  0  0  0  0  0
    6.5113   -2.0078    3.2279 H   0  0  0  0  0  0  0  0  0  0  0  0
    7.4214   -0.9568    5.5022 H   0  0  0  0  0  0  0  0  0  0  0  0
    6.0703   -1.9496    6.1466 H   0  0  0  0  0  0  0  0  0  0  0  0
    7.4202   -2.7367    5.2606 H   0  0  0  0  0  0  0  0  0  0  0  0
  1  3  1  0  0  0  0
  1  7  1  0  0  0  0
  1  2  2  0  0  0  0
 30 31  1  0  0  0  0
 31 39  1  0  0  0  0
 31 32  2  0  0  0  0
  8  9  1  0  0  0  0
  9 17  1  0  0  0  0
  9 10  2  0  0  0  0
 18 19  1  0  0  0  0
 19 29  1  0  0  0  0
 19 20  2  0  0  0  0
 21 22  1  0  0  0  0
 22 23  1  0  0  0  0
 22 24  2  0  0  0  0
 30 33  1  0  0  0  0
  8 11  1  0  0  0  0
 39 40  1  0  0  0  0
 18 21  1  0  0  0  0
 29 30  1  0  0  0  0
  7  8  1  0  0  0  0
 17 18  1  0  0  0  0
  3  4  1  0  0  0  0
  3  5  1  0  0  0  0
  3  6  1  0  0  0  0
 33 36  1  0  0  0  0
 33 37  1  0  0  0  0
 33 38  1  0  0  0  0
 11 14  1  0  0  0  0
 11 15  1  0  0  0  0
 11 16  1  0  0  0  0
 40 42  1  0  0  0  0
 40 43  1  0  0  0  0
 40 44  1  0  0  0  0
 21 27  1  0  0  0  0
 21 28  1  0  0  0  0
 30 35  1  0  0  0  0
  8 13  1  0  0  0  0
 18 26  1  0  0  0  0
 39 41  1  0  0  0  0
  7 12  1  0  0  0  0
 29 34  1  0  0  0  0
 17 25  1  0  0  0  0
M  CHG  1  23  -1
M  END
$$$$

  -OEChem-05262214473D

 44 43  0     1  0  0  0  0  0999 V2000
   -4.0256   -1.8030   -2.1581 C   0  0  0  0  0  0  0  0  0  0  0  0
   -3.7513   -2.6782   -2.9709 O   0  0  0  0  0  0  0  0  0  0  0  0
   -5.3491   -1.1169   -2.2339 C   0  0  0  0  0  0  0  0  0  0  0  0
   -5.3223   -0.2211   -2.8750 H   0  0  0  0  0  0  0  0  0  0  0  0
   -6.1322   -1.7605   -2.6658 H   0  0  0  0  0  0  0  0  0  0  0  0
   -5.7568   -0.7715   -1.2704 H   0  0  0  0  0  0  0  0  0  0  0  0
   -3.2124   -1.3578   -1.1289 N   0  0  0  0  0  0  0  0  0  0  0  0
   -1.8971   -1.8843   -0.8752 C   0  0  2  0  0  0  0  0  0  0  0  0
   -1.2676   -1.0599    0.2399 C   0  0  0  0  0  0  0  0  0  0  0  0
   -1.6270    0.0833    0.5138 O   0  0  0  0  0  0  0  0  0  0  0  0
   -1.0364   -1.8506   -2.1285 C   0  0  0  0  0  0  0  0  0  0  0  0
   -3.5631   -0.6202   -0.5206 H   0  0  0  0  0  0  0  0  0  0  0  0
   -2.0301   -2.9174   -0.5360 H   0  0  0  0  0  0  0  0  0  0  0  0
   -0.8921   -0.8236   -2.4833 H   0  0  0  0  0  0  0  0  0  0  0  0
   -0.0457   -2.2777   -1.9410 H   0  0  0  0  0  0  0  0  0  0  0  0
   -1.5052   -2.4193   -2.9387 H   0  0  0  0  0  0  0  0  0  0  0  0
   -0.2267   -1.7335    0.8672 N   0  0  0  0  0  0  0  0  0  0  0  0
    0.5363   -1.1590    1.9465 C   0  0  2  0  0  0  0  0  0  0  0  0
    2.0062   -1.4433    1.6598 C   0  0  0  0  0  0  0  0  0  0  0  0
    2.4216   -1.7712    0.5502 O   0  0  0  0  0  0  0  0  0  0  0  0
    0.1317   -1.7395    3.2996 C   0  0  0  0  0  0  0  0  0  0  0  0
   -1.2637   -1.3627    3.8135 C   0  0  0  0  0  0  0  0  0  0  0  0
   -1.6747   -0.2355    3.4118 O   0  5  0  0  0  0  0  0  0  0  0  0
   -1.8313   -2.1963    4.5710 O   0  0  0  0  0  0  0  0  0  0  0  0
   -0.0113   -2.6869    0.5854 H   0  0  0  0  0  0  0  0  0  0  0  0
    0.3653   -0.0771    1.9125 H   0  0  0  0  0  0  0  0  0  0  0  0
    0.8639   -1.4422    4.0628 H   0  0  0  0  0  0  0  0  0  0  0  0
    0.1589   -2.8361    3.2542 H   0  0  0  0  0  0  0  0  0  0  0  0
    2.8049   -1.2369    2.7760 N   0  0  0  0  0  0  0  0  0  0  0  0
    4.2389   -1.4088    2.7542 C   0  0  2  0  0  0  0  0  0  0  0  0
    4.6788   -1.8660    4.1387 C   0  0  0  0  0  0  0  0  0  0  0  0
    4.0148   -1.6660    5.1536 O   0  0  0  0  0  0  0  0  0  0  0  0
    4.9444   -0.1215    2.3571 C   0  0  0  0  0  0  0  0  0  0  0  0
    2.3799   -0.9192    3.6421 H   0  0  0  0  0  0  0  0  0  0  0  0
    4.4518   -2.1970    2.0238 H   0  0  0  0  0  0  0  0  0  0  0  0
    4.7428    0.6799    3.0773 H   0  0  0  0  0  0  0  0  0  0  0  0
    6.0296   -0.2611    2.3133 H   0  0  0  0  0  0  0  0  0  0  0  0
    4.6048    0.2219    1.3740 H   0  0  0  0  0  0  0  0  0  0  0  0
    5.9205   -2.4856    4.1136 N   0  0  0  0  0  0  0  0  0  0  0  0
    6.5610   -2.9966    5.3029 C   0  0  0  0  0  0  0  0  0  0  0  0
    6.3912   -2.6256    3.2244 H   0  0  0  0  0  0  0  0  0  0  0  0
    7.2200   -2.2240    5.7259 H   0  0  0  0  0  0  0  0  0  0  0  0
    5.7947   -3.2701    6.0432 H   0  0  0  0  0  0  0  0  0  0  0  0
    7.1561   -3.8852    5.0458 H   0  0  0  0  0  0  0  0  0  0  0  0
  1  3  1  0  0  0  0
  1  7  1  0  0  0  0
  1  2  2  0  0  0  0
 30 31  1  0  0  0  0
 31 39  1  0  0  0  0
 31 32  2  0  0  0  0
  8  9  1  0  0  0  0
  9 17  1  0  0  0  0
  9 10  2  0  0  0  0
 18 19  1  0  0  0  0
 19 29  1  0  0  0  0
 19 20  2  0  0  0  0
 21 22  1  0  0  0  0
 22 23  1  0  0  0  0
 22 24  2  0  0  0  0
 30 33  1  0  0  0  0
  8 11  1  0  0  0  0
 39 40  1  0  0  0  0
 18 21  1  0  0  0  0
 29 30  1  0  0  0  0
  7  8  1  0  0  0  0
 17 18  1  0  0  0  0
  3  4  1  0  0  0  0
  3  5  1  0  0  0  0
  3  6  1  0  0  0  0
 33 36  1  0  0  0  0
 33 37  1  0  0  0  0
 33 38  1  0  0  0  0
 11 14  1  0  0  0  0
 11 15  1  0  0  0  0
 11 16  1  0  0  0  0
 40 42  1  0  0  0  0
 40 43  1  0  0  0  0
 40 44  1  0  0  0  0
 21 27  1  0  0  0  0
 21 28  1  0  0  0  0
 30 35  1  0  0  0  0
  8 13  1  0  0  0  0
 18 26  1  0  0  0  0
 39 41  1  0  0  0  0
  7 12  1  0  0  0  0
 29 34  1  0  0  0  0
 17 25  1  0  0  0  0
M  CHG  1  23  -1
M  END
$$$$

  -OEChem-05262214473D

 44 43  0     1  0  0  0  0  0999 V2000
   -4.0256   -1.8030   -2.1581 C   0  0  0  0  0  0  0  0  0  0  0  0
   -3.7513   -2.6782   -2.9709 O   0  0  0  0  0  0  0  0  0  0  0  0
   -5.3491   -1.1169   -2.2339 C   0  0  0  0  0  0  0  0  0  0  0  0
   -5.3223   -0.2211   -2.8750 H   0  0  0  0  0  0  0  0  0  0  0  0
   -6.1322   -1.7605   -2.6658 H   0  0  0  0  0  0  0  0  0  0  0  0
   -5.7568   -0.7715   -1.2704 H   0  0  0  0  0  0  0  0  0  0  0  0
   -3.2124   -1.3578   -1.1289 N   0  0  0  0  0  0  0  0  0  0  0  0
   -1.8971   -1.8843   -0.8752 C   0  0  2  0  0  0  0  0  0  0  0  0
   -1.2676   -1.0599    0.2399 C   0  0  0  0  0  0  0  0  0  0  0  0
   -1.6270    0.0833    0.5138 O   0  0  0  0  0  0  0  0  0  0  0  0
   -1.0364   -1.8506   -2.1285 C   0  0  0  0  0  0  0  0  0  0  0  0
   -3.5631   -0.6202   -0.5206 H   0  0  0  0  0  0  0  0  0  0  0  0
   -2.0301   -2.9174   -0.5360 H   0  0  0  0  0  0  0  0  0  0  0  0
   -0.8921   -0.8236   -2.4833 H   0  0  0  0  0  0  0  0  0  0  0  0
   -0.0457   -2.2777   -1.9410 H   0  0  0  0  0  0  0  0  0  0  0  0
   -1.5052   -2.4193   -2.9387 H   0  0  0  0  0  0  0  0  0  0  0  0
   -0.2267   -1.7335    0.8672 N   0  0  0  0  0  0  0  0  0  0  0  0
    0.5363   -1.1590    1.9465 C   0  0  2  0  0  0  0  0  0  0  0  0
    2.0062   -1.4433    1.6598 C   0  0  0  0  0  0  0  0  0  0  0  0
    2.4671   -1.5076    0.5219 O   0  0  0  0  0  0  0  0  0  0  0  0
    0.1317   -1.7395    3.2996 C   0  0  0  0  0  0  0  0  0  0  0  0
   -1.2637   -1.3627    3.8135 C   0  0  0  0  0  0  0  0  0  0  0  0
   -1.6747   -0.2355    3.4118 O   0  5  0  0  0  0  0  0  0  0  0  0
   -1.8313   -2.1963    4.5710 O   0  0  0  0  0  0  0  0  0  0  0  0
   -0.0113   -2.6869    0.5854 H   0  0  0  0  0  0  0  0  0  0  0  0
    0.3653   -0.0771    1.9125 H   0  0  0  0  0  0  0  0  0  0  0  0
    0.8639   -1.4422    4.0628 H   0  0  0  0  0  0  0  0  0  0  0  0
    0.1589   -2.8361    3.2542 H   0  0  0  0  0  0  0  0  0  0  0  0
    2.7509   -1.5647    2.8247 N   0  0  0  0  0  0  0  0  0  0  0  0
    4.1754   -1.8041    2.8208 C   0  0  2  0  0  0  0  0  0  0  0  0
    4.5195   -2.6143    4.0637 C   0  0  0  0  0  0  0  0  0  0  0  0
    3.8103   -2.6366    5.0675 O   0  0  0  0  0  0  0  0  0  0  0  0
    4.9557   -0.4992    2.7894 C   0  0  0  0  0  0  0  0  0  0  0  0
    2.2934   -1.4493    3.7242 H   0  0  0  0  0  0  0  0  0  0  0  0
    4.3941   -2.3967    1.9258 H   0  0  0  0  0  0  0  0  0  0  0  0
    4.7494    0.1081    3.6783 H   0  0  0  0  0  0  0  0  0  0  0  0
    6.0347   -0.6828    2.7577 H   0  0  0  0  0  0  0  0  0  0  0  0
    4.6850    0.0957    1.9104 H   0  0  0  0  0  0  0  0  0  0  0  0
    5.7332   -3.2753    3.9363 N   0  0  0  0  0  0  0  0  0  0  0  0
    6.2857   -4.1000    4.9854 C   0  0  0  0  0  0  0  0  0  0  0  0
    6.2452   -3.2156    3.0611 H   0  0  0  0  0  0  0  0  0  0  0  0
    6.9529   -3.4940    5.6159 H   0  0  0  0  0  0  0  0  0  0  0  0
    5.4693   -4.5064    5.6005 H   0  0  0  0  0  0  0  0  0  0  0  0
    6.8555   -4.9281    4.5389 H   0  0  0  0  0  0  0  0  0  0  0  0
  1  3  1  0  0  0  0
  1  7  1  0  0  0  0
  1  2  2  0  0  0  0
 30 31  1  0  0  0  0
 31 39  1  0  0  0  0
 31 32  2  0  0  0  0
  8  9  1  0  0  0  0
  9 17  1  0  0  0  0
  9 10  2  0  0  0  0
 18 19  1  0  0  0  0
 19 29  1  0  0  0  0
 19 20  2  0  0  0  0
 21 22  1  0  0  0  0
 22 23  1  0  0  0  0
 22 24  2  0  0  0  0
 30 33  1  0  0  0  0
  8 11  1  0  0  0  0
 39 40  1  0  0  0  0
 18 21  1  0  0  0  0
 29 30  1  0  0  0  0
  7  8  1  0  0  0  0
 17 18  1  0  0  0  0
  3  4  1  0  0  0  0
  3  5  1  0  0  0  0
  3  6  1  0  0  0  0
 33 36  1  0  0  0  0
 33 37  1  0  0  0  0
 33 38  1  0  0  0  0
 11 14  1  0  0  0  0
 11 15  1  0  0  0  0
 11 16  1  0  0  0  0
 40 42  1  0  0  0  0
 40 43  1  0  0  0  0
 40 44  1  0  0  0  0
 21 27  1  0  0  0  0
 21 28  1  0  0  0  0
 30 35  1  0  0  0  0
  8 13  1  0  0  0  0
 18 26  1  0  0  0  0
 39 41  1  0  0  0  0
  7 12  1  0  0  0  0
 29 34  1  0  0  0  0
 17 25  1  0  0  0  0
M  CHG  1  23  -1
M  END
$$$$

  -OEChem-05262214473D

 44 43  0     1  0  0  0  0  0999 V2000
   -4.0256   -1.8030   -2.1581 C   0  0  0  0  0  0  0  0  0  0  0  0
   -3.7513   -2.6782   -2.9709 O   0  0  0  0  0  0  0  0  0  0  0  0
   -5.3491   -1.1169   -2.2339 C   0  0  0  0  0  0  0  0  0  0  0  0
   -5.3223   -0.2211   -2.8750 H   0  0  0  0  0  0  0  0  0  0  0  0
   -6.1322   -1.7605   -2.6658 H   0  0  0  0  0  0  0  0  0  0  0  0
   -5.7568   -0.7715   -1.2704 H   0  0  0  0  0  0  0  0  0  0  0  0
   -3.2124   -1.3578   -1.1289 N   0  0  0  0  0  0  0  0  0  0  0  0
   -1.8971   -1.8843   -0.8752 C   0  0  2  0  0  0  0  0  0  0  0  0
   -1.2676   -1.0599    0.2399 C   0  0  0  0  0  0  0  0  0  0  0  0
   -1.6270    0.0833    0.5138 O   0  0  0  0  0  0  0  0  0  0  0  0
   -1.0364   -1.8506   -2.1285 C   0  0  0  0  0  0  0  0  0  0  0  0
   -3.5631   -0.6202   -0.5206 H   0  0  0  0  0  0  0  0  0  0  0  0
   -2.0301   -2.9174   -0.5360 H   0  0  0  0  0  0  0  0  0  0  0  0
   -0.8921   -0.8236   -2.4833 H   0  0  0  0  0  0  0  0  0  0  0  0
   -0.0457   -2.2777   -1.9410 H   0  0  0  0  0  0  0  0  0  0  0  0
   -1.5052   -2.4193   -2.9387 H   0  0  0  0  0  0  0  0  0  0  0  0
   -0.2267   -1.7335    0.8672 N   0  0  0  0  0  0  0  0  0  0  0  0
    0.5363   -1.1590    1.9465 C   0  0  2  0  0  0  0  0  0  0  0  0
    2.0062   -1.4433    1.6598 C   0  0  0  0  0  0  0  0  0  0  0  0
    2.5252   -1.2481    0.5626 O   0  0  0  0  0  0  0  0  0  0  0  0
    0.1317   -1.7395    3.2996 C   0  0  0  0  0  0  0  0  0  0  0  0
   -1.2637   -1.3627    3.8135 C   0  0  0  0  0  0  0  0  0  0  0  0
   -1.6747   -0.2355    3.4118 O   0  5  0  0  0  0  0  0  0  0  0  0
   -1.8313   -2.1963    4.5710 O   0  0  0  0  0  0  0  0  0  0  0  0
   -0.0113   -2.6869    0.5854 H   0  0  0  0  0  0  0  0  0  0  0  0
    0.3653   -0.0771    1.9125 H   0  0  0  0  0  0  0  0  0  0  0  0
    0.8639   -1.4422    4.0628 H   0  0  0  0  0  0  0  0  0  0  0  0
    0.1589   -2.8361    3.2542 H   0  0  0  0  0  0  0  0  0  0  0  0
    2.6806   -1.8909    2.7873 N   0  0  0  0  0  0  0  0  0  0  0  0
    4.0916   -2.1995    2.7835 C   0  0  2  0  0  0  0  0  0  0  0  0
    4.3328   -3.3106    3.7968 C   0  0  0  0  0  0  0  0  0  0  0  0
    3.5696   -3.5426    4.7322 O   0  0  0  0  0  0  0  0  0  0  0  0
    4.9273   -0.9725    3.1132 C   0  0  0  0  0  0  0  0  0  0  0  0
    2.1800   -1.9776    3.6669 H   0  0  0  0  0  0  0  0  0  0  0  0
    4.3333   -2.5622    1.7785 H   0  0  0  0  0  0  0  0  0  0  0  0
    4.6990   -0.5947    4.1165 H   0  0  0  0  0  0  0  0  0  0  0  0
    5.9977   -1.2013    3.0819 H   0  0  0  0  0  0  0  0  0  0  0  0
    4.7304   -0.1640    2.4008 H   0  0  0  0  0  0  0  0  0  0  0  0
    5.5224   -3.9847    3.5589 N   0  0  0  0  0  0  0  0  0  0  0  0
    5.9813   -5.0732    4.3900 C   0  0  0  0  0  0  0  0  0  0  0  0
    6.0834   -3.7377    2.7490 H   0  0  0  0  0  0  0  0  0  0  0  0
    6.6384   -4.6802    5.1798 H   0  0  0  0  0  0  0  0  0  0  0  0
    5.1161   -5.5742    4.8486 H   0  0  0  0  0  0  0  0  0  0  0  0
    6.5389   -5.7944    3.7745 H   0  0  0  0  0  0  0  0  0  0  0  0
  1  3  1  0  0  0  0
  1  7  1  0  0  0  0
  1  2  2  0  0  0  0
 30 31  1  0  0  0  0
 31 39  1  0  0  0  0
 31 32  2  0  0  0  0
  8  9  1  0  0  0  0
  9 17  1  0  0  0  0
  9 10  2  0  0  0  0
 18 19  1  0  0  0  0
 19 29  1  0  0  0  0
 19 20  2  0  0  0  0
 21 22  1  0  0  0  0
 22 23  1  0  0  0  0
 22 24  2  0  0  0  0
 30 33  1  0  0  0  0
  8 11  1  0  0  0  0
 39 40  1  0  0  0  0
 18 21  1  0  0  0  0
 29 30  1  0  0  0  0
  7  8  1  0  0  0  0
 17 18  1  0  0  0  0
  3  4  1  0  0  0  0
  3  5  1  0  0  0  0
  3  6  1  0  0  0  0
 33 36  1  0  0  0  0
 33 37  1  0  0  0  0
 33 38  1  0  0  0  0
 11 14  1  0  0  0  0
 11 15  1  0  0  0  0
 11 16  1  0  0  0  0
 40 42  1  0  0  0  0
 40 43  1  0  0  0  0
 40 44  1  0  0  0  0
 21 27  1  0  0  0  0
 21 28  1  0  0  0  0
 30 35  1  0  0  0  0
  8 13  1  0  0  0  0
 18 26  1  0  0  0  0
 39 41  1  0  0  0  0
  7 12  1  0  0  0  0
 29 34  1  0  0  0  0
 17 25  1  0  0  0  0
M  CHG  1  23  -1
M  END
$$$$

  -OEChem-05262214473D

 44 43  0     1  0  0  0  0  0999 V2000
   -4.0256   -1.8030   -2.1581 C   0  0  0  0  0  0  0  0  0  0  0  0
   -3.7513   -2.6782   -2.9709 O   0  0  0  0  0  0  0  0  0  0  0  0
   -5.3491   -1.1169   -2.2339 C   0  0  0  0  0  0  0  0  0  0  0  0
   -5.3223   -0.2211   -2.8750 H   0  0  0  0  0  0  0  0  0  0  0  0
   -6.1322   -1.7605   -2.6658 H   0  0  0  0  0  0  0  0  0  0  0  0
   -5.7568   -0.7715   -1.2704 H   0  0  0  0  0  0  0  0  0  0  0  0
   -3.2124   -1.3578   -1.1289 N   0  0  0  0  0  0  0  0  0  0  0  0
   -1.8971   -1.8843   -0.8752 C   0  0  2  0  0  0  0  0  0  0  0  0
   -1.2676   -1.0599    0.2399 C   0  0  0  0  0  0  0  0  0  0  0  0
   -1.6270    0.0833    0.5138 O   0  0  0  0  0  0  0  0  0  0  0  0
   -1.0364   -1.8506   -2.1285 C   0  0  0  0  0  0  0  0  0  0  0  0
   -3.5631   -0.6202   -0.5206 H   0  0  0  0  0  0  0  0  0  0  0  0
   -2.0301   -2.9174   -0.5360 H   0  0  0  0  0  0  0  0  0  0  0  0
   -0.8921   -0.8236   -2.4833 H   0  0  0  0  0  0  0  0  0  0  0  0
   -0.0457   -2.2777   -1.9410 H   0  0  0  0  0  0  0  0  0  0  0  0
   -1.5052   -2.4193   -2.9387 H   0  0  0  0  0  0  0  0  0  0  0  0
   -0.2267   -1.7335    0.8672 N   0  0  0  0  0  0  0  0  0  0  0  0
    0.5363   -1.1590    1.9465 C   0  0  2  0  0  0  0  0  0  0  0  0
    2.0062   -1.4433    1.6598 C   0  0  0  0  0  0  0  0  0  0  0  0
    2.5920   -1.0105    0.6695 O   0  0  0  0  0  0  0  0  0  0  0  0
    0.1317   -1.7395    3.2996 C   0  0  0  0  0  0  0  0  0  0  0  0
   -1.2637   -1.3627    3.8135 C   0  0  0  0  0  0  0  0  0  0  0  0
   -1.6747   -0.2355    3.4118 O   0  5  0  0  0  0  0  0  0  0  0  0
   -1.8313   -2.1963    4.5710 O   0  0  0  0  0  0  0  0  0  0  0  0
   -0.0113   -2.6869    0.5854 H   0  0  0  0  0  0  0  0  0  0  0  0
    0.3653   -0.0771    1.9125 H   0  0  0  0  0  0  0  0  0  0  0  0
    0.8639   -1.4422    4.0628 H   0  0  0  0  0  0  0  0  0  0  0  0
    0.1589   -2.8361    3.2542 H   0  0  0  0  0  0  0  0  0  0  0  0
    2.5985   -2.1932    2.6664 N   0  0  0  0  0  0  0  0  0  0  0  0
    3.9933   -2.5680    2.6447 C   0  0  2  0  0  0  0  0  0  0  0  0
    4.1314   -3.9075    3.3562 C   0  0  0  0  0  0  0  0  0  0  0  0
    3.3093   -4.3224    4.1705 O   0  0  0  0  0  0  0  0  0  0  0  0
    4.8612   -1.5090    3.3064 C   0  0  0  0  0  0  0  0  0  0  0  0
    2.0476   -2.4680    3.4743 H   0  0  0  0  0  0  0  0  0  0  0  0
    4.2737   -2.6825    1.5919 H   0  0  0  0  0  0  0  0  0  0  0  0
    4.5949   -1.3803    4.3619 H   0  0  0  0  0  0  0  0  0  0  0  0
    5.9210   -1.7812    3.2638 H   0  0  0  0  0  0  0  0  0  0  0  0
    4.7380   -0.5394    2.8120 H   0  0  0  0  0  0  0  0  0  0  0  0
    5.3024   -4.5656    3.0072 N   0  0  0  0  0  0  0  0  0  0  0  0
    5.6687   -5.8498    3.5573 C   0  0  0  0  0  0  0  0  0  0  0  0
    5.9167   -4.1562    2.3094 H   0  0  0  0  0  0  0  0  0  0  0  0
    6.2979   -5.7019    4.4474 H   0  0  0  0  0  0  0  0  0  0  0  0
    4.7593   -6.4008    3.8388 H   0  0  0  0  0  0  0  0  0  0  0  0
    6.2278   -6.4250    2.8046 H   0  0  0  0  0  0  0  0  0  0  0  0
  1  3  1  0  0  0  0
  1  7  1  0  0  0  0
  1  2  2  0  0  0  0
 30 31  1  0  0  0  0
 31 39  1  0  0  0  0
 31 32  2  0  0  0  0
  8  9  1  0  0  0  0
  9 17  1  0  0  0  0
  9 10  2  0  0  0  0
 18 19  1  0  0  0  0
 19 29  1  0  0  0  0
 19 20  2  0  0  0  0
 21 22  1  0  0  0  0
 22 23  1  0  0  0  0
 22 24  2  0  0  0  0
 30 33  1  0  0  0  0
  8 11  1  0  0  0  0
 39 40  1  0  0  0  0
 18 21  1  0  0  0  0
 29 30  1  0  0  0  0
  7  8  1  0  0  0  0
 17 18  1  0  0  0  0
  3  4  1  0  0  0  0
  3  5  1  0  0  0  0
  3  6  1  0  0  0  0
 33 36  1  0  0  0  0
 33 37  1  0  0  0  0
 33 38  1  0  0  0  0
 11 14  1  0  0  0  0
 11 15  1  0  0  0  0
 11 16  1  0  0  0  0
 40 42  1  0  0  0  0
 40 43  1  0  0  0  0
 40 44  1  0  0  0  0
 21 27  1  0  0  0  0
 21 28  1  0  0  0  0
 30 35  1  0  0  0  0
  8 13  1  0  0  0  0
 18 26  1  0  0  0  0
 39 41  1  0  0  0  0
  7 12  1  0  0  0  0
 29 34  1  0  0  0  0
 17 25  1  0  0  0  0
M  CHG  1  23  -1
M  END
$$$$

  -OEChem-05262214473D

 44 43  0     1  0  0  0  0  0999 V2000
   -4.0256   -1.8030   -2.1581 C   0  0  0  0  0  0  0  0  0  0  0  0
   -3.7513   -2.6782   -2.9709 O   0  0  0  0  0  0  0  0  0  0  0  0
   -5.3491   -1.1169   -2.2339 C   0  0  0  0  0  0  0  0  0  0  0  0
   -5.3223   -0.2211   -2.8750 H   0  0  0  0  0  0  0  0  0  0  0  0
   -6.1322   -1.7605   -2.6658 H   0  0  0  0  0  0  0  0  0  0  0  0
   -5.7568   -0.7715   -1.2704 H   0  0  0  0  0  0  0  0  0  0  0  0
   -3.2124   -1.3578   -1.1289 N   0  0  0  0  0  0  0  0  0  0  0  0
   -1.8971   -1.8843   -0.8752 C   0  0  2  0  0  0  0  0  0  0  0  0
   -1.2676   -1.0599    0.2399 C   0  0  0  0  0  0  0  0  0  0  0  0
   -1.6270    0.0833    0.5138 O   0  0  0  0  0  0  0  0  0  0  0  0
   -1.0364   -1.8506   -2.1285 C   0  0  0  0  0  0  0  0  0  0  0  0
   -3.5631   -0.6202   -0.5206 H   0  0  0  0  0  0  0  0  0  0  0  0
   -2.0301   -2.9174   -0.5360 H   0  0  0  0  0  0  0  0  0  0  0  0
   -0.8921   -0.8236   -2.4833 H   0  0  0  0  0  0  0  0  0  0  0  0
   -0.0457   -2.2777   -1.9410 H   0  0  0  0  0  0  0  0  0  0  0  0
   -1.5052   -2.4193   -2.9387 H   0  0  0  0  0  0  0  0  0  0  0  0
   -0.2267   -1.7335    0.8672 N   0  0  0  0  0  0  0  0  0  0  0  0
    0.5363   -1.1590    1.9465 C   0  0  2  0  0  0  0  0  0  0  0  0
    2.0062   -1.4433    1.6598 C   0  0  0  0  0  0  0  0  0  0  0  0
    2.6630   -0.8108    0.8352 O   0  0  0  0  0  0  0  0  0  0  0  0
    0.1317   -1.7395    3.2996 C   0  0  0  0  0  0  0  0  0  0  0  0
   -1.2637   -1.3627    3.8135 C   0  0  0  0  0  0  0  0  0  0  0  0
   -1.6747   -0.2355    3.4118 O   0  5  0  0  0  0  0  0  0  0  0  0
   -1.8313   -2.1963    4.5710 O   0  0  0  0  0  0  0  0  0  0  0  0
   -0.0113   -2.6869    0.5854 H   0  0  0  0  0  0  0  0  0  0  0  0
    0.3653   -0.0771    1.9125 H   0  0  0  0  0  0  0  0  0  0  0  0
    0.8639   -1.4422    4.0628 H   0  0  0  0  0  0  0  0  0  0  0  0
    0.1589   -2.8361    3.2542 H   0  0  0  0  0  0  0  0  0  0  0  0
    2.5104   -2.4510    2.4702 N   0  0  0  0  0  0  0  0  0  0  0  0
    3.8871   -2.8846    2.4139 C   0  0  2  0  0  0  0  0  0  0  0  0
    3.9291   -4.3643    2.7720 C   0  0  0  0  0  0  0  0  0  0  0  0
    3.0470   -4.9227    3.4209 O   0  0  0  0  0  0  0  0  0  0  0  0
    4.7619   -2.0723    3.3560 C   0  0  0  0  0  0  0  0  0  0  0  0
    1.9051   -2.8873    3.1594 H   0  0  0  0  0  0  0  0  0  0  0  0
    4.2193   -2.7491    1.3789 H   0  0  0  0  0  0  0  0  0  0  0  0
    4.4442   -2.1954    4.3978 H   0  0  0  0  0  0  0  0  0  0  0  0
    5.8099   -2.3830    3.2911 H   0  0  0  0  0  0  0  0  0  0  0  0
    4.7072   -1.0050    3.1157 H   0  0  0  0  0  0  0  0  0  0  0  0
    5.0883   -4.9782    2.3187 N   0  0  0  0  0  0  0  0  0  0  0  0
    5.3691   -6.3769    2.5441 C   0  0  0  0  0  0  0  0  0  0  0  0
    5.7565   -4.4427    1.7724 H   0  0  0  0  0  0  0  0  0  0  0  0
    5.9547   -6.4895    3.4685 H   0  0  0  0  0  0  0  0  0  0  0  0
    4.4231   -6.9299    2.6398 H   0  0  0  0  0  0  0  0  0  0  0  0
    5.9434   -6.7768    1.6954 H   0  0  0  0  0  0  0  0  0  0  0  0
  1  3  1  0  0  0  0
  1  7  1  0  0  0  0
  1  2  2  0  0  0  0
 30 31  1  0  0  0  0
 31 39  1  0  0  0  0
 31 32  2  0  0  0  0
  8  9  1  0  0  0  0
  9 17  1  0  0  0  0
  9 10  2  0  0  0  0
 18 19  1  0  0  0  0
 19 29  1  0  0  0  0
 19 20  2  0  0  0  0
 21 22  1  0  0  0  0
 22 23  1  0  0  0  0
 22 24  2  0  0  0  0
 30 33  1  0  0  0  0
  8 11  1  0  0  0  0
 39 40  1  0  0  0  0
 18 21  1  0  0  0  0
 29 30  1  0  0  0  0
  7  8  1  0  0  0  0
 17 18  1  0  0  0  0
  3  4  1  0  0  0  0
  3  5  1  0  0  0  0
  3  6  1  0  0  0  0
 33 36  1  0  0  0  0
 33 37  1  0  0  0  0
 33 38  1  0  0  0  0
 11 14  1  0  0  0  0
 11 15  1  0  0  0  0
 11 16  1  0  0  0  0
 40 42  1  0  0  0  0
 40 43  1  0  0  0  0
 40 44  1  0  0  0  0
 21 27  1  0  0  0  0
 21 28  1  0  0  0  0
 30 35  1  0  0  0  0
  8 13  1  0  0  0  0
 18 26  1  0  0  0  0
 39 41  1  0  0  0  0
  7 12  1  0  0  0  0
 29 34  1  0  0  0  0
 17 25  1  0  0  0  0
M  CHG  1  23  -1
M  END
$$$$

  -OEChem-05262214473D

 44 43  0     1  0  0  0  0  0999 V2000
   -4.0256   -1.8030   -2.1581 C   0  0  0  0  0  0  0  0  0  0  0  0
   -3.7513   -2.6782   -2.9709 O   0  0  0  0  0  0  0  0  0  0  0  0
   -5.3491   -1.1169   -2.2339 C   0  0  0  0  0  0  0  0  0  0  0  0
   -5.3223   -0.2211   -2.8750 H   0  0  0  0  0  0  0  0  0  0  0  0
   -6.1322   -1.7605   -2.6658 H   0  0  0  0  0  0  0  0  0  0  0  0
   -5.7568   -0.7715   -1.2704 H   0  0  0  0  0  0  0  0  0  0  0  0
   -3.2124   -1.3578   -1.1289 N   0  0  0  0  0  0  0  0  0  0  0  0
   -1.8971   -1.8843   -0.8752 C   0  0  2  0  0  0  0  0  0  0  0  0
   -1.2676   -1.0599    0.2399 C   0  0  0  0  0  0  0  0  0  0  0  0
   -1.6270    0.0833    0.5138 O   0  0  0  0  0  0  0  0  0  0  0  0
   -1.0364   -1.8506   -2.1285 C   0  0  0  0  0  0  0  0  0  0  0  0
   -3.5631   -0.6202   -0.5206 H   0  0  0  0  0  0  0  0  0  0  0  0
   -2.0301   -2.9174   -0.5360 H   0  0  0  0  0  0  0  0  0  0  0  0
   -0.8921   -0.8236   -2.4833 H   0  0  0  0  0  0  0  0  0  0  0  0
   -0.0457   -2.2777   -1.9410 H   0  0  0  0  0  0  0  0  0  0  0  0
   -1.5052   -2.4193   -2.9387 H   0  0  0  0  0  0  0  0  0  0  0  0
   -0.2267   -1.7335    0.8672 N   0  0  0  0  0  0  0  0  0  0  0  0
    0.5363   -1.1590    1.9465 C   0  0  2  0  0  0  0  0  0  0  0  0
    2.0062   -1.4433    1.6598 C   0  0  0  0  0  0  0  0  0  0  0  0
    2.7332   -0.6628    1.0486 O   0  0  0  0  0  0  0  0  0  0  0  0
    0.1317   -1.7395    3.2996 C   0  0  0  0  0  0  0  0  0  0  0  0
   -1.2637   -1.3627    3.8135 C   0  0  0  0  0  0  0  0  0  0  0  0
   -1.6747   -0.2355    3.4118 O   0  5  0  0  0  0  0  0  0  0  0  0
   -1.8313   -2.1963    4.5710 O   0  0  0  0  0  0  0  0  0  0  0  0
   -0.0113   -2.6869    0.5854 H   0  0  0  0  0  0  0  0  0  0  0  0
    0.3653   -0.0771    1.9125 H   0  0  0  0  0  0  0  0  0  0  0  0
    0.8639   -1.4422    4.0628 H   0  0  0  0  0  0  0  0  0  0  0  0
    0.1589   -2.8361    3.2542 H   0  0  0  0  0  0  0  0  0  0  0  0
    2.4222   -2.6468    2.2121 N   0  0  0  0  0  0  0  0  0  0  0  0
    3.7802   -3.1276    2.1069 C   0  0  2  0  0  0  0  0  0  0  0  0
    3.7396   -4.6498    2.0838 C   0  0  0  0  0  0  0  0  0  0  0  0
    2.8005   -5.3027    2.5343 O   0  0  0  0  0  0  0  0  0  0  0  0
    4.6362   -2.6240    3.2585 C   0  0  0  0  0  0  0  0  0  0  0  0
    1.7622   -3.2067    2.7437 H   0  0  0  0  0  0  0  0  0  0  0  0
    4.1737   -2.7577    1.1538 H   0  0  0  0  0  0  0  0  0  0  0  0
    4.2573   -2.9844    4.2218 H   0  0  0  0  0  0  0  0  0  0  0  0
    5.6720   -2.9658    3.1620 H   0  0  0  0  0  0  0  0  0  0  0  0
    4.6401   -1.5291    3.2915 H   0  0  0  0  0  0  0  0  0  0  0  0
    4.8947   -5.1945    1.5403 N   0  0  0  0  0  0  0  0  0  0  0  0
    5.1030   -6.6186    1.4194 C   0  0  0  0  0  0  0  0  0  0  0  0
    5.6138   -4.5775    1.1744 H   0  0  0  0  0  0  0  0  0  0  0  0
    5.6321   -6.9892    2.3098 H   0  0  0  0  0  0  0  0  0  0  0  0
    4.1305   -7.1253    1.3335 H   0  0  0  0  0  0  0  0  0  0  0  0
    5.7051   -6.8261    0.5225 H   0  0  0  0  0  0  0  0  0  0  0  0
  1  3  1  0  0  0  0
  1  7  1  0  0  0  0
  1  2  2  0  0  0  0
 30 31  1  0  0  0  0
 31 39  1  0  0  0  0
 31 32  2  0  0  0  0
  8  9  1  0  0  0  0
  9 17  1  0  0  0  0
  9 10  2  0  0  0  0
 18 19  1  0  0  0  0
 19 29  1  0  0  0  0
 19 20  2  0  0  0  0
 21 22  1  0  0  0  0
 22 23  1  0  0  0  0
 22 24  2  0  0  0  0
 30 33  1  0  0  0  0
  8 11  1  0  0  0  0
 39 40  1  0  0  0  0
 18 21  1  0  0  0  0
 29 30  1  0  0  0  0
  7  8  1  0  0  0  0
 17 18  1  0  0  0  0
  3  4  1  0  0  0  0
  3  5  1  0  0  0  0
  3  6  1  0  0  0  0
 33 36  1  0  0  0  0
 33 37  1  0  0  0  0
 33 38  1  0  0  0  0
 11 14  1  0  0  0  0
 11 15  1  0  0  0  0
 11 16  1  0  0  0  0
 40 42  1  0  0  0  0
 40 43  1  0  0  0  0
 40 44  1  0  0  0  0
 21 27  1  0  0  0  0
 21 28  1  0  0  0  0
 30 35  1  0  0  0  0
  8 13  1  0  0  0  0
 18 26  1  0  0  0  0
 39 41  1  0  0  0  0
  7 12  1  0  0  0  0
 29 34  1  0  0  0  0
 17 25  1  0  0  0  0
M  CHG  1  23  -1
M  END
$$$$

  -OEChem-05262214473D

 44 43  0     1  0  0  0  0  0999 V2000
   -4.0256   -1.8030   -2.1581 C   0  0  0  0  0  0  0  0  0  0  0  0
   -3.7513   -2.6782   -2.9709 O   0  0  0  0  0  0  0  0  0  0  0  0
   -5.3491   -1.1169   -2.2339 C   0  0  0  0  0  0  0  0  0  0  0  0
   -5.3223   -0.2211   -2.8750 H   0  0  0  0  0  0  0  0  0  0  0  0
   -6.1322   -1.7605   -2.6658 H   0  0  0  0  0  0  0  0  0  0  0  0
   -5.7568   -0.7715   -1.2704 H   0  0  0  0  0  0  0  0  0  0  0  0
   -3.2124   -1.3578   -1.1289 N   0  0  0  0  0  0  0  0  0  0  0  0
   -1.8971   -1.8843   -0.8752 C   0  0  2  0  0  0  0  0  0  0  0  0
   -1.2676   -1.0599    0.2399 C   0  0  0  0  0  0  0  0  0  0  0  0
   -1.6270    0.0833    0.5138 O   0  0  0  0  0  0  0  0  0  0  0  0
   -1.0364   -1.8506   -2.1285 C   0  0  0  0  0  0  0  0  0  0  0  0
   -3.5631   -0.6202   -0.5206 H   0  0  0  0  0  0  0  0  0  0  0  0
   -2.0301   -2.9174   -0.5360 H   0  0  0  0  0  0  0  0  0  0  0  0
   -0.8921   -0.8236   -2.4833 H   0  0  0  0  0  0  0  0  0  0  0  0
   -0.0457   -2.2777   -1.9410 H   0  0  0  0  0  0  0  0  0  0  0  0
   -1.5052   -2.4193   -2.9387 H   0  0  0  0  0  0  0  0  0  0  0  0
   -0.2267   -1.7335    0.8672 N   0  0  0  0  0  0  0  0  0  0  0  0
    0.5363   -1.1590    1.9465 C   0  0  2  0  0  0  0  0  0  0  0  0
    2.0062   -1.4433    1.6598 C   0  0  0  0  0  0  0  0  0  0  0  0
    2.7979   -0.5765    1.2950 O   0  0  0  0  0  0  0  0  0  0  0  0
    0.1317   -1.7395    3.2996 C   0  0  0  0  0  0  0  0  0  0  0  0
   -1.2637   -1.3627    3.8135 C   0  0  0  0  0  0  0  0  0  0  0  0
   -1.6747   -0.2355    3.4118 O   0  5  0  0  0  0  0  0  0  0  0  0
   -1.8313   -2.1963    4.5710 O   0  0  0  0  0  0  0  0  0  0  0  0
   -0.0113   -2.6869    0.5854 H   0  0  0  0  0  0  0  0  0  0  0  0
    0.3653   -0.0771    1.9125 H   0  0  0  0  0  0  0  0  0  0  0  0
    0.8639   -1.4422    4.0628 H   0  0  0  0  0  0  0  0  0  0  0  0
    0.1589   -2.8361    3.2542 H   0  0  0  0  0  0  0  0  0  0  0  0
    2.3399   -2.7671    1.9096 N   0  0  0  0  0  0  0  0  0  0  0  0
    3.6799   -3.2804    1.7445 C   0  0  2  0  0  0  0  0  0  0  0  0
    3.5760   -4.7447    1.3388 C   0  0  0  0  0  0  0  0  0  0  0  0
    2.5868   -5.4365    1.5711 O   0  0  0  0  0  0  0  0  0  0  0  0
    4.4927   -3.1263    3.0206 C   0  0  0  0  0  0  0  0  0  0  0  0
    1.6288   -3.4046    2.2556 H   0  0  0  0  0  0  0  0  0  0  0  0
    4.1401   -2.7076    0.9320 H   0  0  0  0  0  0  0  0  0  0  0  0
    4.0469   -3.6934    3.8459 H   0  0  0  0  0  0  0  0  0  0  0  0
    5.5167   -3.4897    2.8851 H   0  0  0  0  0  0  0  0  0  0  0  0
    4.5413   -2.0759    3.3272 H   0  0  0  0  0  0  0  0  0  0  0  0
    4.7347   -5.1998    0.7251 N   0  0  0  0  0  0  0  0  0  0  0  0
    4.8885   -6.5584    0.2599 C   0  0  0  0  0  0  0  0  0  0  0  0
    5.4983   -4.5516    0.5562 H   0  0  0  0  0  0  0  0  0  0  0  0
    5.3520   -7.1669    1.0503 H   0  0  0  0  0  0  0  0  0  0  0  0
    3.9014   -6.9738    0.0088 H   0  0  0  0  0  0  0  0  0  0  0  0
    5.5292   -6.5693   -0.6343 H   0  0  0  0  0  0  0  0  0  0  0  0
  1  3  1  0  0  0  0
  1  7  1  0  0  0  0
  1  2  2  0  0  0  0
 30 31  1  0  0  0  0
 31 39  1  0  0  0  0
 31 32  2  0  0  0  0
  8  9  1  0  0  0  0
  9 17  1  0  0  0  0
  9 10  2  0  0  0  0
 18 19  1  0  0  0  0
 19 29  1  0  0  0  0
 19 20  2  0  0  0  0
 21 22  1  0  0  0  0
 22 23  1  0  0  0  0
 22 24  2  0  0  0  0
 30 33  1  0  0  0  0
  8 11  1  0  0  0  0
 39 40  1  0  0  0  0
 18 21  1  0  0  0  0
 29 30  1  0  0  0  0
  7  8  1  0  0  0  0
 17 18  1  0  0  0  0
  3  4  1  0  0  0  0
  3  5  1  0  0  0  0
  3  6  1  0  0  0  0
 33 36  1  0  0  0  0
 33 37  1  0  0  0  0
 33 38  1  0  0  0  0
 11 14  1  0  0  0  0
 11 15  1  0  0  0  0
 11 16  1  0  0  0  0
 40 42  1  0  0  0  0
 40 43  1  0  0  0  0
 40 44  1  0  0  0  0
 21 27  1  0  0  0  0
 21 28  1  0  0  0  0
 30 35  1  0  0  0  0
  8 13  1  0  0  0  0
 18 26  1  0  0  0  0
 39 41  1  0  0  0  0
  7 12  1  0  0  0  0
 29 34  1  0  0  0  0
 17 25  1  0  0  0  0
M  CHG  1  23  -1
M  END
$$$$

  -OEChem-05262214473D

 44 43  0     1  0  0  0  0  0999 V2000
   -4.0256   -1.8030   -2.1581 C   0  0  0  0  0  0  0  0  0  0  0  0
   -3.7513   -2.6782   -2.9709 O   0  0  0  0  0  0  0  0  0  0  0  0
   -5.3491   -1.1169   -2.2339 C   0  0  0  0  0  0  0  0  0  0  0  0
   -5.3223   -0.2211   -2.8750 H   0  0  0  0  0  0  0  0  0  0  0  0
   -6.1322   -1.7605   -2.6658 H   0  0  0  0  0  0  0  0  0  0  0  0
   -5.7568   -0.7715   -1.2704 H   0  0  0  0  0  0  0  0  0  0  0  0
   -3.2124   -1.3578   -1.1289 N   0  0  0  0  0  0  0  0  0  0  0  0
   -1.8971   -1.8843   -0.8752 C   0  0  2  0  0  0  0  0  0  0  0  0
   -1.2676   -1.0599    0.2399 C   0  0  0  0  0  0  0  0  0  0  0  0
   -1.6270    0.0833    0.5138 O   0  0  0  0  0  0  0  0  0  0  0  0
   -1.0364   -1.8506   -2.1285 C   0  0  0  0  0  0  0  0  0  0  0  0
   -3.5631   -0.6202   -0.5206 H   0  0  0  0  0  0  0  0  0  0  0  0
   -2.0301   -2.9174   -0.5360 H   0  0  0  0  0  0  0  0  0  0  0  0
   -0.8921   -0.8236   -2.4833 H   0  0  0  0  0  0  0  0  0  0  0  0
   -0.0457   -2.2777   -1.9410 H   0  0  0  0  0  0  0  0  0  0  0  0
   -1.5052   -2.4193   -2.9387 H   0  0  0  0  0  0  0  0  0  0  0  0
   -0.2267   -1.7335    0.8672 N   0  0  0  0  0  0  0  0  0  0  0  0
    0.5363   -1.1590    1.9465 C   0  0  2  0  0  0  0  0  0  0  0  0
    2.0062   -1.4433    1.6598 C   0  0  0  0  0  0  0  0  0  0  0  0
    2.8528   -0.5578    1.5577 O   0  0  0  0  0  0  0  0  0  0  0  0
    0.1317   -1.7395    3.2996 C   0  0  0  0  0  0  0  0  0  0  0  0
   -1.2637   -1.3627    3.8135 C   0  0  0  0  0  0  0  0  0  0  0  0
   -1.6747   -0.2355    3.4118 O   0  5  0  0  0  0  0  0  0  0  0  0
   -1.8313   -2.1963    4.5710 O   0  0  0  0  0  0  0  0  0  0  0  0
   -0.0113   -2.6869    0.5854 H   0  0  0  0  0  0  0  0  0  0  0  0
    0.3653   -0.0771    1.9125 H   0  0  0  0  0  0  0  0  0  0  0  0
    0.8639   -1.4422    4.0628 H   0  0  0  0  0  0  0  0  0  0  0  0
    0.1589   -2.8361    3.2542 H   0  0  0  0  0  0  0  0  0  0  0  0
    2.2692   -2.8039    1.5835 N   0  0  0  0  0  0  0  0  0  0  0  0
    3.5932   -3.3328    1.3514 C   0  0  2  0  0  0  0  0  0  0  0  0
    3.4492   -4.6424    0.5875 C   0  0  0  0  0  0  0  0  0  0  0  0
    2.4203   -5.3150    0.5971 O   0  0  0  0  0  0  0  0  0  0  0  0
    4.3410   -3.5453    2.6584 C   0  0  0  0  0  0  0  0  0  0  0  0
    1.5138   -3.4674    1.7283 H   0  0  0  0  0  0  0  0  0  0  0  0
    4.1209   -2.6022    0.7288 H   0  0  0  0  0  0  0  0  0  0  0  0
    3.8272   -4.2742    3.2957 H   0  0  0  0  0  0  0  0  0  0  0  0
    5.3545   -3.9192    2.4794 H   0  0  0  0  0  0  0  0  0  0  0  0
    4.4176   -2.6082    3.2205 H   0  0  0  0  0  0  0  0  0  0  0  0
    4.6192   -4.9936   -0.0713 N   0  0  0  0  0  0  0  0  0  0  0  0
    4.7402   -6.2004   -0.8555 C   0  0  0  0  0  0  0  0  0  0  0  0
    5.4177   -4.3666   -0.0400 H   0  0  0  0  0  0  0  0  0  0  0  0
    5.1337   -7.0107   -0.2241 H   0  0  0  0  0  0  0  0  0  0  0  0
    3.7515   -6.4857   -1.2441 H   0  0  0  0  0  0  0  0  0  0  0  0
    5.4275   -6.0240   -1.6960 H   0  0  0  0  0  0  0  0  0  0  0  0
  1  3  1  0  0  0  0
  1  7  1  0  0  0  0
  1  2  2  0  0  0  0
 30 31  1  0  0  0  0
 31 39  1  0  0  0  0
 31 32  2  0  0  0  0
  8  9  1  0  0  0  0
  9 17  1  0  0  0  0
  9 10  2  0  0  0  0
 18 19  1  0  0  0  0
 19 29  1  0  0  0  0
 19 20  2  0  0  0  0
 21 22  1  0  0  0  0
 22 23  1  0  0  0  0
 22 24  2  0  0  0  0
 30 33  1  0  0  0  0
  8 11  1  0  0  0  0
 39 40  1  0  0  0  0
 18 21  1  0  0  0  0
 29 30  1  0  0  0  0
  7  8  1  0  0  0  0
 17 18  1  0  0  0  0
  3  4  1  0  0  0  0
  3  5  1  0  0  0  0
  3  6  1  0  0  0  0
 33 36  1  0  0  0  0
 33 37  1  0  0  0  0
 33 38  1  0  0  0  0
 11 14  1  0  0  0  0
 11 15  1  0  0  0  0
 11 16  1  0  0  0  0
 40 42  1  0  0  0  0
 40 43  1  0  0  0  0
 40 44  1  0  0  0  0
 21 27  1  0  0  0  0
 21 28  1  0  0  0  0
 30 35  1  0  0  0  0
  8 13  1  0  0  0  0
 18 26  1  0  0  0  0
 39 41  1  0  0  0  0
  7 12  1  0  0  0  0
 29 34  1  0  0  0  0
 17 25  1  0  0  0  0
M  CHG  1  23  -1
M  END
$$$$

  -OEChem-05262214473D

 44 43  0     1  0  0  0  0  0999 V2000
   -4.0256   -1.8030   -2.1581 C   0  0  0  0  0  0  0  0  0  0  0  0
   -3.7513   -2.6782   -2.9709 O   0  0  0  0  0  0  0  0  0  0  0  0
   -5.3491   -1.1169   -2.2339 C   0  0  0  0  0  0  0  0  0  0  0  0
   -5.3223   -0.2211   -2.8750 H   0  0  0  0  0  0  0  0  0  0  0  0
   -6.1322   -1.7605   -2.6658 H   0  0  0  0  0  0  0  0  0  0  0  0
   -5.7568   -0.7715   -1.2704 H   0  0  0  0  0  0  0  0  0  0  0  0
   -3.2124   -1.3578   -1.1289 N   0  0  0  0  0  0  0  0  0  0  0  0
   -1.8971   -1.8843   -0.8752 C   0  0  2  0  0  0  0  0  0  0  0  0
   -1.2676   -1.0599    0.2399 C   0  0  0  0  0  0  0  0  0  0  0  0
   -1.6270    0.0833    0.5138 O   0  0  0  0  0  0  0  0  0  0  0  0
   -1.0364   -1.8506   -2.1285 C   0  0  0  0  0  0  0  0  0  0  0  0
   -3.5631   -0.6202   -0.5206 H   0  0  0  0  0  0  0  0  0  0  0  0
   -2.0301   -2.9174   -0.5360 H   0  0  0  0  0  0  0  0  0  0  0  0
   -0.8921   -0.8236   -2.4833 H   0  0  0  0  0  0  0  0  0  0  0  0
   -0.0457   -2.2777   -1.9410 H   0  0  0  0  0  0  0  0  0  0  0  0
   -1.5052   -2.4193   -2.9387 H   0  0  0  0  0  0  0  0  0  0  0  0
   -0.2267   -1.7335    0.8672 N   0  0  0  0  0  0  0  0  0  0  0  0
    0.5363   -1.1590    1.9465 C   0  0  2  0  0  0  0  0  0  0  0  0
    2.0062   -1.4433    1.6598 C   0  0  0  0  0  0  0  0  0  0  0  0
    2.8940   -0.6080    1.8187 O   0  0  0  0  0  0  0  0  0  0  0  0
    0.1317   -1.7395    3.2996 C   0  0  0  0  0  0  0  0  0  0  0  0
   -1.2637   -1.3627    3.8135 C   0  0  0  0  0  0  0  0  0  0  0  0
   -1.6747   -0.2355    3.4118 O   0  5  0  0  0  0  0  0  0  0  0  0
   -1.8313   -2.1963    4.5710 O   0  0  0  0  0  0  0  0  0  0  0  0
   -0.0113   -2.6869    0.5854 H   0  0  0  0  0  0  0  0  0  0  0  0
    0.3653   -0.0771    1.9125 H   0  0  0  0  0  0  0  0  0  0  0  0
    0.8639   -1.4422    4.0628 H   0  0  0  0  0  0  0  0  0  0  0  0
    0.1589   -2.8361    3.2542 H   0  0  0  0  0  0  0  0  0  0  0  0
    2.2148   -2.7546    1.2559 N   0  0  0  0  0  0  0  0  0  0  0  0
    3.5258   -3.2810    0.9546 C   0  0  2  0  0  0  0  0  0  0  0  0
    3.3681   -4.3499   -0.1188 C   0  0  0  0  0  0  0  0  0  0  0  0
    2.3125   -4.9464   -0.3214 O   0  0  0  0  0  0  0  0  0  0  0  0
    4.1916   -3.8521    2.1968 C   0  0  0  0  0  0  0  0  0  0  0  0
    1.4251   -3.3909    1.1978 H   0  0  0  0  0  0  0  0  0  0  0  0
    4.1172   -2.4487    0.5578 H   0  0  0  0  0  0  0  0  0  0  0  0
    3.6133   -4.6872    2.6087 H   0  0  0  0  0  0  0  0  0  0  0  0
    5.1965   -4.2248    1.9725 H   0  0  0  0  0  0  0  0  0  0  0  0
    4.2773   -3.0897    2.9785 H   0  0  0  0  0  0  0  0  0  0  0  0
    4.5561   -4.5901   -0.7947 N   0  0  0  0  0  0  0  0  0  0  0  0
    4.6682   -5.5690   -1.8507 C   0  0  0  0  0  0  0  0  0  0  0  0
    5.3778   -4.0353   -0.5736 H   0  0  0  0  0  0  0  0  0  0  0  0
    4.9919   -6.5310   -1.4267 H   0  0  0  0  0  0  0  0  0  0  0  0
    3.6909   -5.6942   -2.3397 H   0  0  0  0  0  0  0  0  0  0  0  0
    5.4072   -5.2273   -2.5904 H   0  0  0  0  0  0  0  0  0  0  0  0
  1  3  1  0  0  0  0
  1  7  1  0  0  0  0
  1  2  2  0  0  0  0
 30 31  1  0  0  0  0
 31 39  1  0  0  0  0
 31 32  2  0  0  0  0
  8  9  1  0  0  0  0
  9 17  1  0  0  0  0
  9 10  2  0  0  0  0
 18 19  1  0  0  0  0
 19 29  1  0  0  0  0
 19 20  2  0  0  0  0
 21 22  1  0  0  0  0
 22 23  1  0  0  0  0
 22 24  2  0  0  0  0
 30 33  1  0  0  0  0
  8 11  1  0  0  0  0
 39 40  1  0  0  0  0
 18 21  1  0  0  0  0
 29 30  1  0  0  0  0
  7  8  1  0  0  0  0
 17 18  1  0  0  0  0
  3  4  1  0  0  0  0
  3  5  1  0  0  0  0
  3  6  1  0  0  0  0
 33 36  1  0  0  0  0
 33 37  1  0  0  0  0
 33 38  1  0  0  0  0
 11 14  1  0  0  0  0
 11 15  1  0  0  0  0
 11 16  1  0  0  0  0
 40 42  1  0  0  0  0
 40 43  1  0  0  0  0
 40 44  1  0  0  0  0
 21 27  1  0  0  0  0
 21 28  1  0  0  0  0
 30 35  1  0  0  0  0
  8 13  1  0  0  0  0
 18 26  1  0  0  0  0
 39 41  1  0  0  0  0
  7 12  1  0  0  0  0
 29 34  1  0  0  0  0
 17 25  1  0  0  0  0
M  CHG  1  23  -1
M  END
$$$$

  -OEChem-05262214473D

 44 43  0     1  0  0  0  0  0999 V2000
   -4.0256   -1.8030   -2.1581 C   0  0  0  0  0  0  0  0  0  0  0  0
   -3.7513   -2.6782   -2.9709 O   0  0  0  0  0  0  0  0  0  0  0  0
   -5.3491   -1.1169   -2.2339 C   0  0  0  0  0  0  0  0  0  0  0  0
   -5.3223   -0.2211   -2.8750 H   0  0  0  0  0  0  0  0  0  0  0  0
   -6.1322   -1.7605   -2.6658 H   0  0  0  0  0  0  0  0  0  0  0  0
   -5.7568   -0.7715   -1.2704 H   0  0  0  0  0  0  0  0  0  0  0  0
   -3.2124   -1.3578   -1.1289 N   0  0  0  0  0  0  0  0  0  0  0  0
   -1.8971   -1.8843   -0.8752 C   0  0  2  0  0  0  0  0  0  0  0  0
   -1.2676   -1.0599    0.2399 C   0  0  0  0  0  0  0  0  0  0  0  0
   -1.6270    0.0833    0.5138 O   0  0  0  0  0  0  0  0  0  0  0  0
   -1.0364   -1.8506   -2.1285 C   0  0  0  0  0  0  0  0  0  0  0  0
   -3.5631   -0.6202   -0.5206 H   0  0  0  0  0  0  0  0  0  0  0  0
   -2.0301   -2.9174   -0.5360 H   0  0  0  0  0  0  0  0  0  0  0  0
   -0.8921   -0.8236   -2.4833 H   0  0  0  0  0  0  0  0  0  0  0  0
   -0.0457   -2.2777   -1.9410 H   0  0  0  0  0  0  0  0  0  0  0  0
   -1.5052   -2.4193   -2.9387 H   0  0  0  0  0  0  0  0  0  0  0  0
   -0.2267   -1.7335    0.8672 N   0  0  0  0  0  0  0  0  0  0  0  0
    0.5363   -1.1590    1.9465 C   0  0  2  0  0  0  0  0  0  0  0  0
    2.0062   -1.4433    1.6598 C   0  0  0  0  0  0  0  0  0  0  0  0
    2.9188   -0.7236    2.0603 O   0  0  0  0  0  0  0  0  0  0  0  0
    0.1317   -1.7395    3.2996 C   0  0  0  0  0  0  0  0  0  0  0  0
   -1.2637   -1.3627    3.8135 C   0  0  0  0  0  0  0  0  0  0  0  0
   -1.6747   -0.2355    3.4118 O   0  5  0  0  0  0  0  0  0  0  0  0
   -1.8313   -2.1963    4.5710 O   0  0  0  0  0  0  0  0  0  0  0  0
   -0.0113   -2.6869    0.5854 H   0  0  0  0  0  0  0  0  0  0  0  0
    0.3653   -0.0771    1.9125 H   0  0  0  0  0  0  0  0  0  0  0  0
    0.8639   -1.4422    4.0628 H   0  0  0  0  0  0  0  0  0  0  0  0
    0.1589   -2.8361    3.2542 H   0  0  0  0  0  0  0  0  0  0  0  0
    2.1805   -2.6226    0.9491 N   0  0  0  0  0  0  0  0  0  0  0  0
    3.4823   -3.1287    0.5809 C   0  0  2  0  0  0  0  0  0  0  0  0
    3.3380   -3.8872   -0.7319 C   0  0  0  0  0  0  0  0  0  0  0  0
    2.2706   -4.3559   -1.1219 O   0  0  0  0  0  0  0  0  0  0  0  0
    4.0547   -4.0261    1.6671 C   0  0  0  0  0  0  0  0  0  0  0  0
    1.3688   -3.1802    0.7001 H   0  0  0  0  0  0  0  0  0  0  0  0
    4.1294   -2.2576    0.4307 H   0  0  0  0  0  0  0  0  0  0  0  0
    3.4198   -4.9043    1.8316 H   0  0  0  0  0  0  0  0  0  0  0  0
    5.0535   -4.3858    1.3990 H   0  0  0  0  0  0  0  0  0  0  0  0
    4.1300   -3.4875    2.6179 H   0  0  0  0  0  0  0  0  0  0  0  0
    4.5498   -4.0167   -1.3958 N   0  0  0  0  0  0  0  0  0  0  0  0
    4.6775   -4.7073   -2.6579 C   0  0  0  0  0  0  0  0  0  0  0  0
    5.3810   -3.5801   -1.0083 H   0  0  0  0  0  0  0  0  0  0  0  0
    4.9363   -5.7607   -2.4754 H   0  0  0  0  0  0  0  0  0  0  0  0
    3.7237   -4.6534   -3.2033 H   0  0  0  0  0  0  0  0  0  0  0  0
    5.4695   -4.2336   -3.2565 H   0  0  0  0  0  0  0  0  0  0  0  0
  1  3  1  0  0  0  0
  1  7  1  0  0  0  0
  1  2  2  0  0  0  0
 30 31  1  0  0  0  0
 31 39  1  0  0  0  0
 31 32  2  0  0  0  0
  8  9  1  0  0  0  0
  9 17  1  0  0  0  0
  9 10  2  0  0  0  0
 18 19  1  0  0  0  0
 19 29  1  0  0  0  0
 19 20  2  0  0  0  0
 21 22  1  0  0  0  0
 22 23  1  0  0  0  0
 22 24  2  0  0  0  0
 30 33  1  0  0  0  0
  8 11  1  0  0  0  0
 39 40  1  0  0  0  0
 18 21  1  0  0  0  0
 29 30  1  0  0  0  0
  7  8  1  0  0  0  0
 17 18  1  0  0  0  0
  3  4  1  0  0  0  0
  3  5  1  0  0  0  0
  3  6  1  0  0  0  0
 33 36  1  0  0  0  0
 33 37  1  0  0  0  0
 33 38  1  0  0  0  0
 11 14  1  0  0  0  0
 11 15  1  0  0  0  0
 11 16  1  0  0  0  0
 40 42  1  0  0  0  0
 40 43  1  0  0  0  0
 40 44  1  0  0  0  0
 21 27  1  0  0  0  0
 21 28  1  0  0  0  0
 30 35  1  0  0  0  0
  8 13  1  0  0  0  0
 18 26  1  0  0  0  0
 39 41  1  0  0  0  0
  7 12  1  0  0  0  0
 29 34  1  0  0  0  0
 17 25  1  0  0  0  0
M  CHG  1  23  -1
M  END
$$$$

  -OEChem-05262214473D

 44 43  0     1  0  0  0  0  0999 V2000
   -4.0256   -1.8030   -2.1581 C   0  0  0  0  0  0  0  0  0  0  0  0
   -3.7513   -2.6782   -2.9709 O   0  0  0  0  0  0  0  0  0  0  0  0
   -5.3491   -1.1169   -2.2339 C   0  0  0  0  0  0  0  0  0  0  0  0
   -5.3223   -0.2211   -2.8750 H   0  0  0  0  0  0  0  0  0  0  0  0
   -6.1322   -1.7605   -2.6658 H   0  0  0  0  0  0  0  0  0  0  0  0
   -5.7568   -0.7715   -1.2704 H   0  0  0  0  0  0  0  0  0  0  0  0
   -3.2124   -1.3578   -1.1289 N   0  0  0  0  0  0  0  0  0  0  0  0
   -1.8971   -1.8843   -0.8752 C   0  0  2  0  0  0  0  0  0  0  0  0
   -1.2676   -1.0599    0.2399 C   0  0  0  0  0  0  0  0  0  0  0  0
   -1.6270    0.0833    0.5138 O   0  0  0  0  0  0  0  0  0  0  0  0
   -1.0364   -1.8506   -2.1285 C   0  0  0  0  0  0  0  0  0  0  0  0
   -3.5631   -0.6202   -0.5206 H   0  0  0  0  0  0  0  0  0  0  0  0
   -2.0301   -2.9174   -0.5360 H   0  0  0  0  0  0  0  0  0  0  0  0
   -0.8921   -0.8236   -2.4833 H   0  0  0  0  0  0  0  0  0  0  0  0
   -0.0457   -2.2777   -1.9410 H   0  0  0  0  0  0  0  0  0  0  0  0
   -1.5052   -2.4193   -2.9387 H   0  0  0  0  0  0  0  0  0  0  0  0
   -0.2267   -1.7335    0.8672 N   0  0  0  0  0  0  0  0  0  0  0  0
    0.5363   -1.1590    1.9465 C   0  0  2  0  0  0  0  0  0  0  0  0
    2.0062   -1.4433    1.6598 C   0  0  0  0  0  0  0  0  0  0  0  0
    2.9254   -0.8967    2.2661 O   0  0  0  0  0  0  0  0  0  0  0  0
    0.1317   -1.7395    3.2996 C   0  0  0  0  0  0  0  0  0  0  0  0
   -1.2637   -1.3627    3.8135 C   0  0  0  0  0  0  0  0  0  0  0  0
   -1.6747   -0.2355    3.4118 O   0  5  0  0  0  0  0  0  0  0  0  0
   -1.8313   -2.1963    4.5710 O   0  0  0  0  0  0  0  0  0  0  0  0
   -0.0113   -2.6869    0.5854 H   0  0  0  0  0  0  0  0  0  0  0  0
    0.3653   -0.0771    1.9125 H   0  0  0  0  0  0  0  0  0  0  0  0
    0.8639   -1.4422    4.0628 H   0  0  0  0  0  0  0  0  0  0  0  0
    0.1589   -2.8361    3.2542 H   0  0  0  0  0  0  0  0  0  0  0  0
    2.1686   -2.4169    0.6840 N   0  0  0  0  0  0  0  0  0  0  0  0
    3.4658   -2.8862    0.2558 C   0  0  2  0  0  0  0  0  0  0  0  0
    3.3610   -3.2858   -1.2101 C   0  0  0  0  0  0  0  0  0  0  0  0
    2.2975   -3.5837   -1.7497 O   0  0  0  0  0  0  0  0  0  0  0  0
    3.9395   -4.0552    1.1054 C   0  0  0  0  0  0  0  0  0  0  0  0
    1.3487   -2.8498    0.2693 H   0  0  0  0  0  0  0  0  0  0  0  0
    4.1566   -2.0419    0.3563 H   0  0  0  0  0  0  0  0  0  0  0  0
    3.2598   -4.9106    1.0176 H   0  0  0  0  0  0  0  0  0  0  0  0
    4.9352   -4.3913    0.7979 H   0  0  0  0  0  0  0  0  0  0  0  0
    3.9857   -3.7747    2.1632 H   0  0  0  0  0  0  0  0  0  0  0  0
    4.6006   -3.3125   -1.8337 N   0  0  0  0  0  0  0  0  0  0  0  0
    4.7673   -3.6739   -3.2220 C   0  0  0  0  0  0  0  0  0  0  0  0
    5.4273   -3.0320   -1.3144 H   0  0  0  0  0  0  0  0  0  0  0  0
    4.9708   -4.7522   -3.2988 H   0  0  0  0  0  0  0  0  0  0  0  0
    3.8479   -3.4340   -3.7762 H   0  0  0  0  0  0  0  0  0  0  0  0
    5.6102   -3.1105   -3.6488 H   0  0  0  0  0  0  0  0  0  0  0  0
  1  3  1  0  0  0  0
  1  7  1  0  0  0  0
  1  2  2  0  0  0  0
 30 31  1  0  0  0  0
 31 39  1  0  0  0  0
 31 32  2  0  0  0  0
  8  9  1  0  0  0  0
  9 17  1  0  0  0  0
  9 10  2  0  0  0  0
 18 19  1  0  0  0  0
 19 29  1  0  0  0  0
 19 20  2  0  0  0  0
 21 22  1  0  0  0  0
 22 23  1  0  0  0  0
 22 24  2  0  0  0  0
 30 33  1  0  0  0  0
  8 11  1  0  0  0  0
 39 40  1  0  0  0  0
 18 21  1  0  0  0  0
 29 30  1  0  0  0  0
  7  8  1  0  0  0  0
 17 18  1  0  0  0  0
  3  4  1  0  0  0  0
  3  5  1  0  0  0  0
  3  6  1  0  0  0  0
 33 36  1  0  0  0  0
 33 37  1  0  0  0  0
 33 38  1  0  0  0  0
 11 14  1  0  0  0  0
 11 15  1  0  0  0  0
 11 16  1  0  0  0  0
 40 42  1  0  0  0  0
 40 43  1  0  0  0  0
 40 44  1  0  0  0  0
 21 27  1  0  0  0  0
 21 28  1  0  0  0  0
 30 35  1  0  0  0  0
  8 13  1  0  0  0  0
 18 26  1  0  0  0  0
 39 41  1  0  0  0  0
  7 12  1  0  0  0  0
 29 34  1  0  0  0  0
 17 25  1  0  0  0  0
M  CHG  1  23  -1
M  END
$$$$

  -OEChem-05262214473D

 44 43  0     1  0  0  0  0  0999 V2000
   -4.0256   -1.8030   -2.1581 C   0  0  0  0  0  0  0  0  0  0  0  0
   -3.7513   -2.6782   -2.9709 O   0  0  0  0  0  0  0  0  0  0  0  0
   -5.3491   -1.1169   -2.2339 C   0  0  0  0  0  0  0  0  0  0  0  0
   -5.3223   -0.2211   -2.8750 H   0  0  0  0  0  0  0  0  0  0  0  0
   -6.1322   -1.7605   -2.6658 H   0  0  0  0  0  0  0  0  0  0  0  0
   -5.7568   -0.7715   -1.2704 H   0  0  0  0  0  0  0  0  0  0  0  0
   -3.2124   -1.3578   -1.1289 N   0  0  0  0  0  0  0  0  0  0  0  0
   -1.8971   -1.8843   -0.8752 C   0  0  2  0  0  0  0  0  0  0  0  0
   -1.2676   -1.0599    0.2399 C   0  0  0  0  0  0  0  0  0  0  0  0
   -1.6270    0.0833    0.5138 O   0  0  0  0  0  0  0  0  0  0  0  0
   -1.0364   -1.8506   -2.1285 C   0  0  0  0  0  0  0  0  0  0  0  0
   -3.5631   -0.6202   -0.5206 H   0  0  0  0  0  0  0  0  0  0  0  0
   -2.0301   -2.9174   -0.5360 H   0  0  0  0  0  0  0  0  0  0  0  0
   -0.8921   -0.8236   -2.4833 H   0  0  0  0  0  0  0  0  0  0  0  0
   -0.0457   -2.2777   -1.9410 H   0  0  0  0  0  0  0  0  0  0  0  0
   -1.5052   -2.4193   -2.9387 H   0  0  0  0  0  0  0  0  0  0  0  0
   -0.2267   -1.7335    0.8672 N   0  0  0  0  0  0  0  0  0  0  0  0
    0.5363   -1.1590    1.9465 C   0  0  2  0  0  0  0  0  0  0  0  0
    2.0062   -1.4433    1.6598 C   0  0  0  0  0  0  0  0  0  0  0  0
    2.9135   -1.1157    2.4219 O   0  0  0  0  0  0  0  0  0  0  0  0
    0.1317   -1.7395    3.2996 C   0  0  0  0  0  0  0  0  0  0  0  0
   -1.2637   -1.3627    3.8135 C   0  0  0  0  0  0  0  0  0  0  0  0
   -1.6747   -0.2355    3.4118 O   0  5  0  0  0  0  0  0  0  0  0  0
   -1.8313   -2.1963    4.5710 O   0  0  0  0  0  0  0  0  0  0  0  0
   -0.0113   -2.6869    0.5854 H   0  0  0  0  0  0  0  0  0  0  0  0
    0.3653   -0.0771    1.9125 H   0  0  0  0  0  0  0  0  0  0  0  0
    0.8639   -1.4422    4.0628 H   0  0  0  0  0  0  0  0  0  0  0  0
    0.1589   -2.8361    3.2542 H   0  0  0  0  0  0  0  0  0  0  0  0
    2.1799   -2.1514    0.4788 N   0  0  0  0  0  0  0  0  0  0  0  0
    3.4774   -2.5700    0.0016 C   0  0  2  0  0  0  0  0  0  0  0  0
    3.4357   -2.5866   -1.5208 C   0  0  0  0  0  0  0  0  0  0  0  0
    2.3914   -2.6824   -2.1621 O   0  0  0  0  0  0  0  0  0  0  0  0
    3.8539   -3.9375    0.5500 C   0  0  0  0  0  0  0  0  0  0  0  0
    1.3661   -2.4221   -0.0654 H   0  0  0  0  0  0  0  0  0  0  0  0
    4.1970   -1.8163    0.3395 H   0  0  0  0  0  0  0  0  0  0  0  0
    3.1443   -4.7058    0.2219 H   0  0  0  0  0  0  0  0  0  0  0  0
    4.8497   -4.2408    0.2103 H   0  0  0  0  0  0  0  0  0  0  0  0
    3.8544   -3.9315    1.6453 H   0  0  0  0  0  0  0  0  0  0  0  0
    4.7051   -2.5255   -2.0784 N   0  0  0  0  0  0  0  0  0  0  0  0
    4.9316   -2.5393   -3.5047 C   0  0  0  0  0  0  0  0  0  0  0  0
    5.5135   -2.4286   -1.4710 H   0  0  0  0  0  0  0  0  0  0  0  0
    5.0929   -3.5742   -3.8408 H   0  0  0  0  0  0  0  0  0  0  0  0
    4.0547   -2.1193   -4.0192 H   0  0  0  0  0  0  0  0  0  0  0  0
    5.8197   -1.9346   -3.7407 H   0  0  0  0  0  0  0  0  0  0  0  0
  1  3  1  0  0  0  0
  1  7  1  0  0  0  0
  1  2  2  0  0  0  0
 30 31  1  0  0  0  0
 31 39  1  0  0  0  0
 31 32  2  0  0  0  0
  8  9  1  0  0  0  0
  9 17  1  0  0  0  0
  9 10  2  0  0  0  0
 18 19  1  0  0  0  0
 19 29  1  0  0  0  0
 19 20  2  0  0  0  0
 21 22  1  0  0  0  0
 22 23  1  0  0  0  0
 22 24  2  0  0  0  0
 30 33  1  0  0  0  0
  8 11  1  0  0  0  0
 39 40  1  0  0  0  0
 18 21  1  0  0  0  0
 29 30  1  0  0  0  0
  7  8  1  0  0  0  0
 17 18  1  0  0  0  0
  3  4  1  0  0  0  0
  3  5  1  0  0  0  0
  3  6  1  0  0  0  0
 33 36  1  0  0  0  0
 33 37  1  0  0  0  0
 33 38  1  0  0  0  0
 11 14  1  0  0  0  0
 11 15  1  0  0  0  0
 11 16  1  0  0  0  0
 40 42  1  0  0  0  0
 40 43  1  0  0  0  0
 40 44  1  0  0  0  0
 21 27  1  0  0  0  0
 21 28  1  0  0  0  0
 30 35  1  0  0  0  0
  8 13  1  0  0  0  0
 18 26  1  0  0  0  0
 39 41  1  0  0  0  0
  7 12  1  0  0  0  0
 29 34  1  0  0  0  0
 17 25  1  0  0  0  0
M  CHG  1  23  -1
M  END
$$$$

  -OEChem-05262214473D

 44 43  0     1  0  0  0  0  0999 V2000
   -4.0256   -1.8030   -2.1581 C   0  0  0  0  0  0  0  0  0  0  0  0
   -3.7513   -2.6782   -2.9709 O   0  0  0  0  0  0  0  0  0  0  0  0
   -5.3491   -1.1169   -2.2339 C   0  0  0  0  0  0  0  0  0  0  0  0
   -5.3223   -0.2211   -2.8750 H   0  0  0  0  0  0  0  0  0  0  0  0
   -6.1322   -1.7605   -2.6658 H   0  0  0  0  0  0  0  0  0  0  0  0
   -5.7568   -0.7715   -1.2704 H   0  0  0  0  0  0  0  0  0  0  0  0
   -3.2124   -1.3578   -1.1289 N   0  0  0  0  0  0  0  0  0  0  0  0
   -1.8971   -1.8843   -0.8752 C   0  0  2  0  0  0  0  0  0  0  0  0
   -1.2676   -1.0599    0.2399 C   0  0  0  0  0  0  0  0  0  0  0  0
   -1.6270    0.0833    0.5138 O   0  0  0  0  0  0  0  0  0  0  0  0
   -1.0364   -1.8506   -2.1285 C   0  0  0  0  0  0  0  0  0  0  0  0
   -3.5631   -0.6202   -0.5206 H   0  0  0  0  0  0  0  0  0  0  0  0
   -2.0301   -2.9174   -0.5360 H   0  0  0  0  0  0  0  0  0  0  0  0
   -0.8921   -0.8236   -2.4833 H   0  0  0  0  0  0  0  0  0  0  0  0
   -0.0457   -2.2777   -1.9410 H   0  0  0  0  0  0  0  0  0  0  0  0
   -1.5052   -2.4193   -2.9387 H   0  0  0  0  0  0  0  0  0  0  0  0
   -0.2267   -1.7335    0.8672 N   0  0  0  0  0  0  0  0  0  0  0  0
    0.5363   -1.1590    1.9465 C   0  0  2  0  0  0  0  0  0  0  0  0
    2.0062   -1.4433    1.6598 C   0  0  0  0  0  0  0  0  0  0  0  0
    2.8837   -1.3655    2.5172 O   0  0  0  0  0  0  0  0  0  0  0  0
    0.1317   -1.7395    3.2996 C   0  0  0  0  0  0  0  0  0  0  0  0
   -1.2637   -1.3627    3.8135 C   0  0  0  0  0  0  0  0  0  0  0  0
   -1.6747   -0.2355    3.4118 O   0  5  0  0  0  0  0  0  0  0  0  0
   -1.8313   -2.1963    4.5710 O   0  0  0  0  0  0  0  0  0  0  0  0
   -0.0113   -2.6869    0.5854 H   0  0  0  0  0  0  0  0  0  0  0  0
    0.3653   -0.0771    1.9125 H   0  0  0  0  0  0  0  0  0  0  0  0
    0.8639   -1.4422    4.0628 H   0  0  0  0  0  0  0  0  0  0  0  0
    0.1589   -2.8361    3.2542 H   0  0  0  0  0  0  0  0  0  0  0  0
    2.2137   -1.8443    0.3474 N   0  0  0  0  0  0  0  0  0  0  0  0
    3.5162   -2.2017   -0.1645 C   0  0  2  0  0  0  0  0  0  0  0  0
    3.5568   -1.8374   -1.6428 C   0  0  0  0  0  0  0  0  0  0  0  0
    2.5458   -1.7134   -2.3310 O   0  0  0  0  0  0  0  0  0  0  0  0
    3.8038   -3.6811    0.0388 C   0  0  0  0  0  0  0  0  0  0  0  0
    1.4199   -1.9263   -0.2811 H   0  0  0  0  0  0  0  0  0  0  0  0
    4.2477   -1.5962    0.3816 H   0  0  0  0  0  0  0  0  0  0  0  0
    3.0810   -4.3037   -0.5010 H   0  0  0  0  0  0  0  0  0  0  0  0
    4.8028   -3.9446   -0.3239 H   0  0  0  0  0  0  0  0  0  0  0  0
    3.7449   -3.9474    1.0996 H   0  0  0  0  0  0  0  0  0  0  0  0
    4.8561   -1.7093   -2.1133 N   0  0  0  0  0  0  0  0  0  0  0  0
    5.1592   -1.3808   -3.4867 C   0  0  0  0  0  0  0  0  0  0  0  0
    5.6337   -1.8107   -1.4676 H   0  0  0  0  0  0  0  0  0  0  0  0
    5.2944   -2.3070   -4.0645 H   0  0  0  0  0  0  0  0  0  0  0  0
    4.3303   -0.7988   -3.9158 H   0  0  0  0  0  0  0  0  0  0  0  0
    6.0837   -0.7861   -3.5259 H   0  0  0  0  0  0  0  0  0  0  0  0
  1  3  1  0  0  0  0
  1  7  1  0  0  0  0
  1  2  2  0  0  0  0
 30 31  1  0  0  0  0
 31 39  1  0  0  0  0
 31 32  2  0  0  0  0
  8  9  1  0  0  0  0
  9 17  1  0  0  0  0
  9 10  2  0  0  0  0
 18 19  1  0  0  0  0
 19 29  1  0  0  0  0
 19 20  2  0  0  0  0
 21 22  1  0  0  0  0
 22 23  1  0  0  0  0
 22 24  2  0  0  0  0
 30 33  1  0  0  0  0
  8 11  1  0  0  0  0
 39 40  1  0  0  0  0
 18 21  1  0  0  0  0
 29 30  1  0  0  0  0
  7  8  1  0  0  0  0
 17 18  1  0  0  0  0
  3  4  1  0  0  0  0
  3  5  1  0  0  0  0
  3  6  1  0  0  0  0
 33 36  1  0  0  0  0
 33 37  1  0  0  0  0
 33 38  1  0  0  0  0
 11 14  1  0  0  0  0
 11 15  1  0  0  0  0
 11 16  1  0  0  0  0
 40 42  1  0  0  0  0
 40 43  1  0  0  0  0
 40 44  1  0  0  0  0
 21 27  1  0  0  0  0
 21 28  1  0  0  0  0
 30 35  1  0  0  0  0
  8 13  1  0  0  0  0
 18 26  1  0  0  0  0
 39 41  1  0  0  0  0
  7 12  1  0  0  0  0
 29 34  1  0  0  0  0
 17 25  1  0  0  0  0
M  CHG  1  23  -1
M  END
$$$$

  -OEChem-05262214473D

 44 43  0     1  0  0  0  0  0999 V2000
   -4.0256   -1.8030   -2.1581 C   0  0  0  0  0  0  0  0  0  0  0  0
   -3.7513   -2.6782   -2.9709 O   0  0  0  0  0  0  0  0  0  0  0  0
   -5.3491   -1.1169   -2.2339 C   0  0  0  0  0  0  0  0  0  0  0  0
   -5.3223   -0.2211   -2.8750 H   0  0  0  0  0  0  0  0  0  0  0  0
   -6.1322   -1.7605   -2.6658 H   0  0  0  0  0  0  0  0  0  0  0  0
   -5.7568   -0.7715   -1.2704 H   0  0  0  0  0  0  0  0  0  0  0  0
   -3.2124   -1.3578   -1.1289 N   0  0  0  0  0  0  0  0  0  0  0  0
   -1.8971   -1.8843   -0.8752 C   0  0  2  0  0  0  0  0  0  0  0  0
   -1.2676   -1.0599    0.2399 C   0  0  0  0  0  0  0  0  0  0  0  0
   -1.6270    0.0833    0.5138 O   0  0  0  0  0  0  0  0  0  0  0  0
   -1.0364   -1.8506   -2.1285 C   0  0  0  0  0  0  0  0  0  0  0  0
   -3.5631   -0.6202   -0.5206 H   0  0  0  0  0  0  0  0  0  0  0  0
   -2.0301   -2.9174   -0.5360 H   0  0  0  0  0  0  0  0  0  0  0  0
   -0.8921   -0.8236   -2.4833 H   0  0  0  0  0  0  0  0  0  0  0  0
   -0.0457   -2.2777   -1.9410 H   0  0  0  0  0  0  0  0  0  0  0  0
   -1.5052   -2.4193   -2.9387 H   0  0  0  0  0  0  0  0  0  0  0  0
   -0.2267   -1.7335    0.8672 N   0  0  0  0  0  0  0  0  0  0  0  0
    0.5363   -1.1590    1.9465 C   0  0  2  0  0  0  0  0  0  0  0  0
    2.0062   -1.4433    1.6598 C   0  0  0  0  0  0  0  0  0  0  0  0
    2.8383   -1.6291    2.5455 O   0  0  0  0  0  0  0  0  0  0  0  0
    0.1317   -1.7395    3.2996 C   0  0  0  0  0  0  0  0  0  0  0  0
   -1.2637   -1.3627    3.8135 C   0  0  0  0  0  0  0  0  0  0  0  0
   -1.6747   -0.2355    3.4118 O   0  5  0  0  0  0  0  0  0  0  0  0
   -1.8313   -2.1963    4.5710 O   0  0  0  0  0  0  0  0  0  0  0  0
   -0.0113   -2.6869    0.5854 H   0  0  0  0  0  0  0  0  0  0  0  0
    0.3653   -0.0771    1.9125 H   0  0  0  0  0  0  0  0  0  0  0  0
    0.8639   -1.4422    4.0628 H   0  0  0  0  0  0  0  0  0  0  0  0
    0.1589   -2.8361    3.2542 H   0  0  0  0  0  0  0  0  0  0  0  0
    2.2676   -1.5165    0.2987 N   0  0  0  0  0  0  0  0  0  0  0  0
    3.5797   -1.8064   -0.2312 C   0  0  2  0  0  0  0  0  0  0  0  0
    3.7161   -1.0891   -1.5678 C   0  0  0  0  0  0  0  0  0  0  0  0
    2.7503   -0.7429   -2.2449 O   0  0  0  0  0  0  0  0  0  0  0  0
    3.7926   -3.3034   -0.3935 C   0  0  0  0  0  0  0  0  0  0  0  0
    1.5065   -1.3962   -0.3631 H   0  0  0  0  0  0  0  0  0  0  0  0
    4.3055   -1.3965    0.4796 H   0  0  0  0  0  0  0  0  0  0  0  0
    3.0744   -3.7318   -1.1021 H   0  0  0  0  0  0  0  0  0  0  0  0
    4.7977   -3.5229   -0.7682 H   0  0  0  0  0  0  0  0  0  0  0  0
    3.6647   -3.8212    0.5633 H   0  0  0  0  0  0  0  0  0  0  0  0
    5.0435   -0.9196   -1.9360 N   0  0  0  0  0  0  0  0  0  0  0  0
    5.4345   -0.2774   -3.1691 C   0  0  0  0  0  0  0  0  0  0  0  0
    5.7796   -1.2207   -1.3042 H   0  0  0  0  0  0  0  0  0  0  0  0
    5.5615   -1.0370   -3.9545 H   0  0  0  0  0  0  0  0  0  0  0  0
    4.6558    0.4375   -3.4731 H   0  0  0  0  0  0  0  0  0  0  0  0
    6.3843    0.2568   -3.0190 H   0  0  0  0  0  0  0  0  0  0  0  0
  1  3  1  0  0  0  0
  1  7  1  0  0  0  0
  1  2  2  0  0  0  0
 30 31  1  0  0  0  0
 31 39  1  0  0  0  0
 31 32  2  0  0  0  0
  8  9  1  0  0  0  0
  9 17  1  0  0  0  0
  9 10  2  0  0  0  0
 18 19  1  0  0  0  0
 19 29  1  0  0  0  0
 19 20  2  0  0  0  0
 21 22  1  0  0  0  0
 22 23  1  0  0  0  0
 22 24  2  0  0  0  0
 30 33  1  0  0  0  0
  8 11  1  0  0  0  0
 39 40  1  0  0  0  0
 18 21  1  0  0  0  0
 29 30  1  0  0  0  0
  7  8  1  0  0  0  0
 17 18  1  0  0  0  0
  3  4  1  0  0  0  0
  3  5  1  0  0  0  0
  3  6  1  0  0  0  0
 33 36  1  0  0  0  0
 33 37  1  0  0  0  0
 33 38  1  0  0  0  0
 11 14  1  0  0  0  0
 11 15  1  0  0  0  0
 11 16  1  0  0  0  0
 40 42  1  0  0  0  0
 40 43  1  0  0  0  0
 40 44  1  0  0  0  0
 21 27  1  0  0  0  0
 21 28  1  0  0  0  0
 30 35  1  0  0  0  0
  8 13  1  0  0  0  0
 18 26  1  0  0  0  0
 39 41  1  0  0  0  0
  7 12  1  0  0  0  0
 29 34  1  0  0  0  0
 17 25  1  0  0  0  0
M  CHG  1  23  -1
M  END
$$$$

  -OEChem-05262214473D

 44 43  0     1  0  0  0  0  0999 V2000
   -4.0256   -1.8030   -2.1581 C   0  0  0  0  0  0  0  0  0  0  0  0
   -3.7513   -2.6782   -2.9709 O   0  0  0  0  0  0  0  0  0  0  0  0
   -5.3491   -1.1169   -2.2339 C   0  0  0  0  0  0  0  0  0  0  0  0
   -5.3223   -0.2211   -2.8750 H   0  0  0  0  0  0  0  0  0  0  0  0
   -6.1322   -1.7605   -2.6658 H   0  0  0  0  0  0  0  0  0  0  0  0
   -5.7568   -0.7715   -1.2704 H   0  0  0  0  0  0  0  0  0  0  0  0
   -3.2124   -1.3578   -1.1289 N   0  0  0  0  0  0  0  0  0  0  0  0
   -1.8971   -1.8843   -0.8752 C   0  0  2  0  0  0  0  0  0  0  0  0
   -1.2676   -1.0599    0.2399 C   0  0  0  0  0  0  0  0  0  0  0  0
   -1.6270    0.0833    0.5138 O   0  0  0  0  0  0  0  0  0  0  0  0
   -1.0364   -1.8506   -2.1285 C   0  0  0  0  0  0  0  0  0  0  0  0
   -3.5631   -0.6202   -0.5206 H   0  0  0  0  0  0  0  0  0  0  0  0
   -2.0301   -2.9174   -0.5360 H   0  0  0  0  0  0  0  0  0  0  0  0
   -0.8921   -0.8236   -2.4833 H   0  0  0  0  0  0  0  0  0  0  0  0
   -0.0457   -2.2777   -1.9410 H   0  0  0  0  0  0  0  0  0  0  0  0
   -1.5052   -2.4193   -2.9387 H   0  0  0  0  0  0  0  0  0  0  0  0
   -0.2267   -1.7335    0.8672 N   0  0  0  0  0  0  0  0  0  0  0  0
    0.5363   -1.1590    1.9465 C   0  0  2  0  0  0  0  0  0  0  0  0
    2.0062   -1.4433    1.6598 C   0  0  0  0  0  0  0  0  0  0  0  0
    2.7801   -1.8886    2.5048 O   0  0  0  0  0  0  0  0  0  0  0  0
    0.1317   -1.7395    3.2996 C   0  0  0  0  0  0  0  0  0  0  0  0
   -1.2637   -1.3627    3.8135 C   0  0  0  0  0  0  0  0  0  0  0  0
   -1.6747   -0.2355    3.4118 O   0  5  0  0  0  0  0  0  0  0  0  0
   -1.8313   -2.1963    4.5710 O   0  0  0  0  0  0  0  0  0  0  0  0
   -0.0113   -2.6869    0.5854 H   0  0  0  0  0  0  0  0  0  0  0  0
    0.3653   -0.0771    1.9125 H   0  0  0  0  0  0  0  0  0  0  0  0
    0.8639   -1.4422    4.0628 H   0  0  0  0  0  0  0  0  0  0  0  0
    0.1589   -2.8361    3.2542 H   0  0  0  0  0  0  0  0  0  0  0  0
    2.3380   -1.1903    0.3361 N   0  0  0  0  0  0  0  0  0  0  0  0
    3.6635   -1.4110   -0.1939 C   0  0  2  0  0  0  0  0  0  0  0  0
    3.9028   -0.3928   -1.3009 C   0  0  0  0  0  0  0  0  0  0  0  0
    2.9910    0.1631   -1.9096 O   0  0  0  0  0  0  0  0  0  0  0  0
    3.8209   -2.8301   -0.7172 C   0  0  0  0  0  0  0  0  0  0  0  0
    1.6198   -0.8679   -0.3058 H   0  0  0  0  0  0  0  0  0  0  0  0
    4.3662   -1.2309    0.6269 H   0  0  0  0  0  0  0  0  0  0  0  0
    3.1248   -3.0291   -1.5402 H   0  0  0  0  0  0  0  0  0  0  0  0
    4.8348   -3.0044   -1.0924 H   0  0  0  0  0  0  0  0  0  0  0  0
    3.6193   -3.5615    0.0728 H   0  0  0  0  0  0  0  0  0  0  0  0
    5.2543   -0.2102   -1.5586 N   0  0  0  0  0  0  0  0  0  0  0  0
    5.7389    0.6958   -2.5737 C   0  0  0  0  0  0  0  0  0  0  0  0
    5.9415   -0.6986   -0.9921 H   0  0  0  0  0  0  0  0  0  0  0  0
    5.8760    0.1492   -3.5185 H   0  0  0  0  0  0  0  0  0  0  0  0
    5.0089    1.5053   -2.7212 H   0  0  0  0  0  0  0  0  0  0  0  0
    6.7009    1.1231   -2.2546 H   0  0  0  0  0  0  0  0  0  0  0  0
  1  3  1  0  0  0  0
  1  7  1  0  0  0  0
  1  2  2  0  0  0  0
 30 31  1  0  0  0  0
 31 39  1  0  0  0  0
 31 32  2  0  0  0  0
  8  9  1  0  0  0  0
  9 17  1  0  0  0  0
  9 10  2  0  0  0  0
 18 19  1  0  0  0  0
 19 29  1  0  0  0  0
 19 20  2  0  0  0  0
 21 22  1  0  0  0  0
 22 23  1  0  0  0  0
 22 24  2  0  0  0  0
 30 33  1  0  0  0  0
  8 11  1  0  0  0  0
 39 40  1  0  0  0  0
 18 21  1  0  0  0  0
 29 30  1  0  0  0  0
  7  8  1  0  0  0  0
 17 18  1  0  0  0  0
  3  4  1  0  0  0  0
  3  5  1  0  0  0  0
  3  6  1  0  0  0  0
 33 36  1  0  0  0  0
 33 37  1  0  0  0  0
 33 38  1  0  0  0  0
 11 14  1  0  0  0  0
 11 15  1  0  0  0  0
 11 16  1  0  0  0  0
 40 42  1  0  0  0  0
 40 43  1  0  0  0  0
 40 44  1  0  0  0  0
 21 27  1  0  0  0  0
 21 28  1  0  0  0  0
 30 35  1  0  0  0  0
  8 13  1  0  0  0  0
 18 26  1  0  0  0  0
 39 41  1  0  0  0  0
  7 12  1  0  0  0  0
 29 34  1  0  0  0  0
 17 25  1  0  0  0  0
M  CHG  1  23  -1
M  END
$$$$

  -OEChem-05262214473D

 44 43  0     1  0  0  0  0  0999 V2000
   -4.0256   -1.8030   -2.1581 C   0  0  0  0  0  0  0  0  0  0  0  0
   -3.7513   -2.6782   -2.9709 O   0  0  0  0  0  0  0  0  0  0  0  0
   -5.3491   -1.1169   -2.2339 C   0  0  0  0  0  0  0  0  0  0  0  0
   -5.3223   -0.2211   -2.8750 H   0  0  0  0  0  0  0  0  0  0  0  0
   -6.1322   -1.7605   -2.6658 H   0  0  0  0  0  0  0  0  0  0  0  0
   -5.7568   -0.7715   -1.2704 H   0  0  0  0  0  0  0  0  0  0  0  0
   -3.2124   -1.3578   -1.1289 N   0  0  0  0  0  0  0  0  0  0  0  0
   -1.8971   -1.8843   -0.8752 C   0  0  2  0  0  0  0  0  0  0  0  0
   -1.2676   -1.0599    0.2399 C   0  0  0  0  0  0  0  0  0  0  0  0
   -1.6270    0.0833    0.5138 O   0  0  0  0  0  0  0  0  0  0  0  0
   -1.0364   -1.8506   -2.1285 C   0  0  0  0  0  0  0  0  0  0  0  0
   -3.5631   -0.6202   -0.5206 H   0  0  0  0  0  0  0  0  0  0  0  0
   -2.0301   -2.9174   -0.5360 H   0  0  0  0  0  0  0  0  0  0  0  0
   -0.8921   -0.8236   -2.4833 H   0  0  0  0  0  0  0  0  0  0  0  0
   -0.0457   -2.2777   -1.9410 H   0  0  0  0  0  0  0  0  0  0  0  0
   -1.5052   -2.4193   -2.9387 H   0  0  0  0  0  0  0  0  0  0  0  0
   -0.2267   -1.7335    0.8672 N   0  0  0  0  0  0  0  0  0  0  0  0
    0.5363   -1.1590    1.9465 C   0  0  2  0  0  0  0  0  0  0  0  0
    2.0062   -1.4433    1.6598 C   0  0  0  0  0  0  0  0  0  0  0  0
    2.7133   -2.1262    2.3979 O   0  0  0  0  0  0  0  0  0  0  0  0
    0.1317   -1.7395    3.2996 C   0  0  0  0  0  0  0  0  0  0  0  0
   -1.2637   -1.3627    3.8135 C   0  0  0  0  0  0  0  0  0  0  0  0
   -1.6747   -0.2355    3.4118 O   0  5  0  0  0  0  0  0  0  0  0  0
   -1.8313   -2.1963    4.5710 O   0  0  0  0  0  0  0  0  0  0  0  0
   -0.0113   -2.6869    0.5854 H   0  0  0  0  0  0  0  0  0  0  0  0
    0.3653   -0.0771    1.9125 H   0  0  0  0  0  0  0  0  0  0  0  0
    0.8639   -1.4422    4.0628 H   0  0  0  0  0  0  0  0  0  0  0  0
    0.1589   -2.8361    3.2542 H   0  0  0  0  0  0  0  0  0  0  0  0
    2.4200   -0.8881    0.4570 N   0  0  0  0  0  0  0  0  0  0  0  0
    3.7618   -1.0425   -0.0551 C   0  0  2  0  0  0  0  0  0  0  0  0
    4.1042    0.2041   -0.8603 C   0  0  0  0  0  0  0  0  0  0  0  0
    3.2513    0.9429   -1.3480 O   0  0  0  0  0  0  0  0  0  0  0  0
    3.8870   -2.2936   -0.9105 C   0  0  0  0  0  0  0  0  0  0  0  0
    1.7522   -0.3775   -0.1132 H   0  0  0  0  0  0  0  0  0  0  0  0
    4.4259   -1.1107    0.8135 H   0  0  0  0  0  0  0  0  0  0  0  0
    3.2289   -2.2435   -1.7856 H   0  0  0  0  0  0  0  0  0  0  0  0
    4.9115   -2.4245   -1.2744 H   0  0  0  0  0  0  0  0  0  0  0  0
    3.6117   -3.1861   -0.3383 H   0  0  0  0  0  0  0  0  0  0  0  0
    5.4742    0.3707   -1.0069 N   0  0  0  0  0  0  0  0  0  0  0  0
    6.0515    1.4724   -1.7411 C   0  0  0  0  0  0  0  0  0  0  0  0
    6.1082   -0.2801   -0.5526 H   0  0  0  0  0  0  0  0  0  0  0  0
    6.2164    1.1710   -2.7860 H   0  0  0  0  0  0  0  0  0  0  0  0
    5.3658    2.3320   -1.7114 H   0  0  0  0  0  0  0  0  0  0  0  0
    7.0120    1.7537   -1.2847 H   0  0  0  0  0  0  0  0  0  0  0  0
  1  3  1  0  0  0  0
  1  7  1  0  0  0  0
  1  2  2  0  0  0  0
 30 31  1  0  0  0  0
 31 39  1  0  0  0  0
 31 32  2  0  0  0  0
  8  9  1  0  0  0  0
  9 17  1  0  0  0  0
  9 10  2  0  0  0  0
 18 19  1  0  0  0  0
 19 29  1  0  0  0  0
 19 20  2  0  0  0  0
 21 22  1  0  0  0  0
 22 23  1  0  0  0  0
 22 24  2  0  0  0  0
 30 33  1  0  0  0  0
  8 11  1  0  0  0  0
 39 40  1  0  0  0  0
 18 21  1  0  0  0  0
 29 30  1  0  0  0  0
  7  8  1  0  0  0  0
 17 18  1  0  0  0  0
  3  4  1  0  0  0  0
  3  5  1  0  0  0  0
  3  6  1  0  0  0  0
 33 36  1  0  0  0  0
 33 37  1  0  0  0  0
 33 38  1  0  0  0  0
 11 14  1  0  0  0  0
 11 15  1  0  0  0  0
 11 16  1  0  0  0  0
 40 42  1  0  0  0  0
 40 43  1  0  0  0  0
 40 44  1  0  0  0  0
 21 27  1  0  0  0  0
 21 28  1  0  0  0  0
 30 35  1  0  0  0  0
  8 13  1  0  0  0  0
 18 26  1  0  0  0  0
 39 41  1  0  0  0  0
  7 12  1  0  0  0  0
 29 34  1  0  0  0  0
 17 25  1  0  0  0  0
M  CHG  1  23  -1
M  END
$$$$

  -OEChem-05262214473D

 44 43  0     1  0  0  0  0  0999 V2000
   -4.0256   -1.8030   -2.1581 C   0  0  0  0  0  0  0  0  0  0  0  0
   -3.7513   -2.6782   -2.9709 O   0  0  0  0  0  0  0  0  0  0  0  0
   -5.3491   -1.1169   -2.2339 C   0  0  0  0  0  0  0  0  0  0  0  0
   -5.3223   -0.2211   -2.8750 H   0  0  0  0  0  0  0  0  0  0  0  0
   -6.1322   -1.7605   -2.6658 H   0  0  0  0  0  0  0  0  0  0  0  0
   -5.7568   -0.7715   -1.2704 H   0  0  0  0  0  0  0  0  0  0  0  0
   -3.2124   -1.3578   -1.1289 N   0  0  0  0  0  0  0  0  0  0  0  0
   -1.8971   -1.8843   -0.8752 C   0  0  2  0  0  0  0  0  0  0  0  0
   -1.2676   -1.0599    0.2399 C   0  0  0  0  0  0  0  0  0  0  0  0
   -1.6270    0.0833    0.5138 O   0  0  0  0  0  0  0  0  0  0  0  0
   -1.0364   -1.8506   -2.1285 C   0  0  0  0  0  0  0  0  0  0  0  0
   -3.5631   -0.6202   -0.5206 H   0  0  0  0  0  0  0  0  0  0  0  0
   -2.0301   -2.9174   -0.5360 H   0  0  0  0  0  0  0  0  0  0  0  0
   -0.8921   -0.8236   -2.4833 H   0  0  0  0  0  0  0  0  0  0  0  0
   -0.0457   -2.2777   -1.9410 H   0  0  0  0  0  0  0  0  0  0  0  0
   -1.5052   -2.4193   -2.9387 H   0  0  0  0  0  0  0  0  0  0  0  0
   -0.2267   -1.7335    0.8672 N   0  0  0  0  0  0  0  0  0  0  0  0
    0.5363   -1.1590    1.9465 C   0  0  2  0  0  0  0  0  0  0  0  0
    2.0062   -1.4433    1.6598 C   0  0  0  0  0  0  0  0  0  0  0  0
    2.6424   -2.3259    2.2322 O   0  0  0  0  0  0  0  0  0  0  0  0
    0.1317   -1.7395    3.2996 C   0  0  0  0  0  0  0  0  0  0  0  0
   -1.2637   -1.3627    3.8135 C   0  0  0  0  0  0  0  0  0  0  0  0
   -1.6747   -0.2355    3.4118 O   0  5  0  0  0  0  0  0  0  0  0  0
   -1.8313   -2.1963    4.5710 O   0  0  0  0  0  0  0  0  0  0  0  0
   -0.0113   -2.6869    0.5854 H   0  0  0  0  0  0  0  0  0  0  0  0
    0.3653   -0.0771    1.9125 H   0  0  0  0  0  0  0  0  0  0  0  0
    0.8639   -1.4422    4.0628 H   0  0  0  0  0  0  0  0  0  0  0  0
    0.1589   -2.8361    3.2542 H   0  0  0  0  0  0  0  0  0  0  0  0
    2.5082   -0.6302    0.6532 N   0  0  0  0  0  0  0  0  0  0  0  0
    3.8680   -0.7259    0.1757 C   0  0  2  0  0  0  0  0  0  0  0  0
    4.3065    0.6608   -0.2761 C   0  0  0  0  0  0  0  0  0  0  0  0
    3.5137    1.5432   -0.5983 O   0  0  0  0  0  0  0  0  0  0  0  0
    3.9863   -1.7303   -0.9601 C   0  0  0  0  0  0  0  0  0  0  0  0
    1.8947    0.0418    0.2017 H   0  0  0  0  0  0  0  0  0  0  0  0
    4.4803   -1.0441    1.0265 H   0  0  0  0  0  0  0  0  0  0  0  0
    3.3796   -1.4284   -1.8216 H   0  0  0  0  0  0  0  0  0  0  0  0
    5.0225   -1.8227   -1.3017 H   0  0  0  0  0  0  0  0  0  0  0  0
    3.6425   -2.7205   -0.6421 H   0  0  0  0  0  0  0  0  0  0  0  0
    5.6883    0.7833   -0.3184 N   0  0  0  0  0  0  0  0  0  0  0  0
    6.3511    1.9995   -0.7278 C   0  0  0  0  0  0  0  0  0  0  0  0
    6.2683    0.0064   -0.0155 H   0  0  0  0  0  0  0  0  0  0  0  0
    6.5597    1.9585   -1.8071 H   0  0  0  0  0  0  0  0  0  0  0  0
    5.7019    2.8610   -0.5125 H   0  0  0  0  0  0  0  0  0  0  0  0
    7.2964    2.1055   -0.1756 H   0  0  0  0  0  0  0  0  0  0  0  0
  1  3  1  0  0  0  0
  1  7  1  0  0  0  0
  1  2  2  0  0  0  0
 30 31  1  0  0  0  0
 31 39  1  0  0  0  0
 31 32  2  0  0  0  0
  8  9  1  0  0  0  0
  9 17  1  0  0  0  0
  9 10  2  0  0  0  0
 18 19  1  0  0  0  0
 19 29  1  0  0  0  0
 19 20  2  0  0  0  0
 21 22  1  0  0  0  0
 22 23  1  0  0  0  0
 22 24  2  0  0  0  0
 30 33  1  0  0  0  0
  8 11  1  0  0  0  0
 39 40  1  0  0  0  0
 18 21  1  0  0  0  0
 29 30  1  0  0  0  0
  7  8  1  0  0  0  0
 17 18  1  0  0  0  0
  3  4  1  0  0  0  0
  3  5  1  0  0  0  0
  3  6  1  0  0  0  0
 33 36  1  0  0  0  0
 33 37  1  0  0  0  0
 33 38  1  0  0  0  0
 11 14  1  0  0  0  0
 11 15  1  0  0  0  0
 11 16  1  0  0  0  0
 40 42  1  0  0  0  0
 40 43  1  0  0  0  0
 40 44  1  0  0  0  0
 21 27  1  0  0  0  0
 21 28  1  0  0  0  0
 30 35  1  0  0  0  0
  8 13  1  0  0  0  0
 18 26  1  0  0  0  0
 39 41  1  0  0  0  0
  7 12  1  0  0  0  0
 29 34  1  0  0  0  0
 17 25  1  0  0  0  0
M  CHG  1  23  -1
M  END
$$$$

  -OEChem-05262214473D

 44 43  0     1  0  0  0  0  0999 V2000
   -4.0256   -1.8030   -2.1581 C   0  0  0  0  0  0  0  0  0  0  0  0
   -3.7513   -2.6782   -2.9709 O   0  0  0  0  0  0  0  0  0  0  0  0
   -5.3491   -1.1169   -2.2339 C   0  0  0  0  0  0  0  0  0  0  0  0
   -5.3223   -0.2211   -2.8750 H   0  0  0  0  0  0  0  0  0  0  0  0
   -6.1322   -1.7605   -2.6658 H   0  0  0  0  0  0  0  0  0  0  0  0
   -5.7568   -0.7715   -1.2704 H   0  0  0  0  0  0  0  0  0  0  0  0
   -3.2124   -1.3578   -1.1289 N   0  0  0  0  0  0  0  0  0  0  0  0
   -1.8971   -1.8843   -0.8752 C   0  0  2  0  0  0  0  0  0  0  0  0
   -1.2676   -1.0599    0.2399 C   0  0  0  0  0  0  0  0  0  0  0  0
   -1.6270    0.0833    0.5138 O   0  0  0  0  0  0  0  0  0  0  0  0
   -1.0364   -1.8506   -2.1285 C   0  0  0  0  0  0  0  0  0  0  0  0
   -3.5631   -0.6202   -0.5206 H   0  0  0  0  0  0  0  0  0  0  0  0
   -2.0301   -2.9174   -0.5360 H   0  0  0  0  0  0  0  0  0  0  0  0
   -0.8921   -0.8236   -2.4833 H   0  0  0  0  0  0  0  0  0  0  0  0
   -0.0457   -2.2777   -1.9410 H   0  0  0  0  0  0  0  0  0  0  0  0
   -1.5052   -2.4193   -2.9387 H   0  0  0  0  0  0  0  0  0  0  0  0
   -0.2267   -1.7335    0.8672 N   0  0  0  0  0  0  0  0  0  0  0  0
    0.5363   -1.1590    1.9465 C   0  0  2  0  0  0  0  0  0  0  0  0
    2.0062   -1.4433    1.6598 C   0  0  0  0  0  0  0  0  0  0  0  0
    2.5722   -2.4739    2.0188 O   0  0  0  0  0  0  0  0  0  0  0  0
    0.1317   -1.7395    3.2996 C   0  0  0  0  0  0  0  0  0  0  0  0
   -1.2637   -1.3627    3.8135 C   0  0  0  0  0  0  0  0  0  0  0  0
   -1.6747   -0.2355    3.4118 O   0  5  0  0  0  0  0  0  0  0  0  0
   -1.8313   -2.1963    4.5710 O   0  0  0  0  0  0  0  0  0  0  0  0
   -0.0113   -2.6869    0.5854 H   0  0  0  0  0  0  0  0  0  0  0  0
    0.3653   -0.0771    1.9125 H   0  0  0  0  0  0  0  0  0  0  0  0
    0.8639   -1.4422    4.0628 H   0  0  0  0  0  0  0  0  0  0  0  0
    0.1589   -2.8361    3.2542 H   0  0  0  0  0  0  0  0  0  0  0  0
    2.5964   -0.4345    0.9113 N   0  0  0  0  0  0  0  0  0  0  0  0
    3.9749   -0.4829    0.4828 C   0  0  2  0  0  0  0  0  0  0  0  0
    4.4960    0.9464    0.4121 C   0  0  0  0  0  0  0  0  0  0  0  0
    3.7601    1.9233    0.2883 O   0  0  0  0  0  0  0  0  0  0  0  0
    4.1120   -1.1786   -0.8626 C   0  0  0  0  0  0  0  0  0  0  0  0
    2.0376    0.3612    0.6173 H   0  0  0  0  0  0  0  0  0  0  0  0
    4.5259   -1.0355    1.2516 H   0  0  0  0  0  0  0  0  0  0  0  0
    3.5665   -0.6394   -1.6456 H   0  0  0  0  0  0  0  0  0  0  0  0
    5.1604   -1.2399   -1.1725 H   0  0  0  0  0  0  0  0  0  0  0  0
    3.7096   -2.1964   -0.8178 H   0  0  0  0  0  0  0  0  0  0  0  0
    5.8820    0.9996    0.4600 N   0  0  0  0  0  0  0  0  0  0  0  0
    6.6172    2.2412    0.3969 C   0  0  0  0  0  0  0  0  0  0  0  0
    6.4110    0.1412    0.5825 H   0  0  0  0  0  0  0  0  0  0  0  0
    6.8823    2.4582   -0.6484 H   0  0  0  0  0  0  0  0  0  0  0  0
    5.9945    3.0564    0.7939 H   0  0  0  0  0  0  0  0  0  0  0  0
    7.5347    2.1548    0.9974 H   0  0  0  0  0  0  0  0  0  0  0  0
  1  3  1  0  0  0  0
  1  7  1  0  0  0  0
  1  2  2  0  0  0  0
 30 31  1  0  0  0  0
 31 39  1  0  0  0  0
 31 32  2  0  0  0  0
  8  9  1  0  0  0  0
  9 17  1  0  0  0  0
  9 10  2  0  0  0  0
 18 19  1  0  0  0  0
 19 29  1  0  0  0  0
 19 20  2  0  0  0  0
 21 22  1  0  0  0  0
 22 23  1  0  0  0  0
 22 24  2  0  0  0  0
 30 33  1  0  0  0  0
  8 11  1  0  0  0  0
 39 40  1  0  0  0  0
 18 21  1  0  0  0  0
 29 30  1  0  0  0  0
  7  8  1  0  0  0  0
 17 18  1  0  0  0  0
  3  4  1  0  0  0  0
  3  5  1  0  0  0  0
  3  6  1  0  0  0  0
 33 36  1  0  0  0  0
 33 37  1  0  0  0  0
 33 38  1  0  0  0  0
 11 14  1  0  0  0  0
 11 15  1  0  0  0  0
 11 16  1  0  0  0  0
 40 42  1  0  0  0  0
 40 43  1  0  0  0  0
 40 44  1  0  0  0  0
 21 27  1  0  0  0  0
 21 28  1  0  0  0  0
 30 35  1  0  0  0  0
  8 13  1  0  0  0  0
 18 26  1  0  0  0  0
 39 41  1  0  0  0  0
  7 12  1  0  0  0  0
 29 34  1  0  0  0  0
 17 25  1  0  0  0  0
M  CHG  1  23  -1
M  END
$$$$

  -OEChem-05262214473D

 44 43  0     1  0  0  0  0  0999 V2000
   -4.0256   -1.8030   -2.1581 C   0  0  0  0  0  0  0  0  0  0  0  0
   -3.7513   -2.6782   -2.9709 O   0  0  0  0  0  0  0  0  0  0  0  0
   -5.3491   -1.1169   -2.2339 C   0  0  0  0  0  0  0  0  0  0  0  0
   -5.3223   -0.2211   -2.8750 H   0  0  0  0  0  0  0  0  0  0  0  0
   -6.1322   -1.7605   -2.6658 H   0  0  0  0  0  0  0  0  0  0  0  0
   -5.7568   -0.7715   -1.2704 H   0  0  0  0  0  0  0  0  0  0  0  0
   -3.2124   -1.3578   -1.1289 N   0  0  0  0  0  0  0  0  0  0  0  0
   -1.8971   -1.8843   -0.8752 C   0  0  2  0  0  0  0  0  0  0  0  0
   -1.2676   -1.0599    0.2399 C   0  0  0  0  0  0  0  0  0  0  0  0
   -1.6270    0.0833    0.5138 O   0  0  0  0  0  0  0  0  0  0  0  0
   -1.0364   -1.8506   -2.1285 C   0  0  0  0  0  0  0  0  0  0  0  0
   -3.5631   -0.6202   -0.5206 H   0  0  0  0  0  0  0  0  0  0  0  0
   -2.0301   -2.9174   -0.5360 H   0  0  0  0  0  0  0  0  0  0  0  0
   -0.8921   -0.8236   -2.4833 H   0  0  0  0  0  0  0  0  0  0  0  0
   -0.0457   -2.2777   -1.9410 H   0  0  0  0  0  0  0  0  0  0  0  0
   -1.5052   -2.4193   -2.9387 H   0  0  0  0  0  0  0  0  0  0  0  0
   -0.2267   -1.7335    0.8672 N   0  0  0  0  0  0  0  0  0  0  0  0
    0.5363   -1.1590    1.9465 C   0  0  2  0  0  0  0  0  0  0  0  0
    2.0062   -1.4433    1.6598 C   0  0  0  0  0  0  0  0  0  0  0  0
    2.5074   -2.5602    1.7724 O   0  0  0  0  0  0  0  0  0  0  0  0
    0.1317   -1.7395    3.2996 C   0  0  0  0  0  0  0  0  0  0  0  0
   -1.2637   -1.3627    3.8135 C   0  0  0  0  0  0  0  0  0  0  0  0
   -1.6747   -0.2355    3.4118 O   0  5  0  0  0  0  0  0  0  0  0  0
   -1.8313   -2.1963    4.5710 O   0  0  0  0  0  0  0  0  0  0  0  0
   -0.0113   -2.6869    0.5854 H   0  0  0  0  0  0  0  0  0  0  0  0
    0.3653   -0.0771    1.9125 H   0  0  0  0  0  0  0  0  0  0  0  0
    0.8639   -1.4422    4.0628 H   0  0  0  0  0  0  0  0  0  0  0  0
    0.1589   -2.8361    3.2542 H   0  0  0  0  0  0  0  0  0  0  0  0
    2.6786   -0.3141    1.2137 N   0  0  0  0  0  0  0  0  0  0  0  0
    4.0752   -0.3301    0.8451 C   0  0  2  0  0  0  0  0  0  0  0  0
    4.6596    1.0413    1.1571 C   0  0  0  0  0  0  0  0  0  0  0  0
    3.9738    2.0571    1.2515 O   0  0  0  0  0  0  0  0  0  0  0  0
    4.2556   -0.6762   -0.6247 C   0  0  0  0  0  0  0  0  0  0  0  0
    2.1711    0.5591    1.1054 H   0  0  0  0  0  0  0  0  0  0  0  0
    4.5594   -1.0856    1.4734 H   0  0  0  0  0  0  0  0  0  0  0  0
    3.7769    0.0696   -1.2697 H   0  0  0  0  0  0  0  0  0  0  0  0
    5.3158   -0.7160   -0.8957 H   0  0  0  0  0  0  0  0  0  0  0  0
    3.8084   -1.6496   -0.8535 H   0  0  0  0  0  0  0  0  0  0  0  0
    6.0420    1.0049    1.2752 N   0  0  0  0  0  0  0  0  0  0  0  0
    6.8317    2.1810    1.5564 C   0  0  0  0  0  0  0  0  0  0  0  0
    6.5266    0.1153    1.2006 H   0  0  0  0  0  0  0  0  0  0  0  0
    7.1623    2.6359    0.6111 H   0  0  0  0  0  0  0  0  0  0  0  0
    6.2236    2.9049    2.1186 H   0  0  0  0  0  0  0  0  0  0  0  0
    7.7107    1.8980    2.1541 H   0  0  0  0  0  0  0  0  0  0  0  0
  1  3  1  0  0  0  0
  1  7  1  0  0  0  0
  1  2  2  0  0  0  0
 30 31  1  0  0  0  0
 31 39  1  0  0  0  0
 31 32  2  0  0  0  0
  8  9  1  0  0  0  0
  9 17  1  0  0  0  0
  9 10  2  0  0  0  0
 18 19  1  0  0  0  0
 19 29  1  0  0  0  0
 19 20  2  0  0  0  0
 21 22  1  0  0  0  0
 22 23  1  0  0  0  0
 22 24  2  0  0  0  0
 30 33  1  0  0  0  0
  8 11  1  0  0  0  0
 39 40  1  0  0  0  0
 18 21  1  0  0  0  0
 29 30  1  0  0  0  0
  7  8  1  0  0  0  0
 17 18  1  0  0  0  0
  3  4  1  0  0  0  0
  3  5  1  0  0  0  0
  3  6  1  0  0  0  0
 33 36  1  0  0  0  0
 33 37  1  0  0  0  0
 33 38  1  0  0  0  0
 11 14  1  0  0  0  0
 11 15  1  0  0  0  0
 11 16  1  0  0  0  0
 40 42  1  0  0  0  0
 40 43  1  0  0  0  0
 40 44  1  0  0  0  0
 21 27  1  0  0  0  0
 21 28  1  0  0  0  0
 30 35  1  0  0  0  0
  8 13  1  0  0  0  0
 18 26  1  0  0  0  0
 39 41  1  0  0  0  0
  7 12  1  0  0  0  0
 29 34  1  0  0  0  0
 17 25  1  0  0  0  0
M  CHG  1  23  -1
M  END
$$$$

  -OEChem-05262214473D

 44 43  0     1  0  0  0  0  0999 V2000
   -4.0256   -1.8030   -2.1581 C   0  0  0  0  0  0  0  0  0  0  0  0
   -3.7513   -2.6782   -2.9709 O   0  0  0  0  0  0  0  0  0  0  0  0
   -5.3491   -1.1169   -2.2339 C   0  0  0  0  0  0  0  0  0  0  0  0
   -5.3223   -0.2211   -2.8750 H   0  0  0  0  0  0  0  0  0  0  0  0
   -6.1322   -1.7605   -2.6658 H   0  0  0  0  0  0  0  0  0  0  0  0
   -5.7568   -0.7715   -1.2704 H   0  0  0  0  0  0  0  0  0  0  0  0
   -3.2124   -1.3578   -1.1289 N   0  0  0  0  0  0  0  0  0  0  0  0
   -1.8971   -1.8843   -0.8752 C   0  0  2  0  0  0  0  0  0  0  0  0
   -1.2676   -1.0599    0.2399 C   0  0  0  0  0  0  0  0  0  0  0  0
   -1.6270    0.0833    0.5138 O   0  0  0  0  0  0  0  0  0  0  0  0
   -1.0364   -1.8506   -2.1285 C   0  0  0  0  0  0  0  0  0  0  0  0
   -3.5631   -0.6202   -0.5206 H   0  0  0  0  0  0  0  0  0  0  0  0
   -2.0301   -2.9174   -0.5360 H   0  0  0  0  0  0  0  0  0  0  0  0
   -0.8921   -0.8236   -2.4833 H   0  0  0  0  0  0  0  0  0  0  0  0
   -0.0457   -2.2777   -1.9410 H   0  0  0  0  0  0  0  0  0  0  0  0
   -1.5052   -2.4193   -2.9387 H   0  0  0  0  0  0  0  0  0  0  0  0
   -0.2267   -1.7335    0.8672 N   0  0  0  0  0  0  0  0  0  0  0  0
    0.5363   -1.1590    1.9465 C   0  0  2  0  0  0  0  0  0  0  0  0
    2.0062   -1.4433    1.6598 C   0  0  0  0  0  0  0  0  0  0  0  0
    2.4526   -2.5789    1.5097 O   0  0  0  0  0  0  0  0  0  0  0  0
    0.1317   -1.7395    3.2996 C   0  0  0  0  0  0  0  0  0  0  0  0
   -1.2637   -1.3627    3.8135 C   0  0  0  0  0  0  0  0  0  0  0  0
   -1.6747   -0.2355    3.4118 O   0  5  0  0  0  0  0  0  0  0  0  0
   -1.8313   -2.1963    4.5710 O   0  0  0  0  0  0  0  0  0  0  0  0
   -0.0113   -2.6869    0.5854 H   0  0  0  0  0  0  0  0  0  0  0  0
    0.3653   -0.0771    1.9125 H   0  0  0  0  0  0  0  0  0  0  0  0
    0.8639   -1.4422    4.0628 H   0  0  0  0  0  0  0  0  0  0  0  0
    0.1589   -2.8361    3.2542 H   0  0  0  0  0  0  0  0  0  0  0  0
    2.7494   -0.2773    1.5399 N   0  0  0  0  0  0  0  0  0  0  0  0
    4.1619   -0.2777    1.2382 C   0  0  2  0  0  0  0  0  0  0  0  0
    4.7864    0.9390    1.9084 C   0  0  0  0  0  0  0  0  0  0  0  0
    4.1403    1.9355    2.2255 O   0  0  0  0  0  0  0  0  0  0  0  0
    4.4072   -0.2573   -0.2625 C   0  0  0  0  0  0  0  0  0  0  0  0
    2.2860    0.6219    1.6327 H   0  0  0  0  0  0  0  0  0  0  0  0
    4.5787   -1.1910    1.6767 H   0  0  0  0  0  0  0  0  0  0  0  0
    3.9966    0.6504   -0.7195 H   0  0  0  0  0  0  0  0  0  0  0  0
    5.4780   -0.2865   -0.4900 H   0  0  0  0  0  0  0  0  0  0  0  0
    3.9321   -1.1173   -0.7468 H   0  0  0  0  0  0  0  0  0  0  0  0
    6.1574    0.7987    2.0716 N   0  0  0  0  0  0  0  0  0  0  0  0
    6.9800    1.8230    2.6718 C   0  0  0  0  0  0  0  0  0  0  0  0
    6.6071   -0.0697    1.7969 H   0  0  0  0  0  0  0  0  0  0  0  0
    7.3807    2.4797    1.8855 H   0  0  0  0  0  0  0  0  0  0  0  0
    6.3735    2.4168    3.3715 H   0  0  0  0  0  0  0  0  0  0  0  0
    7.8123    1.3526    3.2159 H   0  0  0  0  0  0  0  0  0  0  0  0
  1  3  1  0  0  0  0
  1  7  1  0  0  0  0
  1  2  2  0  0  0  0
 30 31  1  0  0  0  0
 31 39  1  0  0  0  0
 31 32  2  0  0  0  0
  8  9  1  0  0  0  0
  9 17  1  0  0  0  0
  9 10  2  0  0  0  0
 18 19  1  0  0  0  0
 19 29  1  0  0  0  0
 19 20  2  0  0  0  0
 21 22  1  0  0  0  0
 22 23  1  0  0  0  0
 22 24  2  0  0  0  0
 30 33  1  0  0  0  0
  8 11  1  0  0  0  0
 39 40  1  0  0  0  0
 18 21  1  0  0  0  0
 29 30  1  0  0  0  0
  7  8  1  0  0  0  0
 17 18  1  0  0  0  0
  3  4  1  0  0  0  0
  3  5  1  0  0  0  0
  3  6  1  0  0  0  0
 33 36  1  0  0  0  0
 33 37  1  0  0  0  0
 33 38  1  0  0  0  0
 11 14  1  0  0  0  0
 11 15  1  0  0  0  0
 11 16  1  0  0  0  0
 40 42  1  0  0  0  0
 40 43  1  0  0  0  0
 40 44  1  0  0  0  0
 21 27  1  0  0  0  0
 21 28  1  0  0  0  0
 30 35  1  0  0  0  0
  8 13  1  0  0  0  0
 18 26  1  0  0  0  0
 39 41  1  0  0  0  0
  7 12  1  0  0  0  0
 29 34  1  0  0  0  0
 17 25  1  0  0  0  0
M  CHG  1  23  -1
M  END
$$$$

  -OEChem-05262214473D

 44 43  0     1  0  0  0  0  0999 V2000
   -4.0256   -1.8030   -2.1581 C   0  0  0  0  0  0  0  0  0  0  0  0
   -3.7513   -2.6782   -2.9709 O   0  0  0  0  0  0  0  0  0  0  0  0
   -5.3491   -1.1169   -2.2339 C   0  0  0  0  0  0  0  0  0  0  0  0
   -5.3223   -0.2211   -2.8750 H   0  0  0  0  0  0  0  0  0  0  0  0
   -6.1322   -1.7605   -2.6658 H   0  0  0  0  0  0  0  0  0  0  0  0
   -5.7568   -0.7715   -1.2704 H   0  0  0  0  0  0  0  0  0  0  0  0
   -3.2124   -1.3578   -1.1289 N   0  0  0  0  0  0  0  0  0  0  0  0
   -1.8971   -1.8843   -0.8752 C   0  0  2  0  0  0  0  0  0  0  0  0
   -1.2676   -1.0599    0.2399 C   0  0  0  0  0  0  0  0  0  0  0  0
   -1.6270    0.0833    0.5138 O   0  0  0  0  0  0  0  0  0  0  0  0
   -1.0364   -1.8506   -2.1285 C   0  0  0  0  0  0  0  0  0  0  0  0
   -3.5631   -0.6202   -0.5206 H   0  0  0  0  0  0  0  0  0  0  0  0
   -2.0301   -2.9174   -0.5360 H   0  0  0  0  0  0  0  0  0  0  0  0
   -0.8921   -0.8236   -2.4833 H   0  0  0  0  0  0  0  0  0  0  0  0
   -0.0457   -2.2777   -1.9410 H   0  0  0  0  0  0  0  0  0  0  0  0
   -1.5052   -2.4193   -2.9387 H   0  0  0  0  0  0  0  0  0  0  0  0
   -0.2267   -1.7335    0.8672 N   0  0  0  0  0  0  0  0  0  0  0  0
    0.5363   -1.1590    1.9465 C   0  0  2  0  0  0  0  0  0  0  0  0
    2.0062   -1.4433    1.6598 C   0  0  0  0  0  0  0  0  0  0  0  0
    2.4113   -2.5287    1.2487 O   0  0  0  0  0  0  0  0  0  0  0  0
    0.1317   -1.7395    3.2996 C   0  0  0  0  0  0  0  0  0  0  0  0
   -1.2637   -1.3627    3.8135 C   0  0  0  0  0  0  0  0  0  0  0  0
   -1.6747   -0.2355    3.4118 O   0  5  0  0  0  0  0  0  0  0  0  0
   -1.8313   -2.1963    4.5710 O   0  0  0  0  0  0  0  0  0  0  0  0
   -0.0113   -2.6869    0.5854 H   0  0  0  0  0  0  0  0  0  0  0  0
    0.3653   -0.0771    1.9125 H   0  0  0  0  0  0  0  0  0  0  0  0
    0.8639   -1.4422    4.0628 H   0  0  0  0  0  0  0  0  0  0  0  0
    0.1589   -2.8361    3.2542 H   0  0  0  0  0  0  0  0  0  0  0  0
    2.8037   -0.3266    1.8675 N   0  0  0  0  0  0  0  0  0  0  0  0
    4.2293   -0.3295    1.6351 C   0  0  2  0  0  0  0  0  0  0  0  0
    4.8675    0.6465    2.6147 C   0  0  0  0  0  0  0  0  0  0  0  0
    4.2481    1.5669    3.1440 O   0  0  0  0  0  0  0  0  0  0  0  0
    4.5566    0.0495    0.1991 C   0  0  0  0  0  0  0  0  0  0  0  0
    2.3747    0.5454    2.1633 H   0  0  0  0  0  0  0  0  0  0  0  0
    4.5824   -1.3445    1.8476 H   0  0  0  0  0  0  0  0  0  0  0  0
    4.2105    1.0635   -0.0324 H   0  0  0  0  0  0  0  0  0  0  0  0
    5.6359    0.0191    0.0169 H   0  0  0  0  0  0  0  0  0  0  0  0
    4.0725   -0.6358   -0.5049 H   0  0  0  0  0  0  0  0  0  0  0  0
    6.2205    0.3952    2.7950 N   0  0  0  0  0  0  0  0  0  0  0  0
    7.0520    1.1916    3.6670 C   0  0  0  0  0  0  0  0  0  0  0  0
    6.6471   -0.4011    2.3305 H   0  0  0  0  0  0  0  0  0  0  0  0
    7.5225    2.0000    3.0881 H   0  0  0  0  0  0  0  0  0  0  0  0
    6.4341    1.6254    4.4671 H   0  0  0  0  0  0  0  0  0  0  0  0
    7.8326    0.5560    4.1103 H   0  0  0  0  0  0  0  0  0  0  0  0
  1  3  1  0  0  0  0
  1  7  1  0  0  0  0
  1  2  2  0  0  0  0
 30 31  1  0  0  0  0
 31 39  1  0  0  0  0
 31 32  2  0  0  0  0
  8  9  1  0  0  0  0
  9 17  1  0  0  0  0
  9 10  2  0  0  0  0
 18 19  1  0  0  0  0
 19 29  1  0  0  0  0
 19 20  2  0  0  0  0
 21 22  1  0  0  0  0
 22 23  1  0  0  0  0
 22 24  2  0  0  0  0
 30 33  1  0  0  0  0
  8 11  1  0  0  0  0
 39 40  1  0  0  0  0
 18 21  1  0  0  0  0
 29 30  1  0  0  0  0
  7  8  1  0  0  0  0
 17 18  1  0  0  0  0
  3  4  1  0  0  0  0
  3  5  1  0  0  0  0
  3  6  1  0  0  0  0
 33 36  1  0  0  0  0
 33 37  1  0  0  0  0
 33 38  1  0  0  0  0
 11 14  1  0  0  0  0
 11 15  1  0  0  0  0
 11 16  1  0  0  0  0
 40 42  1  0  0  0  0
 40 43  1  0  0  0  0
 40 44  1  0  0  0  0
 21 27  1  0  0  0  0
 21 28  1  0  0  0  0
 30 35  1  0  0  0  0
  8 13  1  0  0  0  0
 18 26  1  0  0  0  0
 39 41  1  0  0  0  0
  7 12  1  0  0  0  0
 29 34  1  0  0  0  0
 17 25  1  0  0  0  0
M  CHG  1  23  -1
M  END
$$$$

  -OEChem-05262214473D

 44 43  0     1  0  0  0  0  0999 V2000
   -4.0256   -1.8030   -2.1581 C   0  0  0  0  0  0  0  0  0  0  0  0
   -3.7513   -2.6782   -2.9709 O   0  0  0  0  0  0  0  0  0  0  0  0
   -5.3491   -1.1169   -2.2339 C   0  0  0  0  0  0  0  0  0  0  0  0
   -5.3223   -0.2211   -2.8750 H   0  0  0  0  0  0  0  0  0  0  0  0
   -6.1322   -1.7605   -2.6658 H   0  0  0  0  0  0  0  0  0  0  0  0
   -5.7568   -0.7715   -1.2704 H   0  0  0  0  0  0  0  0  0  0  0  0
   -3.2124   -1.3578   -1.1289 N   0  0  0  0  0  0  0  0  0  0  0  0
   -1.8971   -1.8843   -0.8752 C   0  0  2  0  0  0  0  0  0  0  0  0
   -1.2676   -1.0599    0.2399 C   0  0  0  0  0  0  0  0  0  0  0  0
   -1.6270    0.0833    0.5138 O   0  0  0  0  0  0  0  0  0  0  0  0
   -1.0364   -1.8506   -2.1285 C   0  0  0  0  0  0  0  0  0  0  0  0
   -3.5631   -0.6202   -0.5206 H   0  0  0  0  0  0  0  0  0  0  0  0
   -2.0301   -2.9174   -0.5360 H   0  0  0  0  0  0  0  0  0  0  0  0
   -0.8921   -0.8236   -2.4833 H   0  0  0  0  0  0  0  0  0  0  0  0
   -0.0457   -2.2777   -1.9410 H   0  0  0  0  0  0  0  0  0  0  0  0
   -1.5052   -2.4193   -2.9387 H   0  0  0  0  0  0  0  0  0  0  0  0
   -0.2267   -1.7335    0.8672 N   0  0  0  0  0  0  0  0  0  0  0  0
    0.5363   -1.1590    1.9465 C   0  0  2  0  0  0  0  0  0  0  0  0
    2.0062   -1.4433    1.6598 C   0  0  0  0  0  0  0  0  0  0  0  0
    2.3866   -2.4131    1.0071 O   0  0  0  0  0  0  0  0  0  0  0  0
    0.1317   -1.7395    3.2996 C   0  0  0  0  0  0  0  0  0  0  0  0
   -1.2637   -1.3627    3.8135 C   0  0  0  0  0  0  0  0  0  0  0  0
   -1.6747   -0.2355    3.4118 O   0  5  0  0  0  0  0  0  0  0  0  0
   -1.8313   -2.1963    4.5710 O   0  0  0  0  0  0  0  0  0  0  0  0
   -0.0113   -2.6869    0.5854 H   0  0  0  0  0  0  0  0  0  0  0  0
    0.3653   -0.0771    1.9125 H   0  0  0  0  0  0  0  0  0  0  0  0
    0.8639   -1.4422    4.0628 H   0  0  0  0  0  0  0  0  0  0  0  0
    0.1589   -2.8361    3.2542 H   0  0  0  0  0  0  0  0  0  0  0  0
    2.8380   -0.4586    2.1743 N   0  0  0  0  0  0  0  0  0  0  0  0
    4.2728   -0.4818    2.0088 C   0  0  2  0  0  0  0  0  0  0  0  0
    4.8976    0.1838    3.2278 C   0  0  0  0  0  0  0  0  0  0  0  0
    4.2901    0.9764    3.9445 O   0  0  0  0  0  0  0  0  0  0  0  0
    4.6936    0.2235    0.7288 C   0  0  0  0  0  0  0  0  0  0  0  0
    2.4310    0.3347    2.6609 H   0  0  0  0  0  0  0  0  0  0  0  0
    4.5702   -1.5356    1.9747 H   0  0  0  0  0  0  0  0  0  0  0  0
    4.4040    1.2805    0.7446 H   0  0  0  0  0  0  0  0  0  0  0  0
    5.7789    0.1801    0.5904 H   0  0  0  0  0  0  0  0  0  0  0  0
    4.2197   -0.2380   -0.1443 H   0  0  0  0  0  0  0  0  0  0  0  0
    6.2268   -0.1782    3.3961 N   0  0  0  0  0  0  0  0  0  0  0  0
    7.0427    0.3299    4.4741 C   0  0  0  0  0  0  0  0  0  0  0  0
    6.6438   -0.8563    2.7651 H   0  0  0  0  0  0  0  0  0  0  0  0
    7.5780    1.2297    4.1368 H   0  0  0  0  0  0  0  0  0  0  0  0
    6.4013    0.5845    5.3307 H   0  0  0  0  0  0  0  0  0  0  0  0
    7.7703   -0.4377    4.7763 H   0  0  0  0  0  0  0  0  0  0  0  0
  1  3  1  0  0  0  0
  1  7  1  0  0  0  0
  1  2  2  0  0  0  0
 30 31  1  0  0  0  0
 31 39  1  0  0  0  0
 31 32  2  0  0  0  0
  8  9  1  0  0  0  0
  9 17  1  0  0  0  0
  9 10  2  0  0  0  0
 18 19  1  0  0  0  0
 19 29  1  0  0  0  0
 19 20  2  0  0  0  0
 21 22  1  0  0  0  0
 22 23  1  0  0  0  0
 22 24  2  0  0  0  0
 30 33  1  0  0  0  0
  8 11  1  0  0  0  0
 39 40  1  0  0  0  0
 18 21  1  0  0  0  0
 29 30  1  0  0  0  0
  7  8  1  0  0  0  0
 17 18  1  0  0  0  0
  3  4  1  0  0  0  0
  3  5  1  0  0  0  0
  3  6  1  0  0  0  0
 33 36  1  0  0  0  0
 33 37  1  0  0  0  0
 33 38  1  0  0  0  0
 11 14  1  0  0  0  0
 11 15  1  0  0  0  0
 11 16  1  0  0  0  0
 40 42  1  0  0  0  0
 40 43  1  0  0  0  0
 40 44  1  0  0  0  0
 21 27  1  0  0  0  0
 21 28  1  0  0  0  0
 30 35  1  0  0  0  0
  8 13  1  0  0  0  0
 18 26  1  0  0  0  0
 39 41  1  0  0  0  0
  7 12  1  0  0  0  0
 29 34  1  0  0  0  0
 17 25  1  0  0  0  0
M  CHG  1  23  -1
M  END
$$$$

  -OEChem-05262214473D

 44 43  0     1  0  0  0  0  0999 V2000
   -4.0256   -1.8030   -2.1581 C   0  0  0  0  0  0  0  0  0  0  0  0
   -3.7513   -2.6782   -2.9709 O   0  0  0  0  0  0  0  0  0  0  0  0
   -5.3491   -1.1169   -2.2339 C   0  0  0  0  0  0  0  0  0  0  0  0
   -5.3223   -0.2211   -2.8750 H   0  0  0  0  0  0  0  0  0  0  0  0
   -6.1322   -1.7605   -2.6658 H   0  0  0  0  0  0  0  0  0  0  0  0
   -5.7568   -0.7715   -1.2704 H   0  0  0  0  0  0  0  0  0  0  0  0
   -3.2124   -1.3578   -1.1289 N   0  0  0  0  0  0  0  0  0  0  0  0
   -1.8971   -1.8843   -0.8752 C   0  0  2  0  0  0  0  0  0  0  0  0
   -1.2676   -1.0599    0.2399 C   0  0  0  0  0  0  0  0  0  0  0  0
   -1.6270    0.0833    0.5138 O   0  0  0  0  0  0  0  0  0  0  0  0
   -1.0364   -1.8506   -2.1285 C   0  0  0  0  0  0  0  0  0  0  0  0
   -3.5631   -0.6202   -0.5206 H   0  0  0  0  0  0  0  0  0  0  0  0
   -2.0301   -2.9174   -0.5360 H   0  0  0  0  0  0  0  0  0  0  0  0
   -0.8921   -0.8236   -2.4833 H   0  0  0  0  0  0  0  0  0  0  0  0
   -0.0457   -2.2777   -1.9410 H   0  0  0  0  0  0  0  0  0  0  0  0
   -1.5052   -2.4193   -2.9387 H   0  0  0  0  0  0  0  0  0  0  0  0
   -0.2267   -1.7335    0.8672 N   0  0  0  0  0  0  0  0  0  0  0  0
    0.5363   -1.1590    1.9465 C   0  0  2  0  0  0  0  0  0  0  0  0
    2.0062   -1.4433    1.6598 C   0  0  0  0  0  0  0  0  0  0  0  0
    2.3799   -2.2399    0.8013 O   0  0  0  0  0  0  0  0  0  0  0  0
    0.1317   -1.7395    3.2996 C   0  0  0  0  0  0  0  0  0  0  0  0
   -1.2637   -1.3627    3.8135 C   0  0  0  0  0  0  0  0  0  0  0  0
   -1.6747   -0.2355    3.4118 O   0  5  0  0  0  0  0  0  0  0  0  0
   -1.8313   -2.1963    4.5710 O   0  0  0  0  0  0  0  0  0  0  0  0
   -0.0113   -2.6869    0.5854 H   0  0  0  0  0  0  0  0  0  0  0  0
    0.3653   -0.0771    1.9125 H   0  0  0  0  0  0  0  0  0  0  0  0
    0.8639   -1.4422    4.0628 H   0  0  0  0  0  0  0  0  0  0  0  0
    0.1589   -2.8361    3.2542 H   0  0  0  0  0  0  0  0  0  0  0  0
    2.8499   -0.6644    2.4393 N   0  0  0  0  0  0  0  0  0  0  0  0
    4.2893   -0.7243    2.3338 C   0  0  2  0  0  0  0  0  0  0  0  0
    4.8746   -0.4176    3.7060 C   0  0  0  0  0  0  0  0  0  0  0  0
    4.2631    0.2042    4.5723 O   0  0  0  0  0  0  0  0  0  0  0  0
    4.8088    0.2526    1.2905 C   0  0  0  0  0  0  0  0  0  0  0  0
    2.4512    0.0043    3.0918 H   0  0  0  0  0  0  0  0  0  0  0  0
    4.5430   -1.7513    2.0491 H   0  0  0  0  0  0  0  0  0  0  0  0
    4.5640    1.2868    1.5587 H   0  0  0  0  0  0  0  0  0  0  0  0
    5.8972    0.1856    1.1915 H   0  0  0  0  0  0  0  0  0  0  0  0
    4.3640    0.0492    0.3105 H   0  0  0  0  0  0  0  0  0  0  0  0
    6.1760   -0.8824    3.8340 N   0  0  0  0  0  0  0  0  0  0  0  0
    6.9529   -0.7035    5.0383 C   0  0  0  0  0  0  0  0  0  0  0  0
    6.5975   -1.4043    3.0712 H   0  0  0  0  0  0  0  0  0  0  0  0
    7.5436    0.2212    4.9602 H   0  0  0  0  0  0  0  0  0  0  0  0
    6.2772   -0.6348    5.9036 H   0  0  0  0  0  0  0  0  0  0  0  0
    7.6297   -1.5608    5.1687 H   0  0  0  0  0  0  0  0  0  0  0  0
  1  3  1  0  0  0  0
  1  7  1  0  0  0  0
  1  2  2  0  0  0  0
 30 31  1  0  0  0  0
 31 39  1  0  0  0  0
 31 32  2  0  0  0  0
  8  9  1  0  0  0  0
  9 17  1  0  0  0  0
  9 10  2  0  0  0  0
 18 19  1  0  0  0  0
 19 29  1  0  0  0  0
 19 20  2  0  0  0  0
 21 22  1  0  0  0  0
 22 23  1  0  0  0  0
 22 24  2  0  0  0  0
 30 33  1  0  0  0  0
  8 11  1  0  0  0  0
 39 40  1  0  0  0  0
 18 21  1  0  0  0  0
 29 30  1  0  0  0  0
  7  8  1  0  0  0  0
 17 18  1  0  0  0  0
  3  4  1  0  0  0  0
  3  5  1  0  0  0  0
  3  6  1  0  0  0  0
 33 36  1  0  0  0  0
 33 37  1  0  0  0  0
 33 38  1  0  0  0  0
 11 14  1  0  0  0  0
 11 15  1  0  0  0  0
 11 16  1  0  0  0  0
 40 42  1  0  0  0  0
 40 43  1  0  0  0  0
 40 44  1  0  0  0  0
 21 27  1  0  0  0  0
 21 28  1  0  0  0  0
 30 35  1  0  0  0  0
  8 13  1  0  0  0  0
 18 26  1  0  0  0  0
 39 41  1  0  0  0  0
  7 12  1  0  0  0  0
 29 34  1  0  0  0  0
 17 25  1  0  0  0  0
M  CHG  1  23  -1
M  END
$$$$

  -OEChem-05262214473D

 44 43  0     1  0  0  0  0  0999 V2000
   -4.0256   -1.8030   -2.1581 C   0  0  0  0  0  0  0  0  0  0  0  0
   -3.7513   -2.6782   -2.9709 O   0  0  0  0  0  0  0  0  0  0  0  0
   -5.3491   -1.1169   -2.2339 C   0  0  0  0  0  0  0  0  0  0  0  0
   -5.3223   -0.2211   -2.8750 H   0  0  0  0  0  0  0  0  0  0  0  0
   -6.1322   -1.7605   -2.6658 H   0  0  0  0  0  0  0  0  0  0  0  0
   -5.7568   -0.7715   -1.2704 H   0  0  0  0  0  0  0  0  0  0  0  0
   -3.2124   -1.3578   -1.1289 N   0  0  0  0  0  0  0  0  0  0  0  0
   -1.8971   -1.8843   -0.8752 C   0  0  2  0  0  0  0  0  0  0  0  0
   -1.2676   -1.0599    0.2399 C   0  0  0  0  0  0  0  0  0  0  0  0
   -1.6270    0.0833    0.5138 O   0  0  0  0  0  0  0  0  0  0  0  0
   -1.0364   -1.8506   -2.1285 C   0  0  0  0  0  0  0  0  0  0  0  0
   -3.5631   -0.6202   -0.5206 H   0  0  0  0  0  0  0  0  0  0  0  0
   -2.0301   -2.9174   -0.5360 H   0  0  0  0  0  0  0  0  0  0  0  0
   -0.8921   -0.8236   -2.4833 H   0  0  0  0  0  0  0  0  0  0  0  0
   -0.0457   -2.2777   -1.9410 H   0  0  0  0  0  0  0  0  0  0  0  0
   -1.5052   -2.4193   -2.9387 H   0  0  0  0  0  0  0  0  0  0  0  0
   -0.2267   -1.7335    0.8672 N   0  0  0  0  0  0  0  0  0  0  0  0
    0.5363   -1.1590    1.9465 C   0  0  2  0  0  0  0  0  0  0  0  0
    1.9898   -1.1033    1.4904 C   0  0  0  0  0  0  0  0  0  0  0  0
    2.3555   -1.4583    0.3717 O   0  0  0  0  0  0  0  0  0  0  0  0
    0.4079   -1.9758    3.2302 C   0  0  0  0  0  0  0  0  0  0  0  0
   -0.9637   -1.9555    3.9170 C   0  0  0  0  0  0  0  0  0  0  0  0
   -1.6219   -0.8923    3.7240 O   0  5  0  0  0  0  0  0  0  0  0  0
   -1.2734   -2.9754    4.5913 O   0  0  0  0  0  0  0  0  0  0  0  0
   -0.0113   -2.6869    0.5854 H   0  0  0  0  0  0  0  0  0  0  0  0
    0.1636   -0.1382    2.0876 H   0  0  0  0  0  0  0  0  0  0  0  0
    1.1556   -1.6366    3.9601 H   0  0  0  0  0  0  0  0  0  0  0  0
    0.6337   -3.0298    3.0216 H   0  0  0  0  0  0  0  0  0  0  0  0
    2.8208   -0.5621    2.4614 N   0  0  0  0  0  0  0  0  0  0  0  0
    4.2387   -0.3732    2.2604 C   0  0  2  0  0  0  0  0  0  0  0  0
    4.9291   -0.5235    3.6096 C   0  0  0  0  0  0  0  0  0  0  0  0
    4.3485   -0.3654    4.6815 O   0  0  0  0  0  0  0  0  0  0  0  0
    4.5342    0.9867    1.6471 C   0  0  0  0  0  0  0  0  0  0  0  0
    2.4226   -0.2508    3.3424 H   0  0  0  0  0  0  0  0  0  0  0  0
    4.5719   -1.1713    1.5881 H   0  0  0  0  0  0  0  0  0  0  0  0
    4.2073    1.7989    2.3065 H   0  0  0  0  0  0  0  0  0  0  0  0
    5.6068    1.1169    1.4690 H   0  0  0  0  0  0  0  0  0  0  0  0
    4.0130    1.1046    0.6910 H   0  0  0  0  0  0  0  0  0  0  0  0
    6.2798   -0.8126    3.4753 N   0  0  0  0  0  0  0  0  0  0  0  0
    7.1557   -0.9898    4.6099 C   0  0  0  0  0  0  0  0  0  0  0  0
    6.6727   -0.9449    2.5480 H   0  0  0  0  0  0  0  0  0  0  0  0
    7.6297   -0.0296    4.8614 H   0  0  0  0  0  0  0  0  0  0  0  0
    6.5722   -1.3472    5.4711 H   0  0  0  0  0  0  0  0  0  0  0  0
    7.9325   -1.7280    4.3615 H   0  0  0  0  0  0  0  0  0  0  0  0
  1  3  1  0  0  0  0
  1  7  1  0  0  0  0
  1  2  2  0  0  0  0
 30 31  1  0  0  0  0
 31 39  1  0  0  0  0
 31 32  2  0  0  0  0
  8  9  1  0  0  0  0
  9 17  1  0  0  0  0
  9 10  2  0  0  0  0
 18 19  1  0  0  0  0
 19 29  1  0  0  0  0
 19 20  2  0  0  0  0
 21 22  1  0  0  0  0
 22 23  1  0  0  0  0
 22 24  2  0  0  0  0
 30 33  1  0  0  0  0
  8 11  1  0  0  0  0
 39 40  1  0  0  0  0
 18 21  1  0  0  0  0
 29 30  1  0  0  0  0
  7  8  1  0  0  0  0
 17 18  1  0  0  0  0
  3  4  1  0  0  0  0
  3  5  1  0  0  0  0
  3  6  1  0  0  0  0
 33 36  1  0  0  0  0
 33 37  1  0  0  0  0
 33 38  1  0  0  0  0
 11 14  1  0  0  0  0
 11 15  1  0  0  0  0
 11 16  1  0  0  0  0
 40 42  1  0  0  0  0
 40 43  1  0  0  0  0
 40 44  1  0  0  0  0
 21 27  1  0  0  0  0
 21 28  1  0  0  0  0
 30 35  1  0  0  0  0
  8 13  1  0  0  0  0
 18 26  1  0  0  0  0
 39 41  1  0  0  0  0
  7 12  1  0  0  0  0
 29 34  1  0  0  0  0
 17 25  1  0  0  0  0
M  CHG  1  23  -1
M  END
$$$$

  -OEChem-05262214473D

 44 43  0     1  0  0  0  0  0999 V2000
   -4.0256   -1.8030   -2.1581 C   0  0  0  0  0  0  0  0  0  0  0  0
   -3.7513   -2.6782   -2.9709 O   0  0  0  0  0  0  0  0  0  0  0  0
   -5.3491   -1.1169   -2.2339 C   0  0  0  0  0  0  0  0  0  0  0  0
   -5.3223   -0.2211   -2.8750 H   0  0  0  0  0  0  0  0  0  0  0  0
   -6.1322   -1.7605   -2.6658 H   0  0  0  0  0  0  0  0  0  0  0  0
   -5.7568   -0.7715   -1.2704 H   0  0  0  0  0  0  0  0  0  0  0  0
   -3.2124   -1.3578   -1.1289 N   0  0  0  0  0  0  0  0  0  0  0  0
   -1.8971   -1.8843   -0.8752 C   0  0  2  0  0  0  0  0  0  0  0  0
   -1.2676   -1.0599    0.2399 C   0  0  0  0  0  0  0  0  0  0  0  0
   -1.6270    0.0833    0.5138 O   0  0  0  0  0  0  0  0  0  0  0  0
   -1.0364   -1.8506   -2.1285 C   0  0  0  0  0  0  0  0  0  0  0  0
   -3.5631   -0.6202   -0.5206 H   0  0  0  0  0  0  0  0  0  0  0  0
   -2.0301   -2.9174   -0.5360 H   0  0  0  0  0  0  0  0  0  0  0  0
   -0.8921   -0.8236   -2.4833 H   0  0  0  0  0  0  0  0  0  0  0  0
   -0.0457   -2.2777   -1.9410 H   0  0  0  0  0  0  0  0  0  0  0  0
   -1.5052   -2.4193   -2.9387 H   0  0  0  0  0  0  0  0  0  0  0  0
   -0.2267   -1.7335    0.8672 N   0  0  0  0  0  0  0  0  0  0  0  0
    0.5363   -1.1590    1.9465 C   0  0  2  0  0  0  0  0  0  0  0  0
    1.9898   -1.1033    1.4904 C   0  0  0  0  0  0  0  0  0  0  0  0
    2.3267   -1.1976    0.3119 O   0  0  0  0  0  0  0  0  0  0  0  0
    0.4079   -1.9758    3.2302 C   0  0  0  0  0  0  0  0  0  0  0  0
   -0.9637   -1.9555    3.9170 C   0  0  0  0  0  0  0  0  0  0  0  0
   -1.6219   -0.8923    3.7240 O   0  5  0  0  0  0  0  0  0  0  0  0
   -1.2734   -2.9754    4.5913 O   0  0  0  0  0  0  0  0  0  0  0  0
   -0.0113   -2.6869    0.5854 H   0  0  0  0  0  0  0  0  0  0  0  0
    0.1636   -0.1382    2.0876 H   0  0  0  0  0  0  0  0  0  0  0  0
    1.1556   -1.6366    3.9601 H   0  0  0  0  0  0  0  0  0  0  0  0
    0.6337   -3.0298    3.0216 H   0  0  0  0  0  0  0  0  0  0  0  0
    2.8605   -0.8839    2.5487 N   0  0  0  0  0  0  0  0  0  0  0  0
    4.2889   -0.7598    2.3733 C   0  0  2  0  0  0  0  0  0  0  0  0
    4.9650   -1.2911    3.6303 C   0  0  0  0  0  0  0  0  0  0  0  0
    4.3983   -1.3591    4.7191 O   0  0  0  0  0  0  0  0  0  0  0  0
    4.6906    0.6828    2.1084 C   0  0  0  0  0  0  0  0  0  0  0  0
    2.4878   -0.7705    3.4868 H   0  0  0  0  0  0  0  0  0  0  0  0
    4.5585   -1.3900    1.5188 H   0  0  0  0  0  0  0  0  0  0  0  0
    4.4284    1.3294    2.9538 H   0  0  0  0  0  0  0  0  0  0  0  0
    5.7701    0.7709    1.9474 H   0  0  0  0  0  0  0  0  0  0  0  0
    4.1805    1.0728    1.2210 H   0  0  0  0  0  0  0  0  0  0  0  0
    6.2889   -1.6401    3.4031 N   0  0  0  0  0  0  0  0  0  0  0  0
    7.1479   -2.1586    4.4420 C   0  0  0  0  0  0  0  0  0  0  0  0
    6.6704   -1.5687    2.4644 H   0  0  0  0  0  0  0  0  0  0  0  0
    7.6958   -1.3293    4.9133 H   0  0  0  0  0  0  0  0  0  0  0  0
    6.5378   -2.6722    5.1997 H   0  0  0  0  0  0  0  0  0  0  0  0
    7.8642   -2.8695    4.0045 H   0  0  0  0  0  0  0  0  0  0  0  0
  1  3  1  0  0  0  0
  1  7  1  0  0  0  0
  1  2  2  0  0  0  0
 30 31  1  0  0  0  0
 31 39  1  0  0  0  0
 31 32  2  0  0  0  0
  8  9  1  0  0  0  0
  9 17  1  0  0  0  0
  9 10  2  0  0  0  0
 18 19  1  0  0  0  0
 19 29  1  0  0  0  0
 19 20  2  0  0  0  0
 21 22  1  0  0  0  0
 22 23  1  0  0  0  0
 22 24  2  0  0  0  0
 30 33  1  0  0  0  0
  8 11  1  0  0  0  0
 39 40  1  0  0  0  0
 18 21  1  0  0  0  0
 29 30  1  0  0  0  0
  7  8  1  0  0  0  0
 17 18  1  0  0  0  0
  3  4  1  0  0  0  0
  3  5  1  0  0  0  0
  3  6  1  0  0  0  0
 33 36  1  0  0  0  0
 33 37  1  0  0  0  0
 33 38  1  0  0  0  0
 11 14  1  0  0  0  0
 11 15  1  0  0  0  0
 11 16  1  0  0  0  0
 40 42  1  0  0  0  0
 40 43  1  0  0  0  0
 40 44  1  0  0  0  0
 21 27  1  0  0  0  0
 21 28  1  0  0  0  0
 30 35  1  0  0  0  0
  8 13  1  0  0  0  0
 18 26  1  0  0  0  0
 39 41  1  0  0  0  0
  7 12  1  0  0  0  0
 29 34  1  0  0  0  0
 17 25  1  0  0  0  0
M  CHG  1  23  -1
M  END
$$$$

  -OEChem-05262214473D

 44 43  0     1  0  0  0  0  0999 V2000
   -4.0256   -1.8030   -2.1581 C   0  0  0  0  0  0  0  0  0  0  0  0
   -3.7513   -2.6782   -2.9709 O   0  0  0  0  0  0  0  0  0  0  0  0
   -5.3491   -1.1169   -2.2339 C   0  0  0  0  0  0  0  0  0  0  0  0
   -5.3223   -0.2211   -2.8750 H   0  0  0  0  0  0  0  0  0  0  0  0
   -6.1322   -1.7605   -2.6658 H   0  0  0  0  0  0  0  0  0  0  0  0
   -5.7568   -0.7715   -1.2704 H   0  0  0  0  0  0  0  0  0  0  0  0
   -3.2124   -1.3578   -1.1289 N   0  0  0  0  0  0  0  0  0  0  0  0
   -1.8971   -1.8843   -0.8752 C   0  0  2  0  0  0  0  0  0  0  0  0
   -1.2676   -1.0599    0.2399 C   0  0  0  0  0  0  0  0  0  0  0  0
   -1.6270    0.0833    0.5138 O   0  0  0  0  0  0  0  0  0  0  0  0
   -1.0364   -1.8506   -2.1285 C   0  0  0  0  0  0  0  0  0  0  0  0
   -3.5631   -0.6202   -0.5206 H   0  0  0  0  0  0  0  0  0  0  0  0
   -2.0301   -2.9174   -0.5360 H   0  0  0  0  0  0  0  0  0  0  0  0
   -0.8921   -0.8236   -2.4833 H   0  0  0  0  0  0  0  0  0  0  0  0
   -0.0457   -2.2777   -1.9410 H   0  0  0  0  0  0  0  0  0  0  0  0
   -1.5052   -2.4193   -2.9387 H   0  0  0  0  0  0  0  0  0  0  0  0
   -0.2267   -1.7335    0.8672 N   0  0  0  0  0  0  0  0  0  0  0  0
    0.5363   -1.1590    1.9465 C   0  0  2  0  0  0  0  0  0  0  0  0
    1.9898   -1.1033    1.4904 C   0  0  0  0  0  0  0  0  0  0  0  0
    2.3186   -0.9288    0.3188 O   0  0  0  0  0  0  0  0  0  0  0  0
    0.4079   -1.9758    3.2302 C   0  0  0  0  0  0  0  0  0  0  0  0
   -0.9637   -1.9555    3.9170 C   0  0  0  0  0  0  0  0  0  0  0  0
   -1.6219   -0.8923    3.7240 O   0  5  0  0  0  0  0  0  0  0  0  0
   -1.2734   -2.9754    4.5913 O   0  0  0  0  0  0  0  0  0  0  0  0
   -0.0113   -2.6869    0.5854 H   0  0  0  0  0  0  0  0  0  0  0  0
    0.1636   -0.1382    2.0876 H   0  0  0  0  0  0  0  0  0  0  0  0
    1.1556   -1.6366    3.9601 H   0  0  0  0  0  0  0  0  0  0  0  0
    0.6337   -3.0298    3.0216 H   0  0  0  0  0  0  0  0  0  0  0  0
    2.8748   -1.2193    2.5532 N   0  0  0  0  0  0  0  0  0  0  0  0
    4.3086   -1.1650    2.3865 C   0  0  2  0  0  0  0  0  0  0  0  0
    4.9404   -2.0405    3.4606 C   0  0  0  0  0  0  0  0  0  0  0  0
    4.3699   -2.3320    4.5097 O   0  0  0  0  0  0  0  0  0  0  0  0
    4.8225    0.2634    2.4776 C   0  0  0  0  0  0  0  0  0  0  0  0
    2.5119   -1.3132    3.4973 H   0  0  0  0  0  0  0  0  0  0  0  0
    4.5281   -1.5831    1.3980 H   0  0  0  0  0  0  0  0  0  0  0  0
    4.6117    0.6990    3.4611 H   0  0  0  0  0  0  0  0  0  0  0  0
    5.9057    0.3060    2.3226 H   0  0  0  0  0  0  0  0  0  0  0  0
    4.3449    0.8983    1.7236 H   0  0  0  0  0  0  0  0  0  0  0  0
    6.2329   -2.4224    3.1290 N   0  0  0  0  0  0  0  0  0  0  0  0
    7.0481   -3.2454    3.9915 C   0  0  0  0  0  0  0  0  0  0  0  0
    6.6191   -2.1505    2.2298 H   0  0  0  0  0  0  0  0  0  0  0  0
    7.6595   -2.6026    4.6420 H   0  0  0  0  0  0  0  0  0  0  0  0
    6.3994   -3.8823    4.6108 H   0  0  0  0  0  0  0  0  0  0  0  0
    7.7065   -3.8787    3.3787 H   0  0  0  0  0  0  0  0  0  0  0  0
  1  3  1  0  0  0  0
  1  7  1  0  0  0  0
  1  2  2  0  0  0  0
 30 31  1  0  0  0  0
 31 39  1  0  0  0  0
 31 32  2  0  0  0  0
  8  9  1  0  0  0  0
  9 17  1  0  0  0  0
  9 10  2  0  0  0  0
 18 19  1  0  0  0  0
 19 29  1  0  0  0  0
 19 20  2  0  0  0  0
 21 22  1  0  0  0  0
 22 23  1  0  0  0  0
 22 24  2  0  0  0  0
 30 33  1  0  0  0  0
  8 11  1  0  0  0  0
 39 40  1  0  0  0  0
 18 21  1  0  0  0  0
 29 30  1  0  0  0  0
  7  8  1  0  0  0  0
 17 18  1  0  0  0  0
  3  4  1  0  0  0  0
  3  5  1  0  0  0  0
  3  6  1  0  0  0  0
 33 36  1  0  0  0  0
 33 37  1  0  0  0  0
 33 38  1  0  0  0  0
 11 14  1  0  0  0  0
 11 15  1  0  0  0  0
 11 16  1  0  0  0  0
 40 42  1  0  0  0  0
 40 43  1  0  0  0  0
 40 44  1  0  0  0  0
 21 27  1  0  0  0  0
 21 28  1  0  0  0  0
 30 35  1  0  0  0  0
  8 13  1  0  0  0  0
 18 26  1  0  0  0  0
 39 41  1  0  0  0  0
  7 12  1  0  0  0  0
 29 34  1  0  0  0  0
 17 25  1  0  0  0  0
M  CHG  1  23  -1
M  END
$$$$

  -OEChem-05262214473D

 44 43  0     1  0  0  0  0  0999 V2000
   -4.0256   -1.8030   -2.1581 C   0  0  0  0  0  0  0  0  0  0  0  0
   -3.7513   -2.6782   -2.9709 O   0  0  0  0  0  0  0  0  0  0  0  0
   -5.3491   -1.1169   -2.2339 C   0  0  0  0  0  0  0  0  0  0  0  0
   -5.3223   -0.2211   -2.8750 H   0  0  0  0  0  0  0  0  0  0  0  0
   -6.1322   -1.7605   -2.6658 H   0  0  0  0  0  0  0  0  0  0  0  0
   -5.7568   -0.7715   -1.2704 H   0  0  0  0  0  0  0  0  0  0  0  0
   -3.2124   -1.3578   -1.1289 N   0  0  0  0  0  0  0  0  0  0  0  0
   -1.8971   -1.8843   -0.8752 C   0  0  2  0  0  0  0  0  0  0  0  0
   -1.2676   -1.0599    0.2399 C   0  0  0  0  0  0  0  0  0  0  0  0
   -1.6270    0.0833    0.5138 O   0  0  0  0  0  0  0  0  0  0  0  0
   -1.0364   -1.8506   -2.1285 C   0  0  0  0  0  0  0  0  0  0  0  0
   -3.5631   -0.6202   -0.5206 H   0  0  0  0  0  0  0  0  0  0  0  0
   -2.0301   -2.9174   -0.5360 H   0  0  0  0  0  0  0  0  0  0  0  0
   -0.8921   -0.8236   -2.4833 H   0  0  0  0  0  0  0  0  0  0  0  0
   -0.0457   -2.2777   -1.9410 H   0  0  0  0  0  0  0  0  0  0  0  0
   -1.5052   -2.4193   -2.9387 H   0  0  0  0  0  0  0  0  0  0  0  0
   -0.2267   -1.7335    0.8672 N   0  0  0  0  0  0  0  0  0  0  0  0
    0.5363   -1.1590    1.9465 C   0  0  2  0  0  0  0  0  0  0  0  0
    1.9898   -1.1033    1.4904 C   0  0  0  0  0  0  0  0  0  0  0  0
    2.3316   -0.6702    0.3919 O   0  0  0  0  0  0  0  0  0  0  0  0
    0.4079   -1.9758    3.2302 C   0  0  0  0  0  0  0  0  0  0  0  0
   -0.9637   -1.9555    3.9170 C   0  0  0  0  0  0  0  0  0  0  0  0
   -1.6219   -0.8923    3.7240 O   0  5  0  0  0  0  0  0  0  0  0  0
   -1.2734   -2.9754    4.5913 O   0  0  0  0  0  0  0  0  0  0  0  0
   -0.0113   -2.6869    0.5854 H   0  0  0  0  0  0  0  0  0  0  0  0
    0.1636   -0.1382    2.0876 H   0  0  0  0  0  0  0  0  0  0  0  0
    1.1556   -1.6366    3.9601 H   0  0  0  0  0  0  0  0  0  0  0  0
    0.6337   -3.0298    3.0216 H   0  0  0  0  0  0  0  0  0  0  0  0
    2.8627   -1.5455    2.4747 N   0  0  0  0  0  0  0  0  0  0  0  0
    4.2963   -1.5612    2.2990 C   0  0  2  0  0  0  0  0  0  0  0  0
    4.8571   -2.7205    3.1120 C   0  0  0  0  0  0  0  0  0  0  0  0
    4.2652   -3.2179    4.0676 O   0  0  0  0  0  0  0  0  0  0  0  0
    4.9209   -0.2431    2.7294 C   0  0  0  0  0  0  0  0  0  0  0  0
    2.4932   -1.8419    3.3733 H   0  0  0  0  0  0  0  0  0  0  0  0
    4.4825   -1.7374    1.2340 H   0  0  0  0  0  0  0  0  0  0  0  0
    4.7448   -0.0493    3.7938 H   0  0  0  0  0  0  0  0  0  0  0  0
    6.0041   -0.2462    2.5689 H   0  0  0  0  0  0  0  0  0  0  0  0
    4.4949    0.5930    2.1644 H   0  0  0  0  0  0  0  0  0  0  0  0
    6.1156   -3.1060    2.6718 N   0  0  0  0  0  0  0  0  0  0  0  0
    6.8634   -4.1764    3.2891 C   0  0  0  0  0  0  0  0  0  0  0  0
    6.5222   -2.6505    1.8600 H   0  0  0  0  0  0  0  0  0  0  0  0
    7.5232   -3.7628    4.0660 H   0  0  0  0  0  0  0  0  0  0  0  0
    6.1664   -4.8952    3.7447 H   0  0  0  0  0  0  0  0  0  0  0  0
    7.4701   -4.6868    2.5266 H   0  0  0  0  0  0  0  0  0  0  0  0
  1  3  1  0  0  0  0
  1  7  1  0  0  0  0
  1  2  2  0  0  0  0
 30 31  1  0  0  0  0
 31 39  1  0  0  0  0
 31 32  2  0  0  0  0
  8  9  1  0  0  0  0
  9 17  1  0  0  0  0
  9 10  2  0  0  0  0
 18 19  1  0  0  0  0
 19 29  1  0  0  0  0
 19 20  2  0  0  0  0
 21 22  1  0  0  0  0
 22 23  1  0  0  0  0
 22 24  2  0  0  0  0
 30 33  1  0  0  0  0
  8 11  1  0  0  0  0
 39 40  1  0  0  0  0
 18 21  1  0  0  0  0
 29 30  1  0  0  0  0
  7  8  1  0  0  0  0
 17 18  1  0  0  0  0
  3  4  1  0  0  0  0
  3  5  1  0  0  0  0
  3  6  1  0  0  0  0
 33 36  1  0  0  0  0
 33 37  1  0  0  0  0
 33 38  1  0  0  0  0
 11 14  1  0  0  0  0
 11 15  1  0  0  0  0
 11 16  1  0  0  0  0
 40 42  1  0  0  0  0
 40 43  1  0  0  0  0
 40 44  1  0  0  0  0
 21 27  1  0  0  0  0
 21 28  1  0  0  0  0
 30 35  1  0  0  0  0
  8 13  1  0  0  0  0
 18 26  1  0  0  0  0
 39 41  1  0  0  0  0
  7 12  1  0  0  0  0
 29 34  1  0  0  0  0
 17 25  1  0  0  0  0
M  CHG  1  23  -1
M  END
$$$$

  -OEChem-05262214473D

 44 43  0     1  0  0  0  0  0999 V2000
   -4.0256   -1.8030   -2.1581 C   0  0  0  0  0  0  0  0  0  0  0  0
   -3.7513   -2.6782   -2.9709 O   0  0  0  0  0  0  0  0  0  0  0  0
   -5.3491   -1.1169   -2.2339 C   0  0  0  0  0  0  0  0  0  0  0  0
   -5.3223   -0.2211   -2.8750 H   0  0  0  0  0  0  0  0  0  0  0  0
   -6.1322   -1.7605   -2.6658 H   0  0  0  0  0  0  0  0  0  0  0  0
   -5.7568   -0.7715   -1.2704 H   0  0  0  0  0  0  0  0  0  0  0  0
   -3.2124   -1.3578   -1.1289 N   0  0  0  0  0  0  0  0  0  0  0  0
   -1.8971   -1.8843   -0.8752 C   0  0  2  0  0  0  0  0  0  0  0  0
   -1.2676   -1.0599    0.2399 C   0  0  0  0  0  0  0  0  0  0  0  0
   -1.6270    0.0833    0.5138 O   0  0  0  0  0  0  0  0  0  0  0  0
   -1.0364   -1.8506   -2.1285 C   0  0  0  0  0  0  0  0  0  0  0  0
   -3.5631   -0.6202   -0.5206 H   0  0  0  0  0  0  0  0  0  0  0  0
   -2.0301   -2.9174   -0.5360 H   0  0  0  0  0  0  0  0  0  0  0  0
   -0.8921   -0.8236   -2.4833 H   0  0  0  0  0  0  0  0  0  0  0  0
   -0.0457   -2.2777   -1.9410 H   0  0  0  0  0  0  0  0  0  0  0  0
   -1.5052   -2.4193   -2.9387 H   0  0  0  0  0  0  0  0  0  0  0  0
   -0.2267   -1.7335    0.8672 N   0  0  0  0  0  0  0  0  0  0  0  0
    0.5363   -1.1590    1.9465 C   0  0  2  0  0  0  0  0  0  0  0  0
    1.9898   -1.1033    1.4904 C   0  0  0  0  0  0  0  0  0  0  0  0
    2.3649   -0.4395    0.5261 O   0  0  0  0  0  0  0  0  0  0  0  0
    0.4079   -1.9758    3.2302 C   0  0  0  0  0  0  0  0  0  0  0  0
   -0.9637   -1.9555    3.9170 C   0  0  0  0  0  0  0  0  0  0  0  0
   -1.6219   -0.8923    3.7240 O   0  5  0  0  0  0  0  0  0  0  0  0
   -1.2734   -2.9754    4.5913 O   0  0  0  0  0  0  0  0  0  0  0  0
   -0.0113   -2.6869    0.5854 H   0  0  0  0  0  0  0  0  0  0  0  0
    0.1636   -0.1382    2.0876 H   0  0  0  0  0  0  0  0  0  0  0  0
    1.1556   -1.6366    3.9601 H   0  0  0  0  0  0  0  0  0  0  0  0
    0.6337   -3.0298    3.0216 H   0  0  0  0  0  0  0  0  0  0  0  0
    2.8250   -1.8403    2.3185 N   0  0  0  0  0  0  0  0  0  0  0  0
    4.2530   -1.9213    2.1169 C   0  0  2  0  0  0  0  0  0  0  0  0
    4.7207   -3.2849    2.6082 C   0  0  0  0  0  0  0  0  0  0  0  0
    4.0912   -3.9564    3.4230 O   0  0  0  0  0  0  0  0  0  0  0  0
    4.9792   -0.8021    2.8467 C   0  0  0  0  0  0  0  0  0  0  0  0
    2.4331   -2.3205    3.1232 H   0  0  0  0  0  0  0  0  0  0  0  0
    4.4250   -1.8425    1.0379 H   0  0  0  0  0  0  0  0  0  0  0  0
    4.8185   -0.8645    3.9292 H   0  0  0  0  0  0  0  0  0  0  0  0
    6.0588   -0.8480    2.6697 H   0  0  0  0  0  0  0  0  0  0  0  0
    4.6203    0.1777    2.5134 H   0  0  0  0  0  0  0  0  0  0  0  0
    5.9451   -3.6444    2.0626 N   0  0  0  0  0  0  0  0  0  0  0  0
    6.6063   -4.8879    2.3826 C   0  0  0  0  0  0  0  0  0  0  0  0
    6.3865   -3.0348    1.3804 H   0  0  0  0  0  0  0  0  0  0  0  0
    7.2963   -4.7308    3.2247 H   0  0  0  0  0  0  0  0  0  0  0  0
    5.8548   -5.6417    2.6603 H   0  0  0  0  0  0  0  0  0  0  0  0
    7.1712   -5.2388    1.5064 H   0  0  0  0  0  0  0  0  0  0  0  0
  1  3  1  0  0  0  0
  1  7  1  0  0  0  0
  1  2  2  0  0  0  0
 30 31  1  0  0  0  0
 31 39  1  0  0  0  0
 31 32  2  0  0  0  0
  8  9  1  0  0  0  0
  9 17  1  0  0  0  0
  9 10  2  0  0  0  0
 18 19  1  0  0  0  0
 19 29  1  0  0  0  0
 19 20  2  0  0  0  0
 21 22  1  0  0  0  0
 22 23  1  0  0  0  0
 22 24  2  0  0  0  0
 30 33  1  0  0  0  0
  8 11  1  0  0  0  0
 39 40  1  0  0  0  0
 18 21  1  0  0  0  0
 29 30  1  0  0  0  0
  7  8  1  0  0  0  0
 17 18  1  0  0  0  0
  3  4  1  0  0  0  0
  3  5  1  0  0  0  0
  3  6  1  0  0  0  0
 33 36  1  0  0  0  0
 33 37  1  0  0  0  0
 33 38  1  0  0  0  0
 11 14  1  0  0  0  0
 11 15  1  0  0  0  0
 11 16  1  0  0  0  0
 40 42  1  0  0  0  0
 40 43  1  0  0  0  0
 40 44  1  0  0  0  0
 21 27  1  0  0  0  0
 21 28  1  0  0  0  0
 30 35  1  0  0  0  0
  8 13  1  0  0  0  0
 18 26  1  0  0  0  0
 39 41  1  0  0  0  0
  7 12  1  0  0  0  0
 29 34  1  0  0  0  0
 17 25  1  0  0  0  0
M  CHG  1  23  -1
M  END
$$$$

  -OEChem-05262214473D

 44 43  0     1  0  0  0  0  0999 V2000
   -4.0256   -1.8030   -2.1581 C   0  0  0  0  0  0  0  0  0  0  0  0
   -3.7513   -2.6782   -2.9709 O   0  0  0  0  0  0  0  0  0  0  0  0
   -5.3491   -1.1169   -2.2339 C   0  0  0  0  0  0  0  0  0  0  0  0
   -5.3223   -0.2211   -2.8750 H   0  0  0  0  0  0  0  0  0  0  0  0
   -6.1322   -1.7605   -2.6658 H   0  0  0  0  0  0  0  0  0  0  0  0
   -5.7568   -0.7715   -1.2704 H   0  0  0  0  0  0  0  0  0  0  0  0
   -3.2124   -1.3578   -1.1289 N   0  0  0  0  0  0  0  0  0  0  0  0
   -1.8971   -1.8843   -0.8752 C   0  0  2  0  0  0  0  0  0  0  0  0
   -1.2676   -1.0599    0.2399 C   0  0  0  0  0  0  0  0  0  0  0  0
   -1.6270    0.0833    0.5138 O   0  0  0  0  0  0  0  0  0  0  0  0
   -1.0364   -1.8506   -2.1285 C   0  0  0  0  0  0  0  0  0  0  0  0
   -3.5631   -0.6202   -0.5206 H   0  0  0  0  0  0  0  0  0  0  0  0
   -2.0301   -2.9174   -0.5360 H   0  0  0  0  0  0  0  0  0  0  0  0
   -0.8921   -0.8236   -2.4833 H   0  0  0  0  0  0  0  0  0  0  0  0
   -0.0457   -2.2777   -1.9410 H   0  0  0  0  0  0  0  0  0  0  0  0
   -1.5052   -2.4193   -2.9387 H   0  0  0  0  0  0  0  0  0  0  0  0
   -0.2267   -1.7335    0.8672 N   0  0  0  0  0  0  0  0  0  0  0  0
    0.5363   -1.1590    1.9465 C   0  0  2  0  0  0  0  0  0  0  0  0
    1.9898   -1.1033    1.4904 C   0  0  0  0  0  0  0  0  0  0  0  0
    2.4161   -0.2524    0.7124 O   0  0  0  0  0  0  0  0  0  0  0  0
    0.4079   -1.9758    3.2302 C   0  0  0  0  0  0  0  0  0  0  0  0
   -0.9637   -1.9555    3.9170 C   0  0  0  0  0  0  0  0  0  0  0  0
   -1.6219   -0.8923    3.7240 O   0  5  0  0  0  0  0  0  0  0  0  0
   -1.2734   -2.9754    4.5913 O   0  0  0  0  0  0  0  0  0  0  0  0
   -0.0113   -2.6869    0.5854 H   0  0  0  0  0  0  0  0  0  0  0  0
    0.1636   -0.1382    2.0876 H   0  0  0  0  0  0  0  0  0  0  0  0
    1.1556   -1.6366    3.9601 H   0  0  0  0  0  0  0  0  0  0  0  0
    0.6337   -3.0298    3.0216 H   0  0  0  0  0  0  0  0  0  0  0  0
    2.7642   -2.0835    2.0951 N   0  0  0  0  0  0  0  0  0  0  0  0
    4.1815   -2.2208    1.8525 C   0  0  2  0  0  0  0  0  0  0  0  0
    4.5404   -3.6951    1.9836 C   0  0  0  0  0  0  0  0  0  0  0  0
    3.8599   -4.4972    2.6197 O   0  0  0  0  0  0  0  0  0  0  0  0
    4.9932   -1.3755    2.8216 C   0  0  0  0  0  0  0  0  0  0  0  0
    2.3356   -2.7164    2.7641 H   0  0  0  0  0  0  0  0  0  0  0  0
    4.3595   -1.8912    0.8231 H   0  0  0  0  0  0  0  0  0  0  0  0
    4.8279   -1.6911    3.8581 H   0  0  0  0  0  0  0  0  0  0  0  0
    6.0659   -1.4584    2.6180 H   0  0  0  0  0  0  0  0  0  0  0  0
    4.7126   -0.3193    2.7469 H   0  0  0  0  0  0  0  0  0  0  0  0
    5.7329   -4.0009    1.3428 N   0  0  0  0  0  0  0  0  0  0  0  0
    6.2942   -5.3316    1.3338 C   0  0  0  0  0  0  0  0  0  0  0  0
    6.2210   -3.2771    0.8236 H   0  0  0  0  0  0  0  0  0  0  0  0
    6.9943   -5.4406    2.1753 H   0  0  0  0  0  0  0  0  0  0  0  0
    5.4857   -6.0711    1.4316 H   0  0  0  0  0  0  0  0  0  0  0  0
    6.8300   -5.4971    0.3875 H   0  0  0  0  0  0  0  0  0  0  0  0
  1  3  1  0  0  0  0
  1  7  1  0  0  0  0
  1  2  2  0  0  0  0
 30 31  1  0  0  0  0
 31 39  1  0  0  0  0
 31 32  2  0  0  0  0
  8  9  1  0  0  0  0
  9 17  1  0  0  0  0
  9 10  2  0  0  0  0
 18 19  1  0  0  0  0
 19 29  1  0  0  0  0
 19 20  2  0  0  0  0
 21 22  1  0  0  0  0
 22 23  1  0  0  0  0
 22 24  2  0  0  0  0
 30 33  1  0  0  0  0
  8 11  1  0  0  0  0
 39 40  1  0  0  0  0
 18 21  1  0  0  0  0
 29 30  1  0  0  0  0
  7  8  1  0  0  0  0
 17 18  1  0  0  0  0
  3  4  1  0  0  0  0
  3  5  1  0  0  0  0
  3  6  1  0  0  0  0
 33 36  1  0  0  0  0
 33 37  1  0  0  0  0
 33 38  1  0  0  0  0
 11 14  1  0  0  0  0
 11 15  1  0  0  0  0
 11 16  1  0  0  0  0
 40 42  1  0  0  0  0
 40 43  1  0  0  0  0
 40 44  1  0  0  0  0
 21 27  1  0  0  0  0
 21 28  1  0  0  0  0
 30 35  1  0  0  0  0
  8 13  1  0  0  0  0
 18 26  1  0  0  0  0
 39 41  1  0  0  0  0
  7 12  1  0  0  0  0
 29 34  1  0  0  0  0
 17 25  1  0  0  0  0
M  CHG  1  23  -1
M  END
$$$$

  -OEChem-05262214473D

 44 43  0     1  0  0  0  0  0999 V2000
   -4.0256   -1.8030   -2.1581 C   0  0  0  0  0  0  0  0  0  0  0  0
   -3.7513   -2.6782   -2.9709 O   0  0  0  0  0  0  0  0  0  0  0  0
   -5.3491   -1.1169   -2.2339 C   0  0  0  0  0  0  0  0  0  0  0  0
   -5.3223   -0.2211   -2.8750 H   0  0  0  0  0  0  0  0  0  0  0  0
   -6.1322   -1.7605   -2.6658 H   0  0  0  0  0  0  0  0  0  0  0  0
   -5.7568   -0.7715   -1.2704 H   0  0  0  0  0  0  0  0  0  0  0  0
   -3.2124   -1.3578   -1.1289 N   0  0  0  0  0  0  0  0  0  0  0  0
   -1.8971   -1.8843   -0.8752 C   0  0  2  0  0  0  0  0  0  0  0  0
   -1.2676   -1.0599    0.2399 C   0  0  0  0  0  0  0  0  0  0  0  0
   -1.6270    0.0833    0.5138 O   0  0  0  0  0  0  0  0  0  0  0  0
   -1.0364   -1.8506   -2.1285 C   0  0  0  0  0  0  0  0  0  0  0  0
   -3.5631   -0.6202   -0.5206 H   0  0  0  0  0  0  0  0  0  0  0  0
   -2.0301   -2.9174   -0.5360 H   0  0  0  0  0  0  0  0  0  0  0  0
   -0.8921   -0.8236   -2.4833 H   0  0  0  0  0  0  0  0  0  0  0  0
   -0.0457   -2.2777   -1.9410 H   0  0  0  0  0  0  0  0  0  0  0  0
   -1.5052   -2.4193   -2.9387 H   0  0  0  0  0  0  0  0  0  0  0  0
   -0.2267   -1.7335    0.8672 N   0  0  0  0  0  0  0  0  0  0  0  0
    0.5363   -1.1590    1.9465 C   0  0  2  0  0  0  0  0  0  0  0  0
    1.9898   -1.1033    1.4904 C   0  0  0  0  0  0  0  0  0  0  0  0
    2.4819   -0.1215    0.9381 O   0  0  0  0  0  0  0  0  0  0  0  0
    0.4079   -1.9758    3.2302 C   0  0  0  0  0  0  0  0  0  0  0  0
   -0.9637   -1.9555    3.9170 C   0  0  0  0  0  0  0  0  0  0  0  0
   -1.6219   -0.8923    3.7240 O   0  5  0  0  0  0  0  0  0  0  0  0
   -1.2734   -2.9754    4.5913 O   0  0  0  0  0  0  0  0  0  0  0  0
   -0.0113   -2.6869    0.5854 H   0  0  0  0  0  0  0  0  0  0  0  0
    0.1636   -0.1382    2.0876 H   0  0  0  0  0  0  0  0  0  0  0  0
    1.1556   -1.6366    3.9601 H   0  0  0  0  0  0  0  0  0  0  0  0
    0.6337   -3.0298    3.0216 H   0  0  0  0  0  0  0  0  0  0  0  0
    2.6846   -2.2587    1.8200 N   0  0  0  0  0  0  0  0  0  0  0  0
    4.0867   -2.4394    1.5238 C   0  0  2  0  0  0  0  0  0  0  0  0
    4.3286   -3.9233    1.2807 C   0  0  0  0  0  0  0  0  0  0  0  0
    3.5870   -4.8034    1.7125 O   0  0  0  0  0  0  0  0  0  0  0  0
    4.9622   -1.9242    2.6556 C   0  0  0  0  0  0  0  0  0  0  0  0
    2.2074   -3.0027    2.3205 H   0  0  0  0  0  0  0  0  0  0  0  0
    4.2904   -1.8801    0.6042 H   0  0  0  0  0  0  0  0  0  0  0  0
    4.7722   -2.4727    3.5854 H   0  0  0  0  0  0  0  0  0  0  0  0
    6.0251   -2.0358    2.4173 H   0  0  0  0  0  0  0  0  0  0  0  0
    4.7655   -0.8642    2.8489 H   0  0  0  0  0  0  0  0  0  0  0  0
    5.4935   -4.1512    0.5616 N   0  0  0  0  0  0  0  0  0  0  0  0
    5.9485   -5.4772    0.2142 C   0  0  0  0  0  0  0  0  0  0  0  0
    6.0372   -3.3609    0.2275 H   0  0  0  0  0  0  0  0  0  0  0  0
    6.6376   -5.8438    0.9893 H   0  0  0  0  0  0  0  0  0  0  0  0
    5.0844   -6.1541    0.1422 H   0  0  0  0  0  0  0  0  0  0  0  0
    6.4699   -5.4440   -0.7538 H   0  0  0  0  0  0  0  0  0  0  0  0
  1  3  1  0  0  0  0
  1  7  1  0  0  0  0
  1  2  2  0  0  0  0
 30 31  1  0  0  0  0
 31 39  1  0  0  0  0
 31 32  2  0  0  0  0
  8  9  1  0  0  0  0
  9 17  1  0  0  0  0
  9 10  2  0  0  0  0
 18 19  1  0  0  0  0
 19 29  1  0  0  0  0
 19 20  2  0  0  0  0
 21 22  1  0  0  0  0
 22 23  1  0  0  0  0
 22 24  2  0  0  0  0
 30 33  1  0  0  0  0
  8 11  1  0  0  0  0
 39 40  1  0  0  0  0
 18 21  1  0  0  0  0
 29 30  1  0  0  0  0
  7  8  1  0  0  0  0
 17 18  1  0  0  0  0
  3  4  1  0  0  0  0
  3  5  1  0  0  0  0
  3  6  1  0  0  0  0
 33 36  1  0  0  0  0
 33 37  1  0  0  0  0
 33 38  1  0  0  0  0
 11 14  1  0  0  0  0
 11 15  1  0  0  0  0
 11 16  1  0  0  0  0
 40 42  1  0  0  0  0
 40 43  1  0  0  0  0
 40 44  1  0  0  0  0
 21 27  1  0  0  0  0
 21 28  1  0  0  0  0
 30 35  1  0  0  0  0
  8 13  1  0  0  0  0
 18 26  1  0  0  0  0
 39 41  1  0  0  0  0
  7 12  1  0  0  0  0
 29 34  1  0  0  0  0
 17 25  1  0  0  0  0
M  CHG  1  23  -1
M  END
$$$$

  -OEChem-05262214473D

 44 43  0     1  0  0  0  0  0999 V2000
   -4.0256   -1.8030   -2.1581 C   0  0  0  0  0  0  0  0  0  0  0  0
   -3.7513   -2.6782   -2.9709 O   0  0  0  0  0  0  0  0  0  0  0  0
   -5.3491   -1.1169   -2.2339 C   0  0  0  0  0  0  0  0  0  0  0  0
   -5.3223   -0.2211   -2.8750 H   0  0  0  0  0  0  0  0  0  0  0  0
   -6.1322   -1.7605   -2.6658 H   0  0  0  0  0  0  0  0  0  0  0  0
   -5.7568   -0.7715   -1.2704 H   0  0  0  0  0  0  0  0  0  0  0  0
   -3.2124   -1.3578   -1.1289 N   0  0  0  0  0  0  0  0  0  0  0  0
   -1.8971   -1.8843   -0.8752 C   0  0  2  0  0  0  0  0  0  0  0  0
   -1.2676   -1.0599    0.2399 C   0  0  0  0  0  0  0  0  0  0  0  0
   -1.6270    0.0833    0.5138 O   0  0  0  0  0  0  0  0  0  0  0  0
   -1.0364   -1.8506   -2.1285 C   0  0  0  0  0  0  0  0  0  0  0  0
   -3.5631   -0.6202   -0.5206 H   0  0  0  0  0  0  0  0  0  0  0  0
   -2.0301   -2.9174   -0.5360 H   0  0  0  0  0  0  0  0  0  0  0  0
   -0.8921   -0.8236   -2.4833 H   0  0  0  0  0  0  0  0  0  0  0  0
   -0.0457   -2.2777   -1.9410 H   0  0  0  0  0  0  0  0  0  0  0  0
   -1.5052   -2.4193   -2.9387 H   0  0  0  0  0  0  0  0  0  0  0  0
   -0.2267   -1.7335    0.8672 N   0  0  0  0  0  0  0  0  0  0  0  0
    0.5363   -1.1590    1.9465 C   0  0  2  0  0  0  0  0  0  0  0  0
    1.9898   -1.1033    1.4904 C   0  0  0  0  0  0  0  0  0  0  0  0
    2.5577   -0.0559    1.1877 O   0  0  0  0  0  0  0  0  0  0  0  0
    0.4079   -1.9758    3.2302 C   0  0  0  0  0  0  0  0  0  0  0  0
   -0.9637   -1.9555    3.9170 C   0  0  0  0  0  0  0  0  0  0  0  0
   -1.6219   -0.8923    3.7240 O   0  5  0  0  0  0  0  0  0  0  0  0
   -1.2734   -2.9754    4.5913 O   0  0  0  0  0  0  0  0  0  0  0  0
   -0.0113   -2.6869    0.5854 H   0  0  0  0  0  0  0  0  0  0  0  0
    0.1636   -0.1382    2.0876 H   0  0  0  0  0  0  0  0  0  0  0  0
    1.1556   -1.6366    3.9601 H   0  0  0  0  0  0  0  0  0  0  0  0
    0.6337   -3.0298    3.0216 H   0  0  0  0  0  0  0  0  0  0  0  0
    2.5915   -2.3538    1.5118 N   0  0  0  0  0  0  0  0  0  0  0  0
    3.9752   -2.5621    1.1534 C   0  0  2  0  0  0  0  0  0  0  0  0
    4.0997   -3.9538    0.5475 C   0  0  0  0  0  0  0  0  0  0  0  0
    3.2911   -4.8541    0.7633 O   0  0  0  0  0  0  0  0  0  0  0  0
    4.8881   -2.4109    2.3602 C   0  0  0  0  0  0  0  0  0  0  0  0
    2.0572   -3.1598    1.8225 H   0  0  0  0  0  0  0  0  0  0  0  0
    4.2224   -1.8101    0.3962 H   0  0  0  0  0  0  0  0  0  0  0  0
    4.6554   -3.1560    3.1297 H   0  0  0  0  0  0  0  0  0  0  0  0
    5.9391   -2.5408    2.0814 H   0  0  0  0  0  0  0  0  0  0  0  0
    4.7753   -1.4197    2.8125 H   0  0  0  0  0  0  0  0  0  0  0  0
    5.2433   -4.0851   -0.2278 N   0  0  0  0  0  0  0  0  0  0  0  0
    5.5927   -5.3148   -0.8999 C   0  0  0  0  0  0  0  0  0  0  0  0
    5.8475   -3.2806   -0.3673 H   0  0  0  0  0  0  0  0  0  0  0  0
    6.2506   -5.9130   -0.2524 H   0  0  0  0  0  0  0  0  0  0  0  0
    4.6780   -5.8849   -1.1199 H   0  0  0  0  0  0  0  0  0  0  0  0
    6.1153   -5.0832   -1.8397 H   0  0  0  0  0  0  0  0  0  0  0  0
  1  3  1  0  0  0  0
  1  7  1  0  0  0  0
  1  2  2  0  0  0  0
 30 31  1  0  0  0  0
 31 39  1  0  0  0  0
 31 32  2  0  0  0  0
  8  9  1  0  0  0  0
  9 17  1  0  0  0  0
  9 10  2  0  0  0  0
 18 19  1  0  0  0  0
 19 29  1  0  0  0  0
 19 20  2  0  0  0  0
 21 22  1  0  0  0  0
 22 23  1  0  0  0  0
 22 24  2  0  0  0  0
 30 33  1  0  0  0  0
  8 11  1  0  0  0  0
 39 40  1  0  0  0  0
 18 21  1  0  0  0  0
 29 30  1  0  0  0  0
  7  8  1  0  0  0  0
 17 18  1  0  0  0  0
  3  4  1  0  0  0  0
  3  5  1  0  0  0  0
  3  6  1  0  0  0  0
 33 36  1  0  0  0  0
 33 37  1  0  0  0  0
 33 38  1  0  0  0  0
 11 14  1  0  0  0  0
 11 15  1  0  0  0  0
 11 16  1  0  0  0  0
 40 42  1  0  0  0  0
 40 43  1  0  0  0  0
 40 44  1  0  0  0  0
 21 27  1  0  0  0  0
 21 28  1  0  0  0  0
 30 35  1  0  0  0  0
  8 13  1  0  0  0  0
 18 26  1  0  0  0  0
 39 41  1  0  0  0  0
  7 12  1  0  0  0  0
 29 34  1  0  0  0  0
 17 25  1  0  0  0  0
M  CHG  1  23  -1
M  END
$$$$

  -OEChem-05262214473D

 44 43  0     1  0  0  0  0  0999 V2000
   -4.0256   -1.8030   -2.1581 C   0  0  0  0  0  0  0  0  0  0  0  0
   -3.7513   -2.6782   -2.9709 O   0  0  0  0  0  0  0  0  0  0  0  0
   -5.3491   -1.1169   -2.2339 C   0  0  0  0  0  0  0  0  0  0  0  0
   -5.3223   -0.2211   -2.8750 H   0  0  0  0  0  0  0  0  0  0  0  0
   -6.1322   -1.7605   -2.6658 H   0  0  0  0  0  0  0  0  0  0  0  0
   -5.7568   -0.7715   -1.2704 H   0  0  0  0  0  0  0  0  0  0  0  0
   -3.2124   -1.3578   -1.1289 N   0  0  0  0  0  0  0  0  0  0  0  0
   -1.8971   -1.8843   -0.8752 C   0  0  2  0  0  0  0  0  0  0  0  0
   -1.2676   -1.0599    0.2399 C   0  0  0  0  0  0  0  0  0  0  0  0
   -1.6270    0.0833    0.5138 O   0  0  0  0  0  0  0  0  0  0  0  0
   -1.0364   -1.8506   -2.1285 C   0  0  0  0  0  0  0  0  0  0  0  0
   -3.5631   -0.6202   -0.5206 H   0  0  0  0  0  0  0  0  0  0  0  0
   -2.0301   -2.9174   -0.5360 H   0  0  0  0  0  0  0  0  0  0  0  0
   -0.8921   -0.8236   -2.4833 H   0  0  0  0  0  0  0  0  0  0  0  0
   -0.0457   -2.2777   -1.9410 H   0  0  0  0  0  0  0  0  0  0  0  0
   -1.5052   -2.4193   -2.9387 H   0  0  0  0  0  0  0  0  0  0  0  0
   -0.2267   -1.7335    0.8672 N   0  0  0  0  0  0  0  0  0  0  0  0
    0.5363   -1.1590    1.9465 C   0  0  2  0  0  0  0  0  0  0  0  0
    1.9898   -1.1033    1.4904 C   0  0  0  0  0  0  0  0  0  0  0  0
    2.6384   -0.0601    1.4443 O   0  0  0  0  0  0  0  0  0  0  0  0
    0.4079   -1.9758    3.2302 C   0  0  0  0  0  0  0  0  0  0  0  0
   -0.9637   -1.9555    3.9170 C   0  0  0  0  0  0  0  0  0  0  0  0
   -1.6219   -0.8923    3.7240 O   0  5  0  0  0  0  0  0  0  0  0  0
   -1.2734   -2.9754    4.5913 O   0  0  0  0  0  0  0  0  0  0  0  0
   -0.0113   -2.6869    0.5854 H   0  0  0  0  0  0  0  0  0  0  0  0
    0.1636   -0.1382    2.0876 H   0  0  0  0  0  0  0  0  0  0  0  0
    1.1556   -1.6366    3.9601 H   0  0  0  0  0  0  0  0  0  0  0  0
    0.6337   -3.0298    3.0216 H   0  0  0  0  0  0  0  0  0  0  0  0
    2.4913   -2.3624    1.1914 N   0  0  0  0  0  0  0  0  0  0  0  0
    3.8544   -2.5805    0.7663 C   0  0  2  0  0  0  0  0  0  0  0  0
    3.8693   -3.7847   -0.1661 C   0  0  0  0  0  0  0  0  0  0  0  0
    2.9923   -4.6460   -0.1634 O   0  0  0  0  0  0  0  0  0  0  0  0
    4.7761   -2.8024    1.9554 C   0  0  0  0  0  0  0  0  0  0  0  0
    1.8952   -3.1771    1.3042 H   0  0  0  0  0  0  0  0  0  0  0  0
    4.1602   -1.6858    0.2131 H   0  0  0  0  0  0  0  0  0  0  0  0
    4.4854   -3.6946    2.5219 H   0  0  0  0  0  0  0  0  0  0  0  0
    5.8137   -2.9391    1.6331 H   0  0  0  0  0  0  0  0  0  0  0  0
    4.7415   -1.9480    2.6401 H   0  0  0  0  0  0  0  0  0  0  0  0
    4.9993   -3.8070   -0.9716 N   0  0  0  0  0  0  0  0  0  0  0  0
    5.2511   -4.8554   -1.9326 C   0  0  0  0  0  0  0  0  0  0  0  0
    5.6649   -3.0415   -0.9201 H   0  0  0  0  0  0  0  0  0  0  0  0
    5.8598   -5.6435   -1.4652 H   0  0  0  0  0  0  0  0  0  0  0  0
    4.2945   -5.2820   -2.2687 H   0  0  0  0  0  0  0  0  0  0  0  0
    5.7905   -4.4393   -2.7962 H   0  0  0  0  0  0  0  0  0  0  0  0
  1  3  1  0  0  0  0
  1  7  1  0  0  0  0
  1  2  2  0  0  0  0
 30 31  1  0  0  0  0
 31 39  1  0  0  0  0
 31 32  2  0  0  0  0
  8  9  1  0  0  0  0
  9 17  1  0  0  0  0
  9 10  2  0  0  0  0
 18 19  1  0  0  0  0
 19 29  1  0  0  0  0
 19 20  2  0  0  0  0
 21 22  1  0  0  0  0
 22 23  1  0  0  0  0
 22 24  2  0  0  0  0
 30 33  1  0  0  0  0
  8 11  1  0  0  0  0
 39 40  1  0  0  0  0
 18 21  1  0  0  0  0
 29 30  1  0  0  0  0
  7  8  1  0  0  0  0
 17 18  1  0  0  0  0
  3  4  1  0  0  0  0
  3  5  1  0  0  0  0
  3  6  1  0  0  0  0
 33 36  1  0  0  0  0
 33 37  1  0  0  0  0
 33 38  1  0  0  0  0
 11 14  1  0  0  0  0
 11 15  1  0  0  0  0
 11 16  1  0  0  0  0
 40 42  1  0  0  0  0
 40 43  1  0  0  0  0
 40 44  1  0  0  0  0
 21 27  1  0  0  0  0
 21 28  1  0  0  0  0
 30 35  1  0  0  0  0
  8 13  1  0  0  0  0
 18 26  1  0  0  0  0
 39 41  1  0  0  0  0
  7 12  1  0  0  0  0
 29 34  1  0  0  0  0
 17 25  1  0  0  0  0
M  CHG  1  23  -1
M  END
$$$$

  -OEChem-05262214473D

 44 43  0     1  0  0  0  0  0999 V2000
   -4.0256   -1.8030   -2.1581 C   0  0  0  0  0  0  0  0  0  0  0  0
   -3.7513   -2.6782   -2.9709 O   0  0  0  0  0  0  0  0  0  0  0  0
   -5.3491   -1.1169   -2.2339 C   0  0  0  0  0  0  0  0  0  0  0  0
   -5.3223   -0.2211   -2.8750 H   0  0  0  0  0  0  0  0  0  0  0  0
   -6.1322   -1.7605   -2.6658 H   0  0  0  0  0  0  0  0  0  0  0  0
   -5.7568   -0.7715   -1.2704 H   0  0  0  0  0  0  0  0  0  0  0  0
   -3.2124   -1.3578   -1.1289 N   0  0  0  0  0  0  0  0  0  0  0  0
   -1.8971   -1.8843   -0.8752 C   0  0  2  0  0  0  0  0  0  0  0  0
   -1.2676   -1.0599    0.2399 C   0  0  0  0  0  0  0  0  0  0  0  0
   -1.6270    0.0833    0.5138 O   0  0  0  0  0  0  0  0  0  0  0  0
   -1.0364   -1.8506   -2.1285 C   0  0  0  0  0  0  0  0  0  0  0  0
   -3.5631   -0.6202   -0.5206 H   0  0  0  0  0  0  0  0  0  0  0  0
   -2.0301   -2.9174   -0.5360 H   0  0  0  0  0  0  0  0  0  0  0  0
   -0.8921   -0.8236   -2.4833 H   0  0  0  0  0  0  0  0  0  0  0  0
   -0.0457   -2.2777   -1.9410 H   0  0  0  0  0  0  0  0  0  0  0  0
   -1.5052   -2.4193   -2.9387 H   0  0  0  0  0  0  0  0  0  0  0  0
   -0.2267   -1.7335    0.8672 N   0  0  0  0  0  0  0  0  0  0  0  0
    0.5363   -1.1590    1.9465 C   0  0  2  0  0  0  0  0  0  0  0  0
    1.9898   -1.1033    1.4904 C   0  0  0  0  0  0  0  0  0  0  0  0
    2.7184   -0.1336    1.6903 O   0  0  0  0  0  0  0  0  0  0  0  0
    0.4079   -1.9758    3.2302 C   0  0  0  0  0  0  0  0  0  0  0  0
   -0.9637   -1.9555    3.9170 C   0  0  0  0  0  0  0  0  0  0  0  0
   -1.6219   -0.8923    3.7240 O   0  5  0  0  0  0  0  0  0  0  0  0
   -1.2734   -2.9754    4.5913 O   0  0  0  0  0  0  0  0  0  0  0  0
   -0.0113   -2.6869    0.5854 H   0  0  0  0  0  0  0  0  0  0  0  0
    0.1636   -0.1382    2.0876 H   0  0  0  0  0  0  0  0  0  0  0  0
    1.1556   -1.6366    3.9601 H   0  0  0  0  0  0  0  0  0  0  0  0
    0.6337   -3.0298    3.0216 H   0  0  0  0  0  0  0  0  0  0  0  0
    2.3909   -2.2839    0.8808 N   0  0  0  0  0  0  0  0  0  0  0  0
    3.7327   -2.4934    0.3890 C   0  0  2  0  0  0  0  0  0  0  0  0
    3.6532   -3.4273   -0.8114 C   0  0  0  0  0  0  0  0  0  0  0  0
    2.7112   -4.1932   -1.0042 O   0  0  0  0  0  0  0  0  0  0  0  0
    4.6338   -3.0719    1.4689 C   0  0  0  0  0  0  0  0  0  0  0  0
    1.7325   -3.0533    0.8008 H   0  0  0  0  0  0  0  0  0  0  0  0
    4.1080   -1.5158    0.0676 H   0  0  0  0  0  0  0  0  0  0  0  0
    4.2736   -4.0516    1.8035 H   0  0  0  0  0  0  0  0  0  0  0  0
    5.6575   -3.2035    1.1030 H   0  0  0  0  0  0  0  0  0  0  0  0
    4.6663   -2.4132    2.3435 H   0  0  0  0  0  0  0  0  0  0  0  0
    4.7781   -3.3360   -1.6192 N   0  0  0  0  0  0  0  0  0  0  0  0
    4.9469   -4.1304   -2.8135 C   0  0  0  0  0  0  0  0  0  0  0  0
    5.5018   -2.6600   -1.3934 H   0  0  0  0  0  0  0  0  0  0  0  0
    5.4916   -5.0535   -2.5664 H   0  0  0  0  0  0  0  0  0  0  0  0
    3.9598   -4.3865   -3.2259 H   0  0  0  0  0  0  0  0  0  0  0  0
    5.5176   -3.5561   -3.5581 H   0  0  0  0  0  0  0  0  0  0  0  0
  1  3  1  0  0  0  0
  1  7  1  0  0  0  0
  1  2  2  0  0  0  0
 30 31  1  0  0  0  0
 31 39  1  0  0  0  0
 31 32  2  0  0  0  0
  8  9  1  0  0  0  0
  9 17  1  0  0  0  0
  9 10  2  0  0  0  0
 18 19  1  0  0  0  0
 19 29  1  0  0  0  0
 19 20  2  0  0  0  0
 21 22  1  0  0  0  0
 22 23  1  0  0  0  0
 22 24  2  0  0  0  0
 30 33  1  0  0  0  0
  8 11  1  0  0  0  0
 39 40  1  0  0  0  0
 18 21  1  0  0  0  0
 29 30  1  0  0  0  0
  7  8  1  0  0  0  0
 17 18  1  0  0  0  0
  3  4  1  0  0  0  0
  3  5  1  0  0  0  0
  3  6  1  0  0  0  0
 33 36  1  0  0  0  0
 33 37  1  0  0  0  0
 33 38  1  0  0  0  0
 11 14  1  0  0  0  0
 11 15  1  0  0  0  0
 11 16  1  0  0  0  0
 40 42  1  0  0  0  0
 40 43  1  0  0  0  0
 40 44  1  0  0  0  0
 21 27  1  0  0  0  0
 21 28  1  0  0  0  0
 30 35  1  0  0  0  0
  8 13  1  0  0  0  0
 18 26  1  0  0  0  0
 39 41  1  0  0  0  0
  7 12  1  0  0  0  0
 29 34  1  0  0  0  0
 17 25  1  0  0  0  0
M  CHG  1  23  -1
M  END
$$$$

  -OEChem-05262214473D

 44 43  0     1  0  0  0  0  0999 V2000
   -4.0256   -1.8030   -2.1581 C   0  0  0  0  0  0  0  0  0  0  0  0
   -3.7513   -2.6782   -2.9709 O   0  0  0  0  0  0  0  0  0  0  0  0
   -5.3491   -1.1169   -2.2339 C   0  0  0  0  0  0  0  0  0  0  0  0
   -5.3223   -0.2211   -2.8750 H   0  0  0  0  0  0  0  0  0  0  0  0
   -6.1322   -1.7605   -2.6658 H   0  0  0  0  0  0  0  0  0  0  0  0
   -5.7568   -0.7715   -1.2704 H   0  0  0  0  0  0  0  0  0  0  0  0
   -3.2124   -1.3578   -1.1289 N   0  0  0  0  0  0  0  0  0  0  0  0
   -1.8971   -1.8843   -0.8752 C   0  0  2  0  0  0  0  0  0  0  0  0
   -1.2676   -1.0599    0.2399 C   0  0  0  0  0  0  0  0  0  0  0  0
   -1.6270    0.0833    0.5138 O   0  0  0  0  0  0  0  0  0  0  0  0
   -1.0364   -1.8506   -2.1285 C   0  0  0  0  0  0  0  0  0  0  0  0
   -3.5631   -0.6202   -0.5206 H   0  0  0  0  0  0  0  0  0  0  0  0
   -2.0301   -2.9174   -0.5360 H   0  0  0  0  0  0  0  0  0  0  0  0
   -0.8921   -0.8236   -2.4833 H   0  0  0  0  0  0  0  0  0  0  0  0
   -0.0457   -2.2777   -1.9410 H   0  0  0  0  0  0  0  0  0  0  0  0
   -1.5052   -2.4193   -2.9387 H   0  0  0  0  0  0  0  0  0  0  0  0
   -0.2267   -1.7335    0.8672 N   0  0  0  0  0  0  0  0  0  0  0  0
    0.5363   -1.1590    1.9465 C   0  0  2  0  0  0  0  0  0  0  0  0
    1.9898   -1.1033    1.4904 C   0  0  0  0  0  0  0  0  0  0  0  0
    2.7924   -0.2716    1.9091 O   0  0  0  0  0  0  0  0  0  0  0  0
    0.4079   -1.9758    3.2302 C   0  0  0  0  0  0  0  0  0  0  0  0
   -0.9637   -1.9555    3.9170 C   0  0  0  0  0  0  0  0  0  0  0  0
   -1.6219   -0.8923    3.7240 O   0  5  0  0  0  0  0  0  0  0  0  0
   -1.2734   -2.9754    4.5913 O   0  0  0  0  0  0  0  0  0  0  0  0
   -0.0113   -2.6869    0.5854 H   0  0  0  0  0  0  0  0  0  0  0  0
    0.1636   -0.1382    2.0876 H   0  0  0  0  0  0  0  0  0  0  0  0
    1.1556   -1.6366    3.9601 H   0  0  0  0  0  0  0  0  0  0  0  0
    0.6337   -3.0298    3.0216 H   0  0  0  0  0  0  0  0  0  0  0  0
    2.2970   -2.1236    0.6011 N   0  0  0  0  0  0  0  0  0  0  0  0
    3.6183   -2.3068    0.0472 C   0  0  2  0  0  0  0  0  0  0  0  0
    3.4659   -2.9061   -1.3446 C   0  0  0  0  0  0  0  0  0  0  0  0
    2.4667   -3.5264   -1.7020 O   0  0  0  0  0  0  0  0  0  0  0  0
    4.4709   -3.2012    0.9338 C   0  0  0  0  0  0  0  0  0  0  0  0
    1.5802   -2.7968    0.3466 H   0  0  0  0  0  0  0  0  0  0  0  0
    4.0694   -1.3116   -0.0305 H   0  0  0  0  0  0  0  0  0  0  0  0
    4.0347   -4.2028    1.0235 H   0  0  0  0  0  0  0  0  0  0  0  0
    5.4811   -3.3159    0.5272 H   0  0  0  0  0  0  0  0  0  0  0  0
    4.5548   -2.7836    1.9429 H   0  0  0  0  0  0  0  0  0  0  0  0
    4.5947   -2.7040   -2.1263 N   0  0  0  0  0  0  0  0  0  0  0  0
    4.7009   -3.1891   -3.4826 C   0  0  0  0  0  0  0  0  0  0  0  0
    5.3693   -2.1620   -1.7548 H   0  0  0  0  0  0  0  0  0  0  0  0
    5.1713   -4.1834   -3.4811 H   0  0  0  0  0  0  0  0  0  0  0  0
    3.6968   -3.2593   -3.9264 H   0  0  0  0  0  0  0  0  0  0  0  0
    5.3152   -2.4938   -4.0735 H   0  0  0  0  0  0  0  0  0  0  0  0
  1  3  1  0  0  0  0
  1  7  1  0  0  0  0
  1  2  2  0  0  0  0
 30 31  1  0  0  0  0
 31 39  1  0  0  0  0
 31 32  2  0  0  0  0
  8  9  1  0  0  0  0
  9 17  1  0  0  0  0
  9 10  2  0  0  0  0
 18 19  1  0  0  0  0
 19 29  1  0  0  0  0
 19 20  2  0  0  0  0
 21 22  1  0  0  0  0
 22 23  1  0  0  0  0
 22 24  2  0  0  0  0
 30 33  1  0  0  0  0
  8 11  1  0  0  0  0
 39 40  1  0  0  0  0
 18 21  1  0  0  0  0
 29 30  1  0  0  0  0
  7  8  1  0  0  0  0
 17 18  1  0  0  0  0
  3  4  1  0  0  0  0
  3  5  1  0  0  0  0
  3  6  1  0  0  0  0
 33 36  1  0  0  0  0
 33 37  1  0  0  0  0
 33 38  1  0  0  0  0
 11 14  1  0  0  0  0
 11 15  1  0  0  0  0
 11 16  1  0  0  0  0
 40 42  1  0  0  0  0
 40 43  1  0  0  0  0
 40 44  1  0  0  0  0
 21 27  1  0  0  0  0
 21 28  1  0  0  0  0
 30 35  1  0  0  0  0
  8 13  1  0  0  0  0
 18 26  1  0  0  0  0
 39 41  1  0  0  0  0
  7 12  1  0  0  0  0
 29 34  1  0  0  0  0
 17 25  1  0  0  0  0
M  CHG  1  23  -1
M  END
$$$$

  -OEChem-05262214473D

 44 43  0     1  0  0  0  0  0999 V2000
   -4.0256   -1.8030   -2.1581 C   0  0  0  0  0  0  0  0  0  0  0  0
   -3.7513   -2.6782   -2.9709 O   0  0  0  0  0  0  0  0  0  0  0  0
   -5.3491   -1.1169   -2.2339 C   0  0  0  0  0  0  0  0  0  0  0  0
   -5.3223   -0.2211   -2.8750 H   0  0  0  0  0  0  0  0  0  0  0  0
   -6.1322   -1.7605   -2.6658 H   0  0  0  0  0  0  0  0  0  0  0  0
   -5.7568   -0.7715   -1.2704 H   0  0  0  0  0  0  0  0  0  0  0  0
   -3.2124   -1.3578   -1.1289 N   0  0  0  0  0  0  0  0  0  0  0  0
   -1.8971   -1.8843   -0.8752 C   0  0  2  0  0  0  0  0  0  0  0  0
   -1.2676   -1.0599    0.2399 C   0  0  0  0  0  0  0  0  0  0  0  0
   -1.6270    0.0833    0.5138 O   0  0  0  0  0  0  0  0  0  0  0  0
   -1.0364   -1.8506   -2.1285 C   0  0  0  0  0  0  0  0  0  0  0  0
   -3.5631   -0.6202   -0.5206 H   0  0  0  0  0  0  0  0  0  0  0  0
   -2.0301   -2.9174   -0.5360 H   0  0  0  0  0  0  0  0  0  0  0  0
   -0.8921   -0.8236   -2.4833 H   0  0  0  0  0  0  0  0  0  0  0  0
   -0.0457   -2.2777   -1.9410 H   0  0  0  0  0  0  0  0  0  0  0  0
   -1.5052   -2.4193   -2.9387 H   0  0  0  0  0  0  0  0  0  0  0  0
   -0.2267   -1.7335    0.8672 N   0  0  0  0  0  0  0  0  0  0  0  0
    0.5363   -1.1590    1.9465 C   0  0  2  0  0  0  0  0  0  0  0  0
    1.9898   -1.1033    1.4904 C   0  0  0  0  0  0  0  0  0  0  0  0
    2.8552   -0.4645    2.0857 O   0  0  0  0  0  0  0  0  0  0  0  0
    0.4079   -1.9758    3.2302 C   0  0  0  0  0  0  0  0  0  0  0  0
   -0.9637   -1.9555    3.9170 C   0  0  0  0  0  0  0  0  0  0  0  0
   -1.6219   -0.8923    3.7240 O   0  5  0  0  0  0  0  0  0  0  0  0
   -1.2734   -2.9754    4.5913 O   0  0  0  0  0  0  0  0  0  0  0  0
   -0.0113   -2.6869    0.5854 H   0  0  0  0  0  0  0  0  0  0  0  0
    0.1636   -0.1382    2.0876 H   0  0  0  0  0  0  0  0  0  0  0  0
    1.1556   -1.6366    3.9601 H   0  0  0  0  0  0  0  0  0  0  0  0
    0.6337   -3.0298    3.0216 H   0  0  0  0  0  0  0  0  0  0  0  0
    2.2160   -1.8925    0.3714 N   0  0  0  0  0  0  0  0  0  0  0  0
    3.5191   -2.0333   -0.2358 C   0  0  2  0  0  0  0  0  0  0  0  0
    3.3204   -2.2566   -1.7292 C   0  0  0  0  0  0  0  0  0  0  0  0
    2.2755   -2.6913   -2.2092 O   0  0  0  0  0  0  0  0  0  0  0  0
    4.2984   -3.1814    0.3865 C   0  0  0  0  0  0  0  0  0  0  0  0
    1.4486   -2.4253   -0.0273 H   0  0  0  0  0  0  0  0  0  0  0  0
    4.0470   -1.0871   -0.0745 H   0  0  0  0  0  0  0  0  0  0  0  0
    3.7848   -4.1378    0.2351 H   0  0  0  0  0  0  0  0  0  0  0  0
    5.2966   -3.2687   -0.0551 H   0  0  0  0  0  0  0  0  0  0  0  0
    4.4146   -3.0338    1.4656 H   0  0  0  0  0  0  0  0  0  0  0  0
    4.4618   -1.9543   -2.4585 N   0  0  0  0  0  0  0  0  0  0  0  0
    4.5298   -2.0957   -3.8942 C   0  0  0  0  0  0  0  0  0  0  0  0
    5.2765   -1.5816   -1.9798 H   0  0  0  0  0  0  0  0  0  0  0  0
    4.9206   -3.0925   -4.1469 H   0  0  0  0  0  0  0  0  0  0  0  0
    3.5235   -1.9773   -4.3223 H   0  0  0  0  0  0  0  0  0  0  0  0
    5.1971   -1.3249   -4.3073 H   0  0  0  0  0  0  0  0  0  0  0  0
  1  3  1  0  0  0  0
  1  7  1  0  0  0  0
  1  2  2  0  0  0  0
 30 31  1  0  0  0  0
 31 39  1  0  0  0  0
 31 32  2  0  0  0  0
  8  9  1  0  0  0  0
  9 17  1  0  0  0  0
  9 10  2  0  0  0  0
 18 19  1  0  0  0  0
 19 29  1  0  0  0  0
 19 20  2  0  0  0  0
 21 22  1  0  0  0  0
 22 23  1  0  0  0  0
 22 24  2  0  0  0  0
 30 33  1  0  0  0  0
  8 11  1  0  0  0  0
 39 40  1  0  0  0  0
 18 21  1  0  0  0  0
 29 30  1  0  0  0  0
  7  8  1  0  0  0  0
 17 18  1  0  0  0  0
  3  4  1  0  0  0  0
  3  5  1  0  0  0  0
  3  6  1  0  0  0  0
 33 36  1  0  0  0  0
 33 37  1  0  0  0  0
 33 38  1  0  0  0  0
 11 14  1  0  0  0  0
 11 15  1  0  0  0  0
 11 16  1  0  0  0  0
 40 42  1  0  0  0  0
 40 43  1  0  0  0  0
 40 44  1  0  0  0  0
 21 27  1  0  0  0  0
 21 28  1  0  0  0  0
 30 35  1  0  0  0  0
  8 13  1  0  0  0  0
 18 26  1  0  0  0  0
 39 41  1  0  0  0  0
  7 12  1  0  0  0  0
 29 34  1  0  0  0  0
 17 25  1  0  0  0  0
M  CHG  1  23  -1
M  END
$$$$

  -OEChem-05262214473D

 44 43  0     1  0  0  0  0  0999 V2000
   -4.0256   -1.8030   -2.1581 C   0  0  0  0  0  0  0  0  0  0  0  0
   -3.7513   -2.6782   -2.9709 O   0  0  0  0  0  0  0  0  0  0  0  0
   -5.3491   -1.1169   -2.2339 C   0  0  0  0  0  0  0  0  0  0  0  0
   -5.3223   -0.2211   -2.8750 H   0  0  0  0  0  0  0  0  0  0  0  0
   -6.1322   -1.7605   -2.6658 H   0  0  0  0  0  0  0  0  0  0  0  0
   -5.7568   -0.7715   -1.2704 H   0  0  0  0  0  0  0  0  0  0  0  0
   -3.2124   -1.3578   -1.1289 N   0  0  0  0  0  0  0  0  0  0  0  0
   -1.8971   -1.8843   -0.8752 C   0  0  2  0  0  0  0  0  0  0  0  0
   -1.2676   -1.0599    0.2399 C   0  0  0  0  0  0  0  0  0  0  0  0
   -1.6270    0.0833    0.5138 O   0  0  0  0  0  0  0  0  0  0  0  0
   -1.0364   -1.8506   -2.1285 C   0  0  0  0  0  0  0  0  0  0  0  0
   -3.5631   -0.6202   -0.5206 H   0  0  0  0  0  0  0  0  0  0  0  0
   -2.0301   -2.9174   -0.5360 H   0  0  0  0  0  0  0  0  0  0  0  0
   -0.8921   -0.8236   -2.4833 H   0  0  0  0  0  0  0  0  0  0  0  0
   -0.0457   -2.2777   -1.9410 H   0  0  0  0  0  0  0  0  0  0  0  0
   -1.5052   -2.4193   -2.9387 H   0  0  0  0  0  0  0  0  0  0  0  0
   -0.2267   -1.7335    0.8672 N   0  0  0  0  0  0  0  0  0  0  0  0
    0.5363   -1.1590    1.9465 C   0  0  2  0  0  0  0  0  0  0  0  0
    1.9898   -1.1033    1.4904 C   0  0  0  0  0  0  0  0  0  0  0  0
    2.9025   -0.6994    2.2080 O   0  0  0  0  0  0  0  0  0  0  0  0
    0.4079   -1.9758    3.2302 C   0  0  0  0  0  0  0  0  0  0  0  0
   -0.9637   -1.9555    3.9170 C   0  0  0  0  0  0  0  0  0  0  0  0
   -1.6219   -0.8923    3.7240 O   0  5  0  0  0  0  0  0  0  0  0  0
   -1.2734   -2.9754    4.5913 O   0  0  0  0  0  0  0  0  0  0  0  0
   -0.0113   -2.6869    0.5854 H   0  0  0  0  0  0  0  0  0  0  0  0
    0.1636   -0.1382    2.0876 H   0  0  0  0  0  0  0  0  0  0  0  0
    1.1556   -1.6366    3.9601 H   0  0  0  0  0  0  0  0  0  0  0  0
    0.6337   -3.0298    3.0216 H   0  0  0  0  0  0  0  0  0  0  0  0
    2.1536   -1.6064    0.2073 N   0  0  0  0  0  0  0  0  0  0  0  0
    3.4417   -1.6916   -0.4407 C   0  0  2  0  0  0  0  0  0  0  0  0
    3.2264   -1.5231   -1.9390 C   0  0  0  0  0  0  0  0  0  0  0  0
    2.1508   -1.7447   -2.4912 O   0  0  0  0  0  0  0  0  0  0  0  0
    4.1282   -3.0139   -0.1356 C   0  0  0  0  0  0  0  0  0  0  0  0
    1.3467   -1.9639   -0.2956 H   0  0  0  0  0  0  0  0  0  0  0  0
    4.0424   -0.8578   -0.0614 H   0  0  0  0  0  0  0  0  0  0  0  0
    3.5410   -3.8611   -0.5082 H   0  0  0  0  0  0  0  0  0  0  0  0
    5.1165   -3.0652   -0.6041 H   0  0  0  0  0  0  0  0  0  0  0  0
    4.2553   -3.1469    0.9442 H   0  0  0  0  0  0  0  0  0  0  0  0
    4.3883   -1.1378   -2.5931 N   0  0  0  0  0  0  0  0  0  0  0  0
    4.4454   -0.9248   -4.0204 C   0  0  0  0  0  0  0  0  0  0  0  0
    5.2296   -0.9582   -2.0530 H   0  0  0  0  0  0  0  0  0  0  0  0
    4.7566   -1.8549   -4.5183 H   0  0  0  0  0  0  0  0  0  0  0  0
    3.4516   -0.6278   -4.3868 H   0  0  0  0  0  0  0  0  0  0  0  0
    5.1712   -0.1290   -4.2435 H   0  0  0  0  0  0  0  0  0  0  0  0
  1  3  1  0  0  0  0
  1  7  1  0  0  0  0
  1  2  2  0  0  0  0
 30 31  1  0  0  0  0
 31 39  1  0  0  0  0
 31 32  2  0  0  0  0
  8  9  1  0  0  0  0
  9 17  1  0  0  0  0
  9 10  2  0  0  0  0
 18 19  1  0  0  0  0
 19 29  1  0  0  0  0
 19 20  2  0  0  0  0
 21 22  1  0  0  0  0
 22 23  1  0  0  0  0
 22 24  2  0  0  0  0
 30 33  1  0  0  0  0
  8 11  1  0  0  0  0
 39 40  1  0  0  0  0
 18 21  1  0  0  0  0
 29 30  1  0  0  0  0
  7  8  1  0  0  0  0
 17 18  1  0  0  0  0
  3  4  1  0  0  0  0
  3  5  1  0  0  0  0
  3  6  1  0  0  0  0
 33 36  1  0  0  0  0
 33 37  1  0  0  0  0
 33 38  1  0  0  0  0
 11 14  1  0  0  0  0
 11 15  1  0  0  0  0
 11 16  1  0  0  0  0
 40 42  1  0  0  0  0
 40 43  1  0  0  0  0
 40 44  1  0  0  0  0
 21 27  1  0  0  0  0
 21 28  1  0  0  0  0
 30 35  1  0  0  0  0
  8 13  1  0  0  0  0
 18 26  1  0  0  0  0
 39 41  1  0  0  0  0
  7 12  1  0  0  0  0
 29 34  1  0  0  0  0
 17 25  1  0  0  0  0
M  CHG  1  23  -1
M  END
$$$$

  -OEChem-05262214473D

 44 43  0     1  0  0  0  0  0999 V2000
   -4.0256   -1.8030   -2.1581 C   0  0  0  0  0  0  0  0  0  0  0  0
   -3.7513   -2.6782   -2.9709 O   0  0  0  0  0  0  0  0  0  0  0  0
   -5.3491   -1.1169   -2.2339 C   0  0  0  0  0  0  0  0  0  0  0  0
   -5.3223   -0.2211   -2.8750 H   0  0  0  0  0  0  0  0  0  0  0  0
   -6.1322   -1.7605   -2.6658 H   0  0  0  0  0  0  0  0  0  0  0  0
   -5.7568   -0.7715   -1.2704 H   0  0  0  0  0  0  0  0  0  0  0  0
   -3.2124   -1.3578   -1.1289 N   0  0  0  0  0  0  0  0  0  0  0  0
   -1.8971   -1.8843   -0.8752 C   0  0  2  0  0  0  0  0  0  0  0  0
   -1.2676   -1.0599    0.2399 C   0  0  0  0  0  0  0  0  0  0  0  0
   -1.6270    0.0833    0.5138 O   0  0  0  0  0  0  0  0  0  0  0  0
   -1.0364   -1.8506   -2.1285 C   0  0  0  0  0  0  0  0  0  0  0  0
   -3.5631   -0.6202   -0.5206 H   0  0  0  0  0  0  0  0  0  0  0  0
   -2.0301   -2.9174   -0.5360 H   0  0  0  0  0  0  0  0  0  0  0  0
   -0.8921   -0.8236   -2.4833 H   0  0  0  0  0  0  0  0  0  0  0  0
   -0.0457   -2.2777   -1.9410 H   0  0  0  0  0  0  0  0  0  0  0  0
   -1.5052   -2.4193   -2.9387 H   0  0  0  0  0  0  0  0  0  0  0  0
   -0.2267   -1.7335    0.8672 N   0  0  0  0  0  0  0  0  0  0  0  0
    0.5363   -1.1590    1.9465 C   0  0  2  0  0  0  0  0  0  0  0  0
    1.9898   -1.1033    1.4904 C   0  0  0  0  0  0  0  0  0  0  0  0
    2.9313   -0.9601    2.2678 O   0  0  0  0  0  0  0  0  0  0  0  0
    0.4079   -1.9758    3.2302 C   0  0  0  0  0  0  0  0  0  0  0  0
   -0.9637   -1.9555    3.9170 C   0  0  0  0  0  0  0  0  0  0  0  0
   -1.6219   -0.8923    3.7240 O   0  5  0  0  0  0  0  0  0  0  0  0
   -1.2734   -2.9754    4.5913 O   0  0  0  0  0  0  0  0  0  0  0  0
   -0.0113   -2.6869    0.5854 H   0  0  0  0  0  0  0  0  0  0  0  0
    0.1636   -0.1382    2.0876 H   0  0  0  0  0  0  0  0  0  0  0  0
    1.1556   -1.6366    3.9601 H   0  0  0  0  0  0  0  0  0  0  0  0
    0.6337   -3.0298    3.0216 H   0  0  0  0  0  0  0  0  0  0  0  0
    2.1139   -1.2846    0.1200 N   0  0  0  0  0  0  0  0  0  0  0  0
    3.3914   -1.3050   -0.5536 C   0  0  2  0  0  0  0  0  0  0  0  0
    3.1905   -0.7555   -1.9597 C   0  0  0  0  0  0  0  0  0  0  0  0
    2.1009   -0.7510   -2.5288 O   0  0  0  0  0  0  0  0  0  0  0  0
    3.9718   -2.7100   -0.5969 C   0  0  0  0  0  0  0  0  0  0  0  0
    1.2815   -1.4442   -0.4399 H   0  0  0  0  0  0  0  0  0  0  0  0
    4.0557   -0.6391    0.0079 H   0  0  0  0  0  0  0  0  0  0  0  0
    3.3199   -3.3916   -1.1555 H   0  0  0  0  0  0  0  0  0  0  0  0
    4.9532   -2.7191   -1.0825 H   0  0  0  0  0  0  0  0  0  0  0  0
    4.0878   -3.1151    0.4142 H   0  0  0  0  0  0  0  0  0  0  0  0
    4.3792   -0.3102   -2.5209 N   0  0  0  0  0  0  0  0  0  0  0  0
    4.4532    0.2440   -3.8526 C   0  0  0  0  0  0  0  0  0  0  0  0
    5.2319   -0.3344   -1.9695 H   0  0  0  0  0  0  0  0  0  0  0  0
    4.6906   -0.5552   -4.5702 H   0  0  0  0  0  0  0  0  0  0  0  0
    3.4860    0.6971   -4.1153 H   0  0  0  0  0  0  0  0  0  0  0  0
    5.2395    1.0125   -3.8865 H   0  0  0  0  0  0  0  0  0  0  0  0
  1  3  1  0  0  0  0
  1  7  1  0  0  0  0
  1  2  2  0  0  0  0
 30 31  1  0  0  0  0
 31 39  1  0  0  0  0
 31 32  2  0  0  0  0
  8  9  1  0  0  0  0
  9 17  1  0  0  0  0
  9 10  2  0  0  0  0
 18 19  1  0  0  0  0
 19 29  1  0  0  0  0
 19 20  2  0  0  0  0
 21 22  1  0  0  0  0
 22 23  1  0  0  0  0
 22 24  2  0  0  0  0
 30 33  1  0  0  0  0
  8 11  1  0  0  0  0
 39 40  1  0  0  0  0
 18 21  1  0  0  0  0
 29 30  1  0  0  0  0
  7  8  1  0  0  0  0
 17 18  1  0  0  0  0
  3  4  1  0  0  0  0
  3  5  1  0  0  0  0
  3  6  1  0  0  0  0
 33 36  1  0  0  0  0
 33 37  1  0  0  0  0
 33 38  1  0  0  0  0
 11 14  1  0  0  0  0
 11 15  1  0  0  0  0
 11 16  1  0  0  0  0
 40 42  1  0  0  0  0
 40 43  1  0  0  0  0
 40 44  1  0  0  0  0
 21 27  1  0  0  0  0
 21 28  1  0  0  0  0
 30 35  1  0  0  0  0
  8 13  1  0  0  0  0
 18 26  1  0  0  0  0
 39 41  1  0  0  0  0
  7 12  1  0  0  0  0
 29 34  1  0  0  0  0
 17 25  1  0  0  0  0
M  CHG  1  23  -1
M  END
$$$$

  -OEChem-05262214473D

 44 43  0     1  0  0  0  0  0999 V2000
   -4.0256   -1.8030   -2.1581 C   0  0  0  0  0  0  0  0  0  0  0  0
   -3.7513   -2.6782   -2.9709 O   0  0  0  0  0  0  0  0  0  0  0  0
   -5.3491   -1.1169   -2.2339 C   0  0  0  0  0  0  0  0  0  0  0  0
   -5.3223   -0.2211   -2.8750 H   0  0  0  0  0  0  0  0  0  0  0  0
   -6.1322   -1.7605   -2.6658 H   0  0  0  0  0  0  0  0  0  0  0  0
   -5.7568   -0.7715   -1.2704 H   0  0  0  0  0  0  0  0  0  0  0  0
   -3.2124   -1.3578   -1.1289 N   0  0  0  0  0  0  0  0  0  0  0  0
   -1.8971   -1.8843   -0.8752 C   0  0  2  0  0  0  0  0  0  0  0  0
   -1.2676   -1.0599    0.2399 C   0  0  0  0  0  0  0  0  0  0  0  0
   -1.6270    0.0833    0.5138 O   0  0  0  0  0  0  0  0  0  0  0  0
   -1.0364   -1.8506   -2.1285 C   0  0  0  0  0  0  0  0  0  0  0  0
   -3.5631   -0.6202   -0.5206 H   0  0  0  0  0  0  0  0  0  0  0  0
   -2.0301   -2.9174   -0.5360 H   0  0  0  0  0  0  0  0  0  0  0  0
   -0.8921   -0.8236   -2.4833 H   0  0  0  0  0  0  0  0  0  0  0  0
   -0.0457   -2.2777   -1.9410 H   0  0  0  0  0  0  0  0  0  0  0  0
   -1.5052   -2.4193   -2.9387 H   0  0  0  0  0  0  0  0  0  0  0  0
   -0.2267   -1.7335    0.8672 N   0  0  0  0  0  0  0  0  0  0  0  0
    0.5363   -1.1590    1.9465 C   0  0  2  0  0  0  0  0  0  0  0  0
    1.9898   -1.1033    1.4904 C   0  0  0  0  0  0  0  0  0  0  0  0
    2.9394   -1.2289    2.2609 O   0  0  0  0  0  0  0  0  0  0  0  0
    0.4079   -1.9758    3.2302 C   0  0  0  0  0  0  0  0  0  0  0  0
   -0.9637   -1.9555    3.9170 C   0  0  0  0  0  0  0  0  0  0  0  0
   -1.6219   -0.8923    3.7240 O   0  5  0  0  0  0  0  0  0  0  0  0
   -1.2734   -2.9754    4.5913 O   0  0  0  0  0  0  0  0  0  0  0  0
   -0.0113   -2.6869    0.5854 H   0  0  0  0  0  0  0  0  0  0  0  0
    0.1636   -0.1382    2.0876 H   0  0  0  0  0  0  0  0  0  0  0  0
    1.1556   -1.6366    3.9601 H   0  0  0  0  0  0  0  0  0  0  0  0
    0.6337   -3.0298    3.0216 H   0  0  0  0  0  0  0  0  0  0  0  0
    2.0996   -0.9492    0.1155 N   0  0  0  0  0  0  0  0  0  0  0  0
    3.3718   -0.8998   -0.5668 C   0  0  2  0  0  0  0  0  0  0  0  0
    3.2150   -0.0062   -1.7900 C   0  0  0  0  0  0  0  0  0  0  0  0
    2.1293    0.2219   -2.3195 O   0  0  0  0  0  0  0  0  0  0  0  0
    3.8399   -2.2906   -0.9661 C   0  0  0  0  0  0  0  0  0  0  0  0
    1.2574   -0.9015   -0.4505 H   0  0  0  0  0  0  0  0  0  0  0  0
    4.0862   -0.4460    0.1286 H   0  0  0  0  0  0  0  0  0  0  0  0
    3.1366   -2.7612   -1.6627 H   0  0  0  0  0  0  0  0  0  0  0  0
    4.8176   -2.2542   -1.4577 H   0  0  0  0  0  0  0  0  0  0  0  0
    3.9234   -2.9406   -0.0884 H   0  0  0  0  0  0  0  0  0  0  0  0
    4.4352    0.4720   -2.2468 N   0  0  0  0  0  0  0  0  0  0  0  0
    4.5530    1.3308   -3.4020 C   0  0  0  0  0  0  0  0  0  0  0  0
    5.2832    0.2474   -1.7348 H   0  0  0  0  0  0  0  0  0  0  0  0
    4.7269    0.7181   -4.2989 H   0  0  0  0  0  0  0  0  0  0  0  0
    3.6244    1.9073   -3.5264 H   0  0  0  0  0  0  0  0  0  0  0  0
    5.3972    2.0216   -3.2607 H   0  0  0  0  0  0  0  0  0  0  0  0
  1  3  1  0  0  0  0
  1  7  1  0  0  0  0
  1  2  2  0  0  0  0
 30 31  1  0  0  0  0
 31 39  1  0  0  0  0
 31 32  2  0  0  0  0
  8  9  1  0  0  0  0
  9 17  1  0  0  0  0
  9 10  2  0  0  0  0
 18 19  1  0  0  0  0
 19 29  1  0  0  0  0
 19 20  2  0  0  0  0
 21 22  1  0  0  0  0
 22 23  1  0  0  0  0
 22 24  2  0  0  0  0
 30 33  1  0  0  0  0
  8 11  1  0  0  0  0
 39 40  1  0  0  0  0
 18 21  1  0  0  0  0
 29 30  1  0  0  0  0
  7  8  1  0  0  0  0
 17 18  1  0  0  0  0
  3  4  1  0  0  0  0
  3  5  1  0  0  0  0
  3  6  1  0  0  0  0
 33 36  1  0  0  0  0
 33 37  1  0  0  0  0
 33 38  1  0  0  0  0
 11 14  1  0  0  0  0
 11 15  1  0  0  0  0
 11 16  1  0  0  0  0
 40 42  1  0  0  0  0
 40 43  1  0  0  0  0
 40 44  1  0  0  0  0
 21 27  1  0  0  0  0
 21 28  1  0  0  0  0
 30 35  1  0  0  0  0
  8 13  1  0  0  0  0
 18 26  1  0  0  0  0
 39 41  1  0  0  0  0
  7 12  1  0  0  0  0
 29 34  1  0  0  0  0
 17 25  1  0  0  0  0
M  CHG  1  23  -1
M  END
$$$$

  -OEChem-05262214473D

 44 43  0     1  0  0  0  0  0999 V2000
   -4.0256   -1.8030   -2.1581 C   0  0  0  0  0  0  0  0  0  0  0  0
   -3.7513   -2.6782   -2.9709 O   0  0  0  0  0  0  0  0  0  0  0  0
   -5.3491   -1.1169   -2.2339 C   0  0  0  0  0  0  0  0  0  0  0  0
   -5.3223   -0.2211   -2.8750 H   0  0  0  0  0  0  0  0  0  0  0  0
   -6.1322   -1.7605   -2.6658 H   0  0  0  0  0  0  0  0  0  0  0  0
   -5.7568   -0.7715   -1.2704 H   0  0  0  0  0  0  0  0  0  0  0  0
   -3.2124   -1.3578   -1.1289 N   0  0  0  0  0  0  0  0  0  0  0  0
   -1.8971   -1.8843   -0.8752 C   0  0  2  0  0  0  0  0  0  0  0  0
   -1.2676   -1.0599    0.2399 C   0  0  0  0  0  0  0  0  0  0  0  0
   -1.6270    0.0833    0.5138 O   0  0  0  0  0  0  0  0  0  0  0  0
   -1.0364   -1.8506   -2.1285 C   0  0  0  0  0  0  0  0  0  0  0  0
   -3.5631   -0.6202   -0.5206 H   0  0  0  0  0  0  0  0  0  0  0  0
   -2.0301   -2.9174   -0.5360 H   0  0  0  0  0  0  0  0  0  0  0  0
   -0.8921   -0.8236   -2.4833 H   0  0  0  0  0  0  0  0  0  0  0  0
   -0.0457   -2.2777   -1.9410 H   0  0  0  0  0  0  0  0  0  0  0  0
   -1.5052   -2.4193   -2.9387 H   0  0  0  0  0  0  0  0  0  0  0  0
   -0.2267   -1.7335    0.8672 N   0  0  0  0  0  0  0  0  0  0  0  0
    0.5363   -1.1590    1.9465 C   0  0  2  0  0  0  0  0  0  0  0  0
    1.9898   -1.1033    1.4904 C   0  0  0  0  0  0  0  0  0  0  0  0
    2.9264   -1.4874    2.1879 O   0  0  0  0  0  0  0  0  0  0  0  0
    0.4079   -1.9758    3.2302 C   0  0  0  0  0  0  0  0  0  0  0  0
   -0.9637   -1.9555    3.9170 C   0  0  0  0  0  0  0  0  0  0  0  0
   -1.6219   -0.8923    3.7240 O   0  5  0  0  0  0  0  0  0  0  0  0
   -1.2734   -2.9754    4.5913 O   0  0  0  0  0  0  0  0  0  0  0  0
   -0.0113   -2.6869    0.5854 H   0  0  0  0  0  0  0  0  0  0  0  0
    0.1636   -0.1382    2.0876 H   0  0  0  0  0  0  0  0  0  0  0  0
    1.1556   -1.6366    3.9601 H   0  0  0  0  0  0  0  0  0  0  0  0
    0.6337   -3.0298    3.0216 H   0  0  0  0  0  0  0  0  0  0  0  0
    2.1117   -0.6230    0.1940 N   0  0  0  0  0  0  0  0  0  0  0  0
    3.3840   -0.5037   -0.4793 C   0  0  2  0  0  0  0  0  0  0  0  0
    3.2984    0.6739   -1.4414 C   0  0  0  0  0  0  0  0  0  0  0  0
    2.2341    1.1078   -1.8774 O   0  0  0  0  0  0  0  0  0  0  0  0
    3.7415   -1.7841   -1.2179 C   0  0  0  0  0  0  0  0  0  0  0  0
    1.2761   -0.3728   -0.3265 H   0  0  0  0  0  0  0  0  0  0  0  0
    4.1318   -0.2916    0.2927 H   0  0  0  0  0  0  0  0  0  0  0  0
    3.0035   -2.0129   -1.9954 H   0  0  0  0  0  0  0  0  0  0  0  0
    4.7192   -1.7020   -1.7040 H   0  0  0  0  0  0  0  0  0  0  0  0
    3.7734   -2.6353   -0.5292 H   0  0  0  0  0  0  0  0  0  0  0  0
    4.5525    1.1556   -1.7896 N   0  0  0  0  0  0  0  0  0  0  0  0
    4.7377    2.2618   -2.6996 C   0  0  0  0  0  0  0  0  0  0  0  0
    5.3801    0.7475   -1.3651 H   0  0  0  0  0  0  0  0  0  0  0  0
    4.8632    1.8783   -3.7229 H   0  0  0  0  0  0  0  0  0  0  0  0
    3.8573    2.9201   -2.6603 H   0  0  0  0  0  0  0  0  0  0  0  0
    5.6336    2.8298   -2.4086 H   0  0  0  0  0  0  0  0  0  0  0  0
  1  3  1  0  0  0  0
  1  7  1  0  0  0  0
  1  2  2  0  0  0  0
 30 31  1  0  0  0  0
 31 39  1  0  0  0  0
 31 32  2  0  0  0  0
  8  9  1  0  0  0  0
  9 17  1  0  0  0  0
  9 10  2  0  0  0  0
 18 19  1  0  0  0  0
 19 29  1  0  0  0  0
 19 20  2  0  0  0  0
 21 22  1  0  0  0  0
 22 23  1  0  0  0  0
 22 24  2  0  0  0  0
 30 33  1  0  0  0  0
  8 11  1  0  0  0  0
 39 40  1  0  0  0  0
 18 21  1  0  0  0  0
 29 30  1  0  0  0  0
  7  8  1  0  0  0  0
 17 18  1  0  0  0  0
  3  4  1  0  0  0  0
  3  5  1  0  0  0  0
  3  6  1  0  0  0  0
 33 36  1  0  0  0  0
 33 37  1  0  0  0  0
 33 38  1  0  0  0  0
 11 14  1  0  0  0  0
 11 15  1  0  0  0  0
 11 16  1  0  0  0  0
 40 42  1  0  0  0  0
 40 43  1  0  0  0  0
 40 44  1  0  0  0  0
 21 27  1  0  0  0  0
 21 28  1  0  0  0  0
 30 35  1  0  0  0  0
  8 13  1  0  0  0  0
 18 26  1  0  0  0  0
 39 41  1  0  0  0  0
  7 12  1  0  0  0  0
 29 34  1  0  0  0  0
 17 25  1  0  0  0  0
M  CHG  1  23  -1
M  END
$$$$

  -OEChem-05262214473D

 44 43  0     1  0  0  0  0  0999 V2000
   -4.0256   -1.8030   -2.1581 C   0  0  0  0  0  0  0  0  0  0  0  0
   -3.7513   -2.6782   -2.9709 O   0  0  0  0  0  0  0  0  0  0  0  0
   -5.3491   -1.1169   -2.2339 C   0  0  0  0  0  0  0  0  0  0  0  0
   -5.3223   -0.2211   -2.8750 H   0  0  0  0  0  0  0  0  0  0  0  0
   -6.1322   -1.7605   -2.6658 H   0  0  0  0  0  0  0  0  0  0  0  0
   -5.7568   -0.7715   -1.2704 H   0  0  0  0  0  0  0  0  0  0  0  0
   -3.2124   -1.3578   -1.1289 N   0  0  0  0  0  0  0  0  0  0  0  0
   -1.8971   -1.8843   -0.8752 C   0  0  2  0  0  0  0  0  0  0  0  0
   -1.2676   -1.0599    0.2399 C   0  0  0  0  0  0  0  0  0  0  0  0
   -1.6270    0.0833    0.5138 O   0  0  0  0  0  0  0  0  0  0  0  0
   -1.0364   -1.8506   -2.1285 C   0  0  0  0  0  0  0  0  0  0  0  0
   -3.5631   -0.6202   -0.5206 H   0  0  0  0  0  0  0  0  0  0  0  0
   -2.0301   -2.9174   -0.5360 H   0  0  0  0  0  0  0  0  0  0  0  0
   -0.8921   -0.8236   -2.4833 H   0  0  0  0  0  0  0  0  0  0  0  0
   -0.0457   -2.2777   -1.9410 H   0  0  0  0  0  0  0  0  0  0  0  0
   -1.5052   -2.4193   -2.9387 H   0  0  0  0  0  0  0  0  0  0  0  0
   -0.2267   -1.7335    0.8672 N   0  0  0  0  0  0  0  0  0  0  0  0
    0.5363   -1.1590    1.9465 C   0  0  2  0  0  0  0  0  0  0  0  0
    1.9898   -1.1033    1.4904 C   0  0  0  0  0  0  0  0  0  0  0  0
    2.8931   -1.7181    2.0536 O   0  0  0  0  0  0  0  0  0  0  0  0
    0.4079   -1.9758    3.2302 C   0  0  0  0  0  0  0  0  0  0  0  0
   -0.9637   -1.9555    3.9170 C   0  0  0  0  0  0  0  0  0  0  0  0
   -1.6219   -0.8923    3.7240 O   0  5  0  0  0  0  0  0  0  0  0  0
   -1.2734   -2.9754    4.5913 O   0  0  0  0  0  0  0  0  0  0  0  0
   -0.0113   -2.6869    0.5854 H   0  0  0  0  0  0  0  0  0  0  0  0
    0.1636   -0.1382    2.0876 H   0  0  0  0  0  0  0  0  0  0  0  0
    1.1556   -1.6366    3.9601 H   0  0  0  0  0  0  0  0  0  0  0  0
    0.6337   -3.0298    3.0216 H   0  0  0  0  0  0  0  0  0  0  0  0
    2.1495   -0.3282    0.3502 N   0  0  0  0  0  0  0  0  0  0  0  0
    3.4274   -0.1435   -0.2972 C   0  0  2  0  0  0  0  0  0  0  0  0
    3.4348    1.2382   -0.9376 C   0  0  0  0  0  0  0  0  0  0  0  0
    2.4080    1.8463   -1.2327 O   0  0  0  0  0  0  0  0  0  0  0  0
    3.6832   -1.2251   -1.3352 C   0  0  0  0  0  0  0  0  0  0  0  0
    1.3362    0.1058   -0.0764 H   0  0  0  0  0  0  0  0  0  0  0  0
    4.1893   -0.1865    0.4888 H   0  0  0  0  0  0  0  0  0  0  0  0
    2.9298   -1.1977   -2.1309 H   0  0  0  0  0  0  0  0  0  0  0  0
    4.6645   -1.1002   -1.8048 H   0  0  0  0  0  0  0  0  0  0  0  0
    3.6480   -2.2200   -0.8782 H   0  0  0  0  0  0  0  0  0  0  0  0
    4.7230    1.6940   -1.1803 N   0  0  0  0  0  0  0  0  0  0  0  0
    4.9948    2.9733   -1.7931 C   0  0  0  0  0  0  0  0  0  0  0  0
    5.5159    1.1318   -0.8854 H   0  0  0  0  0  0  0  0  0  0  0  0
    5.0901    2.8463   -2.8816 H   0  0  0  0  0  0  0  0  0  0  0  0
    4.1690    3.6667   -1.5759 H   0  0  0  0  0  0  0  0  0  0  0  0
    5.9326    3.3818   -1.3884 H   0  0  0  0  0  0  0  0  0  0  0  0
  1  3  1  0  0  0  0
  1  7  1  0  0  0  0
  1  2  2  0  0  0  0
 30 31  1  0  0  0  0
 31 39  1  0  0  0  0
 31 32  2  0  0  0  0
  8  9  1  0  0  0  0
  9 17  1  0  0  0  0
  9 10  2  0  0  0  0
 18 19  1  0  0  0  0
 19 29  1  0  0  0  0
 19 20  2  0  0  0  0
 21 22  1  0  0  0  0
 22 23  1  0  0  0  0
 22 24  2  0  0  0  0
 30 33  1  0  0  0  0
  8 11  1  0  0  0  0
 39 40  1  0  0  0  0
 18 21  1  0  0  0  0
 29 30  1  0  0  0  0
  7  8  1  0  0  0  0
 17 18  1  0  0  0  0
  3  4  1  0  0  0  0
  3  5  1  0  0  0  0
  3  6  1  0  0  0  0
 33 36  1  0  0  0  0
 33 37  1  0  0  0  0
 33 38  1  0  0  0  0
 11 14  1  0  0  0  0
 11 15  1  0  0  0  0
 11 16  1  0  0  0  0
 40 42  1  0  0  0  0
 40 43  1  0  0  0  0
 40 44  1  0  0  0  0
 21 27  1  0  0  0  0
 21 28  1  0  0  0  0
 30 35  1  0  0  0  0
  8 13  1  0  0  0  0
 18 26  1  0  0  0  0
 39 41  1  0  0  0  0
  7 12  1  0  0  0  0
 29 34  1  0  0  0  0
 17 25  1  0  0  0  0
M  CHG  1  23  -1
M  END
$$$$

  -OEChem-05262214473D

 44 43  0     1  0  0  0  0  0999 V2000
   -4.0256   -1.8030   -2.1581 C   0  0  0  0  0  0  0  0  0  0  0  0
   -3.7513   -2.6782   -2.9709 O   0  0  0  0  0  0  0  0  0  0  0  0
   -5.3491   -1.1169   -2.2339 C   0  0  0  0  0  0  0  0  0  0  0  0
   -5.3223   -0.2211   -2.8750 H   0  0  0  0  0  0  0  0  0  0  0  0
   -6.1322   -1.7605   -2.6658 H   0  0  0  0  0  0  0  0  0  0  0  0
   -5.7568   -0.7715   -1.2704 H   0  0  0  0  0  0  0  0  0  0  0  0
   -3.2124   -1.3578   -1.1289 N   0  0  0  0  0  0  0  0  0  0  0  0
   -1.8971   -1.8843   -0.8752 C   0  0  2  0  0  0  0  0  0  0  0  0
   -1.2676   -1.0599    0.2399 C   0  0  0  0  0  0  0  0  0  0  0  0
   -1.6270    0.0833    0.5138 O   0  0  0  0  0  0  0  0  0  0  0  0
   -1.0364   -1.8506   -2.1285 C   0  0  0  0  0  0  0  0  0  0  0  0
   -3.5631   -0.6202   -0.5206 H   0  0  0  0  0  0  0  0  0  0  0  0
   -2.0301   -2.9174   -0.5360 H   0  0  0  0  0  0  0  0  0  0  0  0
   -0.8921   -0.8236   -2.4833 H   0  0  0  0  0  0  0  0  0  0  0  0
   -0.0457   -2.2777   -1.9410 H   0  0  0  0  0  0  0  0  0  0  0  0
   -1.5052   -2.4193   -2.9387 H   0  0  0  0  0  0  0  0  0  0  0  0
   -0.2267   -1.7335    0.8672 N   0  0  0  0  0  0  0  0  0  0  0  0
    0.5363   -1.1590    1.9465 C   0  0  2  0  0  0  0  0  0  0  0  0
    1.9898   -1.1033    1.4904 C   0  0  0  0  0  0  0  0  0  0  0  0
    2.8419   -1.9053    1.8673 O   0  0  0  0  0  0  0  0  0  0  0  0
    0.4079   -1.9758    3.2302 C   0  0  0  0  0  0  0  0  0  0  0  0
   -0.9637   -1.9555    3.9170 C   0  0  0  0  0  0  0  0  0  0  0  0
   -1.6219   -0.8923    3.7240 O   0  5  0  0  0  0  0  0  0  0  0  0
   -1.2734   -2.9754    4.5913 O   0  0  0  0  0  0  0  0  0  0  0  0
   -0.0113   -2.6869    0.5854 H   0  0  0  0  0  0  0  0  0  0  0  0
    0.1636   -0.1382    2.0876 H   0  0  0  0  0  0  0  0  0  0  0  0
    1.1556   -1.6366    3.9601 H   0  0  0  0  0  0  0  0  0  0  0  0
    0.6337   -3.0298    3.0216 H   0  0  0  0  0  0  0  0  0  0  0  0
    2.2102   -0.0850    0.5736 N   0  0  0  0  0  0  0  0  0  0  0  0
    3.4989    0.1560   -0.0328 C   0  0  2  0  0  0  0  0  0  0  0  0
    3.6151    1.6485   -0.3130 C   0  0  0  0  0  0  0  0  0  0  0  0
    2.6394    2.3871   -0.4295 O   0  0  0  0  0  0  0  0  0  0  0  0
    3.6692   -0.6517   -1.3100 C   0  0  0  0  0  0  0  0  0  0  0  0
    1.4337    0.5018    0.2827 H   0  0  0  0  0  0  0  0  0  0  0  0
    4.2548   -0.1379    0.7036 H   0  0  0  0  0  0  0  0  0  0  0  0
    2.9204   -0.3711   -2.0598 H   0  0  0  0  0  0  0  0  0  0  0  0
    4.6573   -0.4898   -1.7531 H   0  0  0  0  0  0  0  0  0  0  0  0
    3.5557   -1.7230   -1.1117 H   0  0  0  0  0  0  0  0  0  0  0  0
    4.9352    2.0506   -0.4606 N   0  0  0  0  0  0  0  0  0  0  0  0
    5.3069    3.4170   -0.7443 C   0  0  0  0  0  0  0  0  0  0  0  0
    5.6813    1.3741   -0.3286 H   0  0  0  0  0  0  0  0  0  0  0  0
    5.3921    3.5561   -1.8322 H   0  0  0  0  0  0  0  0  0  0  0  0
    4.5380    4.0961   -0.3472 H   0  0  0  0  0  0  0  0  0  0  0  0
    6.2737    3.6401   -0.2695 H   0  0  0  0  0  0  0  0  0  0  0  0
  1  3  1  0  0  0  0
  1  7  1  0  0  0  0
  1  2  2  0  0  0  0
 30 31  1  0  0  0  0
 31 39  1  0  0  0  0
 31 32  2  0  0  0  0
  8  9  1  0  0  0  0
  9 17  1  0  0  0  0
  9 10  2  0  0  0  0
 18 19  1  0  0  0  0
 19 29  1  0  0  0  0
 19 20  2  0  0  0  0
 21 22  1  0  0  0  0
 22 23  1  0  0  0  0
 22 24  2  0  0  0  0
 30 33  1  0  0  0  0
  8 11  1  0  0  0  0
 39 40  1  0  0  0  0
 18 21  1  0  0  0  0
 29 30  1  0  0  0  0
  7  8  1  0  0  0  0
 17 18  1  0  0  0  0
  3  4  1  0  0  0  0
  3  5  1  0  0  0  0
  3  6  1  0  0  0  0
 33 36  1  0  0  0  0
 33 37  1  0  0  0  0
 33 38  1  0  0  0  0
 11 14  1  0  0  0  0
 11 15  1  0  0  0  0
 11 16  1  0  0  0  0
 40 42  1  0  0  0  0
 40 43  1  0  0  0  0
 40 44  1  0  0  0  0
 21 27  1  0  0  0  0
 21 28  1  0  0  0  0
 30 35  1  0  0  0  0
  8 13  1  0  0  0  0
 18 26  1  0  0  0  0
 39 41  1  0  0  0  0
  7 12  1  0  0  0  0
 29 34  1  0  0  0  0
 17 25  1  0  0  0  0
M  CHG  1  23  -1
M  END
$$$$

  -OEChem-05262214473D

 44 43  0     1  0  0  0  0  0999 V2000
   -4.0256   -1.8030   -2.1581 C   0  0  0  0  0  0  0  0  0  0  0  0
   -3.7513   -2.6782   -2.9709 O   0  0  0  0  0  0  0  0  0  0  0  0
   -5.3491   -1.1169   -2.2339 C   0  0  0  0  0  0  0  0  0  0  0  0
   -5.3223   -0.2211   -2.8750 H   0  0  0  0  0  0  0  0  0  0  0  0
   -6.1322   -1.7605   -2.6658 H   0  0  0  0  0  0  0  0  0  0  0  0
   -5.7568   -0.7715   -1.2704 H   0  0  0  0  0  0  0  0  0  0  0  0
   -3.2124   -1.3578   -1.1289 N   0  0  0  0  0  0  0  0  0  0  0  0
   -1.8971   -1.8843   -0.8752 C   0  0  2  0  0  0  0  0  0  0  0  0
   -1.2676   -1.0599    0.2399 C   0  0  0  0  0  0  0  0  0  0  0  0
   -1.6270    0.0833    0.5138 O   0  0  0  0  0  0  0  0  0  0  0  0
   -1.0364   -1.8506   -2.1285 C   0  0  0  0  0  0  0  0  0  0  0  0
   -3.5631   -0.6202   -0.5206 H   0  0  0  0  0  0  0  0  0  0  0  0
   -2.0301   -2.9174   -0.5360 H   0  0  0  0  0  0  0  0  0  0  0  0
   -0.8921   -0.8236   -2.4833 H   0  0  0  0  0  0  0  0  0  0  0  0
   -0.0457   -2.2777   -1.9410 H   0  0  0  0  0  0  0  0  0  0  0  0
   -1.5052   -2.4193   -2.9387 H   0  0  0  0  0  0  0  0  0  0  0  0
   -0.2267   -1.7335    0.8672 N   0  0  0  0  0  0  0  0  0  0  0  0
    0.5363   -1.1590    1.9465 C   0  0  2  0  0  0  0  0  0  0  0  0
    1.9898   -1.1033    1.4904 C   0  0  0  0  0  0  0  0  0  0  0  0
    2.7761   -2.0361    1.6417 O   0  0  0  0  0  0  0  0  0  0  0  0
    0.4079   -1.9758    3.2302 C   0  0  0  0  0  0  0  0  0  0  0  0
   -0.9637   -1.9555    3.9170 C   0  0  0  0  0  0  0  0  0  0  0  0
   -1.6219   -0.8923    3.7240 O   0  5  0  0  0  0  0  0  0  0  0  0
   -1.2734   -2.9754    4.5913 O   0  0  0  0  0  0  0  0  0  0  0  0
   -0.0113   -2.6869    0.5854 H   0  0  0  0  0  0  0  0  0  0  0  0
    0.1636   -0.1382    2.0876 H   0  0  0  0  0  0  0  0  0  0  0  0
    1.1556   -1.6366    3.9601 H   0  0  0  0  0  0  0  0  0  0  0  0
    0.6337   -3.0298    3.0216 H   0  0  0  0  0  0  0  0  0  0  0  0
    2.2898    0.0902    0.8487 N   0  0  0  0  0  0  0  0  0  0  0  0
    3.5936    0.3746    0.2958 C   0  0  2  0  0  0  0  0  0  0  0  0
    3.8269    1.8767    0.3898 C   0  0  0  0  0  0  0  0  0  0  0  0
    2.9123    2.6933    0.4777 O   0  0  0  0  0  0  0  0  0  0  0  0
    3.7002   -0.1030   -1.1441 C   0  0  0  0  0  0  0  0  0  0  0  0
    1.5619    0.7880    0.7263 H   0  0  0  0  0  0  0  0  0  0  0  0
    4.3239   -0.1489    0.9225 H   0  0  0  0  0  0  0  0  0  0  0  0
    2.9761    0.4104   -1.7871 H   0  0  0  0  0  0  0  0  0  0  0  0
    4.6982    0.0876   -1.5524 H   0  0  0  0  0  0  0  0  0  0  0  0
    3.5028   -1.1781   -1.2137 H   0  0  0  0  0  0  0  0  0  0  0  0
    5.1745    2.2009    0.3206 N   0  0  0  0  0  0  0  0  0  0  0  0
    5.6526    3.5626    0.3753 C   0  0  0  0  0  0  0  0  0  0  0  0
    5.8651    1.4579    0.2675 H   0  0  0  0  0  0  0  0  0  0  0  0
    5.7488    3.9593   -0.6462 H   0  0  0  0  0  0  0  0  0  0  0  0
    4.9394    4.1790    0.9422 H   0  0  0  0  0  0  0  0  0  0  0  0
    6.6339    3.5870    0.8718 H   0  0  0  0  0  0  0  0  0  0  0  0
  1  3  1  0  0  0  0
  1  7  1  0  0  0  0
  1  2  2  0  0  0  0
 30 31  1  0  0  0  0
 31 39  1  0  0  0  0
 31 32  2  0  0  0  0
  8  9  1  0  0  0  0
  9 17  1  0  0  0  0
  9 10  2  0  0  0  0
 18 19  1  0  0  0  0
 19 29  1  0  0  0  0
 19 20  2  0  0  0  0
 21 22  1  0  0  0  0
 22 23  1  0  0  0  0
 22 24  2  0  0  0  0
 30 33  1  0  0  0  0
  8 11  1  0  0  0  0
 39 40  1  0  0  0  0
 18 21  1  0  0  0  0
 29 30  1  0  0  0  0
  7  8  1  0  0  0  0
 17 18  1  0  0  0  0
  3  4  1  0  0  0  0
  3  5  1  0  0  0  0
  3  6  1  0  0  0  0
 33 36  1  0  0  0  0
 33 37  1  0  0  0  0
 33 38  1  0  0  0  0
 11 14  1  0  0  0  0
 11 15  1  0  0  0  0
 11 16  1  0  0  0  0
 40 42  1  0  0  0  0
 40 43  1  0  0  0  0
 40 44  1  0  0  0  0
 21 27  1  0  0  0  0
 21 28  1  0  0  0  0
 30 35  1  0  0  0  0
  8 13  1  0  0  0  0
 18 26  1  0  0  0  0
 39 41  1  0  0  0  0
  7 12  1  0  0  0  0
 29 34  1  0  0  0  0
 17 25  1  0  0  0  0
M  CHG  1  23  -1
M  END
$$$$

  -OEChem-05262214473D

 44 43  0     1  0  0  0  0  0999 V2000
   -4.0256   -1.8030   -2.1581 C   0  0  0  0  0  0  0  0  0  0  0  0
   -3.7513   -2.6782   -2.9709 O   0  0  0  0  0  0  0  0  0  0  0  0
   -5.3491   -1.1169   -2.2339 C   0  0  0  0  0  0  0  0  0  0  0  0
   -5.3223   -0.2211   -2.8750 H   0  0  0  0  0  0  0  0  0  0  0  0
   -6.1322   -1.7605   -2.6658 H   0  0  0  0  0  0  0  0  0  0  0  0
   -5.7568   -0.7715   -1.2704 H   0  0  0  0  0  0  0  0  0  0  0  0
   -3.2124   -1.3578   -1.1289 N   0  0  0  0  0  0  0  0  0  0  0  0
   -1.8971   -1.8843   -0.8752 C   0  0  2  0  0  0  0  0  0  0  0  0
   -1.2676   -1.0599    0.2399 C   0  0  0  0  0  0  0  0  0  0  0  0
   -1.6270    0.0833    0.5138 O   0  0  0  0  0  0  0  0  0  0  0  0
   -1.0364   -1.8506   -2.1285 C   0  0  0  0  0  0  0  0  0  0  0  0
   -3.5631   -0.6202   -0.5206 H   0  0  0  0  0  0  0  0  0  0  0  0
   -2.0301   -2.9174   -0.5360 H   0  0  0  0  0  0  0  0  0  0  0  0
   -0.8921   -0.8236   -2.4833 H   0  0  0  0  0  0  0  0  0  0  0  0
   -0.0457   -2.2777   -1.9410 H   0  0  0  0  0  0  0  0  0  0  0  0
   -1.5052   -2.4193   -2.9387 H   0  0  0  0  0  0  0  0  0  0  0  0
   -0.2267   -1.7335    0.8672 N   0  0  0  0  0  0  0  0  0  0  0  0
    0.5363   -1.1590    1.9465 C   0  0  2  0  0  0  0  0  0  0  0  0
    1.9898   -1.1033    1.4904 C   0  0  0  0  0  0  0  0  0  0  0  0
    2.7003   -2.1017    1.3920 O   0  0  0  0  0  0  0  0  0  0  0  0
    0.4079   -1.9758    3.2302 C   0  0  0  0  0  0  0  0  0  0  0  0
   -0.9637   -1.9555    3.9170 C   0  0  0  0  0  0  0  0  0  0  0  0
   -1.6219   -0.8923    3.7240 O   0  5  0  0  0  0  0  0  0  0  0  0
   -1.2734   -2.9754    4.5913 O   0  0  0  0  0  0  0  0  0  0  0  0
   -0.0113   -2.6869    0.5854 H   0  0  0  0  0  0  0  0  0  0  0  0
    0.1636   -0.1382    2.0876 H   0  0  0  0  0  0  0  0  0  0  0  0
    1.1556   -1.6366    3.9601 H   0  0  0  0  0  0  0  0  0  0  0  0
    0.6337   -3.0298    3.0216 H   0  0  0  0  0  0  0  0  0  0  0  0
    2.3829    0.1853    1.1570 N   0  0  0  0  0  0  0  0  0  0  0  0
    3.7051    0.4972    0.6663 C   0  0  2  0  0  0  0  0  0  0  0  0
    4.0557    1.9072    1.1231 C   0  0  0  0  0  0  0  0  0  0  0  0
    3.2082    2.7441    1.4270 O   0  0  0  0  0  0  0  0  0  0  0  0
    3.7743    0.3837   -0.8486 C   0  0  0  0  0  0  0  0  0  0  0  0
    1.7122    0.9451    1.2243 H   0  0  0  0  0  0  0  0  0  0  0  0
    4.3919   -0.2190    1.1305 H   0  0  0  0  0  0  0  0  0  0  0  0
    3.0929    1.0938   -1.3313 H   0  0  0  0  0  0  0  0  0  0  0  0
    4.7842    0.5926   -1.2165 H   0  0  0  0  0  0  0  0  0  0  0  0
    3.4930   -0.6226   -1.1773 H   0  0  0  0  0  0  0  0  0  0  0  0
    5.4248    2.1347    1.1100 N   0  0  0  0  0  0  0  0  0  0  0  0
    6.0084    3.4002    1.4894 C   0  0  0  0  0  0  0  0  0  0  0  0
    6.0548    1.3775    0.8622 H   0  0  0  0  0  0  0  0  0  0  0  0
    6.1357    4.0285    0.5955 H   0  0  0  0  0  0  0  0  0  0  0  0
    5.3457    3.9099    2.2042 H   0  0  0  0  0  0  0  0  0  0  0  0
    6.9884    3.2262    1.9577 H   0  0  0  0  0  0  0  0  0  0  0  0
  1  3  1  0  0  0  0
  1  7  1  0  0  0  0
  1  2  2  0  0  0  0
 30 31  1  0  0  0  0
 31 39  1  0  0  0  0
 31 32  2  0  0  0  0
  8  9  1  0  0  0  0
  9 17  1  0  0  0  0
  9 10  2  0  0  0  0
 18 19  1  0  0  0  0
 19 29  1  0  0  0  0
 19 20  2  0  0  0  0
 21 22  1  0  0  0  0
 22 23  1  0  0  0  0
 22 24  2  0  0  0  0
 30 33  1  0  0  0  0
  8 11  1  0  0  0  0
 39 40  1  0  0  0  0
 18 21  1  0  0  0  0
 29 30  1  0  0  0  0
  7  8  1  0  0  0  0
 17 18  1  0  0  0  0
  3  4  1  0  0  0  0
  3  5  1  0  0  0  0
  3  6  1  0  0  0  0
 33 36  1  0  0  0  0
 33 37  1  0  0  0  0
 33 38  1  0  0  0  0
 11 14  1  0  0  0  0
 11 15  1  0  0  0  0
 11 16  1  0  0  0  0
 40 42  1  0  0  0  0
 40 43  1  0  0  0  0
 40 44  1  0  0  0  0
 21 27  1  0  0  0  0
 21 28  1  0  0  0  0
 30 35  1  0  0  0  0
  8 13  1  0  0  0  0
 18 26  1  0  0  0  0
 39 41  1  0  0  0  0
  7 12  1  0  0  0  0
 29 34  1  0  0  0  0
 17 25  1  0  0  0  0
M  CHG  1  23  -1
M  END
$$$$

  -OEChem-05262214473D

 44 43  0     1  0  0  0  0  0999 V2000
   -4.0256   -1.8030   -2.1581 C   0  0  0  0  0  0  0  0  0  0  0  0
   -3.7513   -2.6782   -2.9709 O   0  0  0  0  0  0  0  0  0  0  0  0
   -5.3491   -1.1169   -2.2339 C   0  0  0  0  0  0  0  0  0  0  0  0
   -5.3223   -0.2211   -2.8750 H   0  0  0  0  0  0  0  0  0  0  0  0
   -6.1322   -1.7605   -2.6658 H   0  0  0  0  0  0  0  0  0  0  0  0
   -5.7568   -0.7715   -1.2704 H   0  0  0  0  0  0  0  0  0  0  0  0
   -3.2124   -1.3578   -1.1289 N   0  0  0  0  0  0  0  0  0  0  0  0
   -1.8971   -1.8843   -0.8752 C   0  0  2  0  0  0  0  0  0  0  0  0
   -1.2676   -1.0599    0.2399 C   0  0  0  0  0  0  0  0  0  0  0  0
   -1.6270    0.0833    0.5138 O   0  0  0  0  0  0  0  0  0  0  0  0
   -1.0364   -1.8506   -2.1285 C   0  0  0  0  0  0  0  0  0  0  0  0
   -3.5631   -0.6202   -0.5206 H   0  0  0  0  0  0  0  0  0  0  0  0
   -2.0301   -2.9174   -0.5360 H   0  0  0  0  0  0  0  0  0  0  0  0
   -0.8921   -0.8236   -2.4833 H   0  0  0  0  0  0  0  0  0  0  0  0
   -0.0457   -2.2777   -1.9410 H   0  0  0  0  0  0  0  0  0  0  0  0
   -1.5052   -2.4193   -2.9387 H   0  0  0  0  0  0  0  0  0  0  0  0
   -0.2267   -1.7335    0.8672 N   0  0  0  0  0  0  0  0  0  0  0  0
    0.5363   -1.1590    1.9465 C   0  0  2  0  0  0  0  0  0  0  0  0
    1.9898   -1.1033    1.4904 C   0  0  0  0  0  0  0  0  0  0  0  0
    2.6196   -2.0976    1.1355 O   0  0  0  0  0  0  0  0  0  0  0  0
    0.4079   -1.9758    3.2302 C   0  0  0  0  0  0  0  0  0  0  0  0
   -0.9637   -1.9555    3.9170 C   0  0  0  0  0  0  0  0  0  0  0  0
   -1.6219   -0.8923    3.7240 O   0  5  0  0  0  0  0  0  0  0  0  0
   -1.2734   -2.9754    4.5913 O   0  0  0  0  0  0  0  0  0  0  0  0
   -0.0113   -2.6869    0.5854 H   0  0  0  0  0  0  0  0  0  0  0  0
    0.1636   -0.1382    2.0876 H   0  0  0  0  0  0  0  0  0  0  0  0
    1.1556   -1.6366    3.9601 H   0  0  0  0  0  0  0  0  0  0  0  0
    0.6337   -3.0298    3.0216 H   0  0  0  0  0  0  0  0  0  0  0  0
    2.4831    0.1939    1.4773 N   0  0  0  0  0  0  0  0  0  0  0  0
    3.8259    0.5157    1.0534 C   0  0  2  0  0  0  0  0  0  0  0  0
    4.2861    1.7380    1.8367 C   0  0  0  0  0  0  0  0  0  0  0  0
    3.5069    2.5359    2.3536 O   0  0  0  0  0  0  0  0  0  0  0  0
    3.8863    0.7752   -0.4439 C   0  0  0  0  0  0  0  0  0  0  0  0
    1.8741    0.9624    1.7426 H   0  0  0  0  0  0  0  0  0  0  0  0
    4.4540   -0.3433    1.3135 H   0  0  0  0  0  0  0  0  0  0  0  0
    3.2629    1.6323   -0.7235 H   0  0  0  0  0  0  0  0  0  0  0  0
    4.9096    0.9909   -0.7682 H   0  0  0  0  0  0  0  0  0  0  0  0
    3.5268   -0.0943   -1.0049 H   0  0  0  0  0  0  0  0  0  0  0  0
    5.6688    1.8567    1.8538 N   0  0  0  0  0  0  0  0  0  0  0  0
    6.3500    2.9408    2.5220 C   0  0  0  0  0  0  0  0  0  0  0  0
    6.2374    1.1384    1.4151 H   0  0  0  0  0  0  0  0  0  0  0  0
    6.5266    3.7590    1.8083 H   0  0  0  0  0  0  0  0  0  0  0  0
    5.7293    3.3070    3.3531 H   0  0  0  0  0  0  0  0  0  0  0  0
    7.3132    2.5823    2.9142 H   0  0  0  0  0  0  0  0  0  0  0  0
  1  3  1  0  0  0  0
  1  7  1  0  0  0  0
  1  2  2  0  0  0  0
 30 31  1  0  0  0  0
 31 39  1  0  0  0  0
 31 32  2  0  0  0  0
  8  9  1  0  0  0  0
  9 17  1  0  0  0  0
  9 10  2  0  0  0  0
 18 19  1  0  0  0  0
 19 29  1  0  0  0  0
 19 20  2  0  0  0  0
 21 22  1  0  0  0  0
 22 23  1  0  0  0  0
 22 24  2  0  0  0  0
 30 33  1  0  0  0  0
  8 11  1  0  0  0  0
 39 40  1  0  0  0  0
 18 21  1  0  0  0  0
 29 30  1  0  0  0  0
  7  8  1  0  0  0  0
 17 18  1  0  0  0  0
  3  4  1  0  0  0  0
  3  5  1  0  0  0  0
  3  6  1  0  0  0  0
 33 36  1  0  0  0  0
 33 37  1  0  0  0  0
 33 38  1  0  0  0  0
 11 14  1  0  0  0  0
 11 15  1  0  0  0  0
 11 16  1  0  0  0  0
 40 42  1  0  0  0  0
 40 43  1  0  0  0  0
 40 44  1  0  0  0  0
 21 27  1  0  0  0  0
 21 28  1  0  0  0  0
 30 35  1  0  0  0  0
  8 13  1  0  0  0  0
 18 26  1  0  0  0  0
 39 41  1  0  0  0  0
  7 12  1  0  0  0  0
 29 34  1  0  0  0  0
 17 25  1  0  0  0  0
M  CHG  1  23  -1
M  END
$$$$

  -OEChem-05262214473D

 44 43  0     1  0  0  0  0  0999 V2000
   -4.0256   -1.8030   -2.1581 C   0  0  0  0  0  0  0  0  0  0  0  0
   -3.7513   -2.6782   -2.9709 O   0  0  0  0  0  0  0  0  0  0  0  0
   -5.3491   -1.1169   -2.2339 C   0  0  0  0  0  0  0  0  0  0  0  0
   -5.3223   -0.2211   -2.8750 H   0  0  0  0  0  0  0  0  0  0  0  0
   -6.1322   -1.7605   -2.6658 H   0  0  0  0  0  0  0  0  0  0  0  0
   -5.7568   -0.7715   -1.2704 H   0  0  0  0  0  0  0  0  0  0  0  0
   -3.2124   -1.3578   -1.1289 N   0  0  0  0  0  0  0  0  0  0  0  0
   -1.8971   -1.8843   -0.8752 C   0  0  2  0  0  0  0  0  0  0  0  0
   -1.2676   -1.0599    0.2399 C   0  0  0  0  0  0  0  0  0  0  0  0
   -1.6270    0.0833    0.5138 O   0  0  0  0  0  0  0  0  0  0  0  0
   -1.0364   -1.8506   -2.1285 C   0  0  0  0  0  0  0  0  0  0  0  0
   -3.5631   -0.6202   -0.5206 H   0  0  0  0  0  0  0  0  0  0  0  0
   -2.0301   -2.9174   -0.5360 H   0  0  0  0  0  0  0  0  0  0  0  0
   -0.8921   -0.8236   -2.4833 H   0  0  0  0  0  0  0  0  0  0  0  0
   -0.0457   -2.2777   -1.9410 H   0  0  0  0  0  0  0  0  0  0  0  0
   -1.5052   -2.4193   -2.9387 H   0  0  0  0  0  0  0  0  0  0  0  0
   -0.2267   -1.7335    0.8672 N   0  0  0  0  0  0  0  0  0  0  0  0
    0.5363   -1.1590    1.9465 C   0  0  2  0  0  0  0  0  0  0  0  0
    1.9898   -1.1033    1.4904 C   0  0  0  0  0  0  0  0  0  0  0  0
    2.5396   -2.0240    0.8894 O   0  0  0  0  0  0  0  0  0  0  0  0
    0.4079   -1.9758    3.2302 C   0  0  0  0  0  0  0  0  0  0  0  0
   -0.9637   -1.9555    3.9170 C   0  0  0  0  0  0  0  0  0  0  0  0
   -1.6219   -0.8923    3.7240 O   0  5  0  0  0  0  0  0  0  0  0  0
   -1.2734   -2.9754    4.5913 O   0  0  0  0  0  0  0  0  0  0  0  0
   -0.0113   -2.6869    0.5854 H   0  0  0  0  0  0  0  0  0  0  0  0
    0.1636   -0.1382    2.0876 H   0  0  0  0  0  0  0  0  0  0  0  0
    1.1556   -1.6366    3.9601 H   0  0  0  0  0  0  0  0  0  0  0  0
    0.6337   -3.0298    3.0216 H   0  0  0  0  0  0  0  0  0  0  0  0
    2.5835    0.1154    1.7879 N   0  0  0  0  0  0  0  0  0  0  0  0
    3.9476    0.4286    1.4307 C   0  0  2  0  0  0  0  0  0  0  0  0
    4.5023    1.3807    2.4820 C   0  0  0  0  0  0  0  0  0  0  0  0
    3.7881    2.0831    3.1945 O   0  0  0  0  0  0  0  0  0  0  0  0
    4.0286    1.0447    0.0427 C   0  0  0  0  0  0  0  0  0  0  0  0
    2.0368    0.8386    2.2460 H   0  0  0  0  0  0  0  0  0  0  0  0
    4.5062   -0.5133    1.4590 H   0  0  0  0  0  0  0  0  0  0  0  0
    3.4747    1.9894   -0.0052 H   0  0  0  0  0  0  0  0  0  0  0  0
    5.0658    1.2552   -0.2381 H   0  0  0  0  0  0  0  0  0  0  0  0
    3.6020    0.3709   -0.7083 H   0  0  0  0  0  0  0  0  0  0  0  0
    5.8900    1.3856    2.5014 N   0  0  0  0  0  0  0  0  0  0  0  0
    6.6542    2.2158    3.4029 C   0  0  0  0  0  0  0  0  0  0  0  0
    6.4005    0.7569    1.8883 H   0  0  0  0  0  0  0  0  0  0  0  0
    6.8947    3.1690    2.9095 H   0  0  0  0  0  0  0  0  0  0  0  0
    6.0640    2.4114    4.3103 H   0  0  0  0  0  0  0  0  0  0  0  0
    7.5861    1.6991    3.6761 H   0  0  0  0  0  0  0  0  0  0  0  0
  1  3  1  0  0  0  0
  1  7  1  0  0  0  0
  1  2  2  0  0  0  0
 30 31  1  0  0  0  0
 31 39  1  0  0  0  0
 31 32  2  0  0  0  0
  8  9  1  0  0  0  0
  9 17  1  0  0  0  0
  9 10  2  0  0  0  0
 18 19  1  0  0  0  0
 19 29  1  0  0  0  0
 19 20  2  0  0  0  0
 21 22  1  0  0  0  0
 22 23  1  0  0  0  0
 22 24  2  0  0  0  0
 30 33  1  0  0  0  0
  8 11  1  0  0  0  0
 39 40  1  0  0  0  0
 18 21  1  0  0  0  0
 29 30  1  0  0  0  0
  7  8  1  0  0  0  0
 17 18  1  0  0  0  0
  3  4  1  0  0  0  0
  3  5  1  0  0  0  0
  3  6  1  0  0  0  0
 33 36  1  0  0  0  0
 33 37  1  0  0  0  0
 33 38  1  0  0  0  0
 11 14  1  0  0  0  0
 11 15  1  0  0  0  0
 11 16  1  0  0  0  0
 40 42  1  0  0  0  0
 40 43  1  0  0  0  0
 40 44  1  0  0  0  0
 21 27  1  0  0  0  0
 21 28  1  0  0  0  0
 30 35  1  0  0  0  0
  8 13  1  0  0  0  0
 18 26  1  0  0  0  0
 39 41  1  0  0  0  0
  7 12  1  0  0  0  0
 29 34  1  0  0  0  0
 17 25  1  0  0  0  0
M  CHG  1  23  -1
M  END
$$$$

  -OEChem-05262214473D

 44 43  0     1  0  0  0  0  0999 V2000
   -4.0256   -1.8030   -2.1581 C   0  0  0  0  0  0  0  0  0  0  0  0
   -3.7513   -2.6782   -2.9709 O   0  0  0  0  0  0  0  0  0  0  0  0
   -5.3491   -1.1169   -2.2339 C   0  0  0  0  0  0  0  0  0  0  0  0
   -5.3223   -0.2211   -2.8750 H   0  0  0  0  0  0  0  0  0  0  0  0
   -6.1322   -1.7605   -2.6658 H   0  0  0  0  0  0  0  0  0  0  0  0
   -5.7568   -0.7715   -1.2704 H   0  0  0  0  0  0  0  0  0  0  0  0
   -3.2124   -1.3578   -1.1289 N   0  0  0  0  0  0  0  0  0  0  0  0
   -1.8971   -1.8843   -0.8752 C   0  0  2  0  0  0  0  0  0  0  0  0
   -1.2676   -1.0599    0.2399 C   0  0  0  0  0  0  0  0  0  0  0  0
   -1.6270    0.0833    0.5138 O   0  0  0  0  0  0  0  0  0  0  0  0
   -1.0364   -1.8506   -2.1285 C   0  0  0  0  0  0  0  0  0  0  0  0
   -3.5631   -0.6202   -0.5206 H   0  0  0  0  0  0  0  0  0  0  0  0
   -2.0301   -2.9174   -0.5360 H   0  0  0  0  0  0  0  0  0  0  0  0
   -0.8921   -0.8236   -2.4833 H   0  0  0  0  0  0  0  0  0  0  0  0
   -0.0457   -2.2777   -1.9410 H   0  0  0  0  0  0  0  0  0  0  0  0
   -1.5052   -2.4193   -2.9387 H   0  0  0  0  0  0  0  0  0  0  0  0
   -0.2267   -1.7335    0.8672 N   0  0  0  0  0  0  0  0  0  0  0  0
    0.5363   -1.1590    1.9465 C   0  0  2  0  0  0  0  0  0  0  0  0
    1.9898   -1.1033    1.4904 C   0  0  0  0  0  0  0  0  0  0  0  0
    2.4656   -1.8861    0.6706 O   0  0  0  0  0  0  0  0  0  0  0  0
    0.4079   -1.9758    3.2302 C   0  0  0  0  0  0  0  0  0  0  0  0
   -0.9637   -1.9555    3.9170 C   0  0  0  0  0  0  0  0  0  0  0  0
   -1.6219   -0.8923    3.7240 O   0  5  0  0  0  0  0  0  0  0  0  0
   -1.2734   -2.9754    4.5913 O   0  0  0  0  0  0  0  0  0  0  0  0
   -0.0113   -2.6869    0.5854 H   0  0  0  0  0  0  0  0  0  0  0  0
    0.1636   -0.1382    2.0876 H   0  0  0  0  0  0  0  0  0  0  0  0
    1.1556   -1.6366    3.9601 H   0  0  0  0  0  0  0  0  0  0  0  0
    0.6337   -3.0298    3.0216 H   0  0  0  0  0  0  0  0  0  0  0  0
    2.6774   -0.0449    2.0676 N   0  0  0  0  0  0  0  0  0  0  0  0
    4.0620    0.2420    1.7725 C   0  0  2  0  0  0  0  0  0  0  0  0
    4.6896    0.8595    3.0152 C   0  0  0  0  0  0  0  0  0  0  0  0
    4.0326    1.4164    3.8923 O   0  0  0  0  0  0  0  0  0  0  0  0
    4.1915    1.1740    0.5778 C   0  0  0  0  0  0  0  0  0  0  0  0
    2.1892    0.5821    2.7002 H   0  0  0  0  0  0  0  0  0  0  0  0
    4.5448   -0.7175    1.5571 H   0  0  0  0  0  0  0  0  0  0  0  0
    3.7136    2.1405    0.7748 H   0  0  0  0  0  0  0  0  0  0  0  0
    5.2422    1.3676    0.3377 H   0  0  0  0  0  0  0  0  0  0  0  0
    3.7135    0.7413   -0.3077 H   0  0  0  0  0  0  0  0  0  0  0  0
    6.0734    0.7537    3.0085 N   0  0  0  0  0  0  0  0  0  0  0  0
    6.9002    1.2745    4.0720 C   0  0  0  0  0  0  0  0  0  0  0  0
    6.5330    0.2589    2.2498 H   0  0  0  0  0  0  0  0  0  0  0  0
    7.2151    2.2989    3.8242 H   0  0  0  0  0  0  0  0  0  0  0  0
    6.3269    1.2842    5.0108 H   0  0  0  0  0  0  0  0  0  0  0  0
    7.7885    0.6368    4.1915 H   0  0  0  0  0  0  0  0  0  0  0  0
  1  3  1  0  0  0  0
  1  7  1  0  0  0  0
  1  2  2  0  0  0  0
 30 31  1  0  0  0  0
 31 39  1  0  0  0  0
 31 32  2  0  0  0  0
  8  9  1  0  0  0  0
  9 17  1  0  0  0  0
  9 10  2  0  0  0  0
 18 19  1  0  0  0  0
 19 29  1  0  0  0  0
 19 20  2  0  0  0  0
 21 22  1  0  0  0  0
 22 23  1  0  0  0  0
 22 24  2  0  0  0  0
 30 33  1  0  0  0  0
  8 11  1  0  0  0  0
 39 40  1  0  0  0  0
 18 21  1  0  0  0  0
 29 30  1  0  0  0  0
  7  8  1  0  0  0  0
 17 18  1  0  0  0  0
  3  4  1  0  0  0  0
  3  5  1  0  0  0  0
  3  6  1  0  0  0  0
 33 36  1  0  0  0  0
 33 37  1  0  0  0  0
 33 38  1  0  0  0  0
 11 14  1  0  0  0  0
 11 15  1  0  0  0  0
 11 16  1  0  0  0  0
 40 42  1  0  0  0  0
 40 43  1  0  0  0  0
 40 44  1  0  0  0  0
 21 27  1  0  0  0  0
 21 28  1  0  0  0  0
 30 35  1  0  0  0  0
  8 13  1  0  0  0  0
 18 26  1  0  0  0  0
 39 41  1  0  0  0  0
  7 12  1  0  0  0  0
 29 34  1  0  0  0  0
 17 25  1  0  0  0  0
M  CHG  1  23  -1
M  END
$$$$

  -OEChem-05262214473D

 44 43  0     1  0  0  0  0  0999 V2000
   -4.0256   -1.8030   -2.1581 C   0  0  0  0  0  0  0  0  0  0  0  0
   -3.7513   -2.6782   -2.9709 O   0  0  0  0  0  0  0  0  0  0  0  0
   -5.3491   -1.1169   -2.2339 C   0  0  0  0  0  0  0  0  0  0  0  0
   -5.3223   -0.2211   -2.8750 H   0  0  0  0  0  0  0  0  0  0  0  0
   -6.1322   -1.7605   -2.6658 H   0  0  0  0  0  0  0  0  0  0  0  0
   -5.7568   -0.7715   -1.2704 H   0  0  0  0  0  0  0  0  0  0  0  0
   -3.2124   -1.3578   -1.1289 N   0  0  0  0  0  0  0  0  0  0  0  0
   -1.8971   -1.8843   -0.8752 C   0  0  2  0  0  0  0  0  0  0  0  0
   -1.2676   -1.0599    0.2399 C   0  0  0  0  0  0  0  0  0  0  0  0
   -1.6270    0.0833    0.5138 O   0  0  0  0  0  0  0  0  0  0  0  0
   -1.0364   -1.8506   -2.1285 C   0  0  0  0  0  0  0  0  0  0  0  0
   -3.5631   -0.6202   -0.5206 H   0  0  0  0  0  0  0  0  0  0  0  0
   -2.0301   -2.9174   -0.5360 H   0  0  0  0  0  0  0  0  0  0  0  0
   -0.8921   -0.8236   -2.4833 H   0  0  0  0  0  0  0  0  0  0  0  0
   -0.0457   -2.2777   -1.9410 H   0  0  0  0  0  0  0  0  0  0  0  0
   -1.5052   -2.4193   -2.9387 H   0  0  0  0  0  0  0  0  0  0  0  0
   -0.2267   -1.7335    0.8672 N   0  0  0  0  0  0  0  0  0  0  0  0
    0.5363   -1.1590    1.9465 C   0  0  2  0  0  0  0  0  0  0  0  0
    1.9898   -1.1033    1.4904 C   0  0  0  0  0  0  0  0  0  0  0  0
    2.4028   -1.6931    0.4941 O   0  0  0  0  0  0  0  0  0  0  0  0
    0.4079   -1.9758    3.2302 C   0  0  0  0  0  0  0  0  0  0  0  0
   -0.9637   -1.9555    3.9170 C   0  0  0  0  0  0  0  0  0  0  0  0
   -1.6219   -0.8923    3.7240 O   0  5  0  0  0  0  0  0  0  0  0  0
   -1.2734   -2.9754    4.5913 O   0  0  0  0  0  0  0  0  0  0  0  0
   -0.0113   -2.6869    0.5854 H   0  0  0  0  0  0  0  0  0  0  0  0
    0.1636   -0.1382    2.0876 H   0  0  0  0  0  0  0  0  0  0  0  0
    1.1556   -1.6366    3.9601 H   0  0  0  0  0  0  0  0  0  0  0  0
    0.6337   -3.0298    3.0216 H   0  0  0  0  0  0  0  0  0  0  0  0
    2.7584   -0.2760    2.2973 N   0  0  0  0  0  0  0  0  0  0  0  0
    4.1613   -0.0315    2.0555 C   0  0  2  0  0  0  0  0  0  0  0  0
    4.8351    0.2100    3.3998 C   0  0  0  0  0  0  0  0  0  0  0  0
    4.2237    0.5812    4.3995 O   0  0  0  0  0  0  0  0  0  0  0  0
    4.3640    1.1542    1.1250 C   0  0  0  0  0  0  0  0  0  0  0  0
    2.3207    0.2106    3.0742 H   0  0  0  0  0  0  0  0  0  0  0  0
    4.5672   -0.9419    1.6011 H   0  0  0  0  0  0  0  0  0  0  0  0
    3.9635    2.0756    1.5633 H   0  0  0  0  0  0  0  0  0  0  0  0
    5.4267    1.3205    0.9200 H   0  0  0  0  0  0  0  0  0  0  0  0
    3.8537    0.9915    0.1695 H   0  0  0  0  0  0  0  0  0  0  0  0
    6.2063    0.0039    3.3407 N   0  0  0  0  0  0  0  0  0  0  0  0
    7.0713    0.1811    4.4837 C   0  0  0  0  0  0  0  0  0  0  0  0
    6.6259   -0.3215    2.4748 H   0  0  0  0  0  0  0  0  0  0  0  0
    7.4658    1.2080    4.4899 H   0  0  0  0  0  0  0  0  0  0  0  0
    6.5003    0.0022    5.4067 H   0  0  0  0  0  0  0  0  0  0  0  0
    7.9067   -0.5321    4.4253 H   0  0  0  0  0  0  0  0  0  0  0  0
  1  3  1  0  0  0  0
  1  7  1  0  0  0  0
  1  2  2  0  0  0  0
 30 31  1  0  0  0  0
 31 39  1  0  0  0  0
 31 32  2  0  0  0  0
  8  9  1  0  0  0  0
  9 17  1  0  0  0  0
  9 10  2  0  0  0  0
 18 19  1  0  0  0  0
 19 29  1  0  0  0  0
 19 20  2  0  0  0  0
 21 22  1  0  0  0  0
 22 23  1  0  0  0  0
 22 24  2  0  0  0  0
 30 33  1  0  0  0  0
  8 11  1  0  0  0  0
 39 40  1  0  0  0  0
 18 21  1  0  0  0  0
 29 30  1  0  0  0  0
  7  8  1  0  0  0  0
 17 18  1  0  0  0  0
  3  4  1  0  0  0  0
  3  5  1  0  0  0  0
  3  6  1  0  0  0  0
 33 36  1  0  0  0  0
 33 37  1  0  0  0  0
 33 38  1  0  0  0  0
 11 14  1  0  0  0  0
 11 15  1  0  0  0  0
 11 16  1  0  0  0  0
 40 42  1  0  0  0  0
 40 43  1  0  0  0  0
 40 44  1  0  0  0  0
 21 27  1  0  0  0  0
 21 28  1  0  0  0  0
 30 35  1  0  0  0  0
  8 13  1  0  0  0  0
 18 26  1  0  0  0  0
 39 41  1  0  0  0  0
  7 12  1  0  0  0  0
 29 34  1  0  0  0  0
 17 25  1  0  0  0  0
M  CHG  1  23  -1
M  END
$$$$

  -OEChem-05262214473D

 44 43  0     1  0  0  0  0  0999 V2000
   -4.0256   -1.8030   -2.1581 C   0  0  0  0  0  0  0  0  0  0  0  0
   -3.7513   -2.6782   -2.9709 O   0  0  0  0  0  0  0  0  0  0  0  0
   -5.3491   -1.1169   -2.2339 C   0  0  0  0  0  0  0  0  0  0  0  0
   -5.3223   -0.2211   -2.8750 H   0  0  0  0  0  0  0  0  0  0  0  0
   -6.1322   -1.7605   -2.6658 H   0  0  0  0  0  0  0  0  0  0  0  0
   -5.7568   -0.7715   -1.2704 H   0  0  0  0  0  0  0  0  0  0  0  0
   -3.2124   -1.3578   -1.1289 N   0  0  0  0  0  0  0  0  0  0  0  0
   -1.8971   -1.8843   -0.8752 C   0  0  2  0  0  0  0  0  0  0  0  0
   -1.2676   -1.0599    0.2399 C   0  0  0  0  0  0  0  0  0  0  0  0
   -1.6270    0.0833    0.5138 O   0  0  0  0  0  0  0  0  0  0  0  0
   -1.0364   -1.8506   -2.1285 C   0  0  0  0  0  0  0  0  0  0  0  0
   -3.5631   -0.6202   -0.5206 H   0  0  0  0  0  0  0  0  0  0  0  0
   -2.0301   -2.9174   -0.5360 H   0  0  0  0  0  0  0  0  0  0  0  0
   -0.8921   -0.8236   -2.4833 H   0  0  0  0  0  0  0  0  0  0  0  0
   -0.0457   -2.2777   -1.9410 H   0  0  0  0  0  0  0  0  0  0  0  0
   -1.5052   -2.4193   -2.9387 H   0  0  0  0  0  0  0  0  0  0  0  0
   -0.2267   -1.7335    0.8672 N   0  0  0  0  0  0  0  0  0  0  0  0
    0.5363   -1.1590    1.9465 C   0  0  2  0  0  0  0  0  0  0  0  0
    1.8905   -0.7549    1.3751 C   0  0  0  0  0  0  0  0  0  0  0  0
    2.1829   -0.8843    0.1881 O   0  0  0  0  0  0  0  0  0  0  0  0
    0.7132   -2.1411    3.1022 C   0  0  0  0  0  0  0  0  0  0  0  0
   -0.5483   -2.4841    3.9047 C   0  0  0  0  0  0  0  0  0  0  0  0
   -1.4113   -1.5592    3.9302 O   0  5  0  0  0  0  0  0  0  0  0  0
   -0.5814   -3.6226    4.4467 O   0  0  0  0  0  0  0  0  0  0  0  0
   -0.0113   -2.6869    0.5854 H   0  0  0  0  0  0  0  0  0  0  0  0
   -0.0014   -0.2603    2.2691 H   0  0  0  0  0  0  0  0  0  0  0  0
    1.4646   -1.7539    3.8041 H   0  0  0  0  0  0  0  0  0  0  0  0
    1.1059   -3.0929    2.7214 H   0  0  0  0  0  0  0  0  0  0  0  0
    2.7135   -0.1853    2.3367 N   0  0  0  0  0  0  0  0  0  0  0  0
    4.0378    0.3087    2.0394 C   0  0  2  0  0  0  0  0  0  0  0  0
    4.8968    0.1303    3.2843 C   0  0  0  0  0  0  0  0  0  0  0  0
    4.4260    0.0312    4.4155 O   0  0  0  0  0  0  0  0  0  0  0  0
    4.0008    1.7668    1.6089 C   0  0  0  0  0  0  0  0  0  0  0  0
    2.3697   -0.0747    3.2861 H   0  0  0  0  0  0  0  0  0  0  0  0
    4.4334   -0.3142    1.2297 H   0  0  0  0  0  0  0  0  0  0  0  0
    3.6072    2.4064    2.4073 H   0  0  0  0  0  0  0  0  0  0  0  0
    5.0019    2.1315    1.3565 H   0  0  0  0  0  0  0  0  0  0  0  0
    3.3587    1.8978    0.7312 H   0  0  0  0  0  0  0  0  0  0  0  0
    6.2527    0.1381    2.9884 N   0  0  0  0  0  0  0  0  0  0  0  0
    7.2726   -0.0019    4.0014 C   0  0  0  0  0  0  0  0  0  0  0  0
    6.5525    0.2062    2.0203 H   0  0  0  0  0  0  0  0  0  0  0  0
    7.5851    0.9942    4.3480 H   0  0  0  0  0  0  0  0  0  0  0  0
    6.8706   -0.5756    4.8495 H   0  0  0  0  0  0  0  0  0  0  0  0
    8.1391   -0.5313    3.5784 H   0  0  0  0  0  0  0  0  0  0  0  0
  1  3  1  0  0  0  0
  1  7  1  0  0  0  0
  1  2  2  0  0  0  0
 30 31  1  0  0  0  0
 31 39  1  0  0  0  0
 31 32  2  0  0  0  0
  8  9  1  0  0  0  0
  9 17  1  0  0  0  0
  9 10  2  0  0  0  0
 18 19  1  0  0  0  0
 19 29  1  0  0  0  0
 19 20  2  0  0  0  0
 21 22  1  0  0  0  0
 22 23  1  0  0  0  0
 22 24  2  0  0  0  0
 30 33  1  0  0  0  0
  8 11  1  0  0  0  0
 39 40  1  0  0  0  0
 18 21  1  0  0  0  0
 29 30  1  0  0  0  0
  7  8  1  0  0  0  0
 17 18  1  0  0  0  0
  3  4  1  0  0  0  0
  3  5  1  0  0  0  0
  3  6  1  0  0  0  0
 33 36  1  0  0  0  0
 33 37  1  0  0  0  0
 33 38  1  0  0  0  0
 11 14  1  0  0  0  0
 11 15  1  0  0  0  0
 11 16  1  0  0  0  0
 40 42  1  0  0  0  0
 40 43  1  0  0  0  0
 40 44  1  0  0  0  0
 21 27  1  0  0  0  0
 21 28  1  0  0  0  0
 30 35  1  0  0  0  0
  8 13  1  0  0  0  0
 18 26  1  0  0  0  0
 39 41  1  0  0  0  0
  7 12  1  0  0  0  0
 29 34  1  0  0  0  0
 17 25  1  0  0  0  0
M  CHG  1  23  -1
M  END
$$$$

  -OEChem-05262214473D

 44 43  0     1  0  0  0  0  0999 V2000
   -4.0256   -1.8030   -2.1581 C   0  0  0  0  0  0  0  0  0  0  0  0
   -3.7513   -2.6782   -2.9709 O   0  0  0  0  0  0  0  0  0  0  0  0
   -5.3491   -1.1169   -2.2339 C   0  0  0  0  0  0  0  0  0  0  0  0
   -5.3223   -0.2211   -2.8750 H   0  0  0  0  0  0  0  0  0  0  0  0
   -6.1322   -1.7605   -2.6658 H   0  0  0  0  0  0  0  0  0  0  0  0
   -5.7568   -0.7715   -1.2704 H   0  0  0  0  0  0  0  0  0  0  0  0
   -3.2124   -1.3578   -1.1289 N   0  0  0  0  0  0  0  0  0  0  0  0
   -1.8971   -1.8843   -0.8752 C   0  0  2  0  0  0  0  0  0  0  0  0
   -1.2676   -1.0599    0.2399 C   0  0  0  0  0  0  0  0  0  0  0  0
   -1.6270    0.0833    0.5138 O   0  0  0  0  0  0  0  0  0  0  0  0
   -1.0364   -1.8506   -2.1285 C   0  0  0  0  0  0  0  0  0  0  0  0
   -3.5631   -0.6202   -0.5206 H   0  0  0  0  0  0  0  0  0  0  0  0
   -2.0301   -2.9174   -0.5360 H   0  0  0  0  0  0  0  0  0  0  0  0
   -0.8921   -0.8236   -2.4833 H   0  0  0  0  0  0  0  0  0  0  0  0
   -0.0457   -2.2777   -1.9410 H   0  0  0  0  0  0  0  0  0  0  0  0
   -1.5052   -2.4193   -2.9387 H   0  0  0  0  0  0  0  0  0  0  0  0
   -0.2267   -1.7335    0.8672 N   0  0  0  0  0  0  0  0  0  0  0  0
    0.5363   -1.1590    1.9465 C   0  0  2  0  0  0  0  0  0  0  0  0
    1.8905   -0.7549    1.3751 C   0  0  0  0  0  0  0  0  0  0  0  0
    2.0993   -0.6292    0.1702 O   0  0  0  0  0  0  0  0  0  0  0  0
    0.7132   -2.1411    3.1022 C   0  0  0  0  0  0  0  0  0  0  0  0
   -0.5483   -2.4841    3.9047 C   0  0  0  0  0  0  0  0  0  0  0  0
   -1.4113   -1.5592    3.9302 O   0  5  0  0  0  0  0  0  0  0  0  0
   -0.5814   -3.6226    4.4467 O   0  0  0  0  0  0  0  0  0  0  0  0
   -0.0113   -2.6869    0.5854 H   0  0  0  0  0  0  0  0  0  0  0  0
   -0.0014   -0.2603    2.2691 H   0  0  0  0  0  0  0  0  0  0  0  0
    1.4646   -1.7539    3.8041 H   0  0  0  0  0  0  0  0  0  0  0  0
    1.1059   -3.0929    2.7214 H   0  0  0  0  0  0  0  0  0  0  0  0
    2.8225   -0.5009    2.3717 N   0  0  0  0  0  0  0  0  0  0  0  0
    4.1722   -0.0711    2.0892 C   0  0  2  0  0  0  0  0  0  0  0  0
    5.0775   -0.6107    3.1886 C   0  0  0  0  0  0  0  0  0  0  0  0
    4.6645   -0.9287    4.3018 O   0  0  0  0  0  0  0  0  0  0  0  0
    4.2639    1.4446    2.0046 C   0  0  0  0  0  0  0  0  0  0  0  0
    2.5471   -0.5847    3.3459 H   0  0  0  0  0  0  0  0  0  0  0  0
    4.4531   -0.5205    1.1305 H   0  0  0  0  0  0  0  0  0  0  0  0
    3.9860    1.9127    2.9560 H   0  0  0  0  0  0  0  0  0  0  0  0
    5.2817    1.7676    1.7621 H   0  0  0  0  0  0  0  0  0  0  0  0
    3.5899    1.8334    1.2336 H   0  0  0  0  0  0  0  0  0  0  0  0
    6.4076   -0.6547    2.7946 N   0  0  0  0  0  0  0  0  0  0  0  0
    7.4634   -1.1174    3.6647 C   0  0  0  0  0  0  0  0  0  0  0  0
    6.6569   -0.3896    1.8463 H   0  0  0  0  0  0  0  0  0  0  0  0
    7.8982   -0.2615    4.2018 H   0  0  0  0  0  0  0  0  0  0  0  0
    7.0526   -1.8350    4.3901 H   0  0  0  0  0  0  0  0  0  0  0  0
    8.2439   -1.6085    3.0649 H   0  0  0  0  0  0  0  0  0  0  0  0
  1  3  1  0  0  0  0
  1  7  1  0  0  0  0
  1  2  2  0  0  0  0
 30 31  1  0  0  0  0
 31 39  1  0  0  0  0
 31 32  2  0  0  0  0
  8  9  1  0  0  0  0
  9 17  1  0  0  0  0
  9 10  2  0  0  0  0
 18 19  1  0  0  0  0
 19 29  1  0  0  0  0
 19 20  2  0  0  0  0
 21 22  1  0  0  0  0
 22 23  1  0  0  0  0
 22 24  2  0  0  0  0
 30 33  1  0  0  0  0
  8 11  1  0  0  0  0
 39 40  1  0  0  0  0
 18 21  1  0  0  0  0
 29 30  1  0  0  0  0
  7  8  1  0  0  0  0
 17 18  1  0  0  0  0
  3  4  1  0  0  0  0
  3  5  1  0  0  0  0
  3  6  1  0  0  0  0
 33 36  1  0  0  0  0
 33 37  1  0  0  0  0
 33 38  1  0  0  0  0
 11 14  1  0  0  0  0
 11 15  1  0  0  0  0
 11 16  1  0  0  0  0
 40 42  1  0  0  0  0
 40 43  1  0  0  0  0
 40 44  1  0  0  0  0
 21 27  1  0  0  0  0
 21 28  1  0  0  0  0
 30 35  1  0  0  0  0
  8 13  1  0  0  0  0
 18 26  1  0  0  0  0
 39 41  1  0  0  0  0
  7 12  1  0  0  0  0
 29 34  1  0  0  0  0
 17 25  1  0  0  0  0
M  CHG  1  23  -1
M  END
$$$$

  -OEChem-05262214473D

 44 43  0     1  0  0  0  0  0999 V2000
   -4.0256   -1.8030   -2.1581 C   0  0  0  0  0  0  0  0  0  0  0  0
   -3.7513   -2.6782   -2.9709 O   0  0  0  0  0  0  0  0  0  0  0  0
   -5.3491   -1.1169   -2.2339 C   0  0  0  0  0  0  0  0  0  0  0  0
   -5.3223   -0.2211   -2.8750 H   0  0  0  0  0  0  0  0  0  0  0  0
   -6.1322   -1.7605   -2.6658 H   0  0  0  0  0  0  0  0  0  0  0  0
   -5.7568   -0.7715   -1.2704 H   0  0  0  0  0  0  0  0  0  0  0  0
   -3.2124   -1.3578   -1.1289 N   0  0  0  0  0  0  0  0  0  0  0  0
   -1.8971   -1.8843   -0.8752 C   0  0  2  0  0  0  0  0  0  0  0  0
   -1.2676   -1.0599    0.2399 C   0  0  0  0  0  0  0  0  0  0  0  0
   -1.6270    0.0833    0.5138 O   0  0  0  0  0  0  0  0  0  0  0  0
   -1.0364   -1.8506   -2.1285 C   0  0  0  0  0  0  0  0  0  0  0  0
   -3.5631   -0.6202   -0.5206 H   0  0  0  0  0  0  0  0  0  0  0  0
   -2.0301   -2.9174   -0.5360 H   0  0  0  0  0  0  0  0  0  0  0  0
   -0.8921   -0.8236   -2.4833 H   0  0  0  0  0  0  0  0  0  0  0  0
   -0.0457   -2.2777   -1.9410 H   0  0  0  0  0  0  0  0  0  0  0  0
   -1.5052   -2.4193   -2.9387 H   0  0  0  0  0  0  0  0  0  0  0  0
   -0.2267   -1.7335    0.8672 N   0  0  0  0  0  0  0  0  0  0  0  0
    0.5363   -1.1590    1.9465 C   0  0  2  0  0  0  0  0  0  0  0  0
    1.8905   -0.7549    1.3751 C   0  0  0  0  0  0  0  0  0  0  0  0
    2.0420   -0.3707    0.2172 O   0  0  0  0  0  0  0  0  0  0  0  0
    0.7132   -2.1411    3.1022 C   0  0  0  0  0  0  0  0  0  0  0  0
   -0.5483   -2.4841    3.9047 C   0  0  0  0  0  0  0  0  0  0  0  0
   -1.4113   -1.5592    3.9302 O   0  5  0  0  0  0  0  0  0  0  0  0
   -0.5814   -3.6226    4.4467 O   0  0  0  0  0  0  0  0  0  0  0  0
   -0.0113   -2.6869    0.5854 H   0  0  0  0  0  0  0  0  0  0  0  0
   -0.0014   -0.2603    2.2691 H   0  0  0  0  0  0  0  0  0  0  0  0
    1.4646   -1.7539    3.8041 H   0  0  0  0  0  0  0  0  0  0  0  0
    1.1059   -3.0929    2.7214 H   0  0  0  0  0  0  0  0  0  0  0  0
    2.8995   -0.8245    2.3256 N   0  0  0  0  0  0  0  0  0  0  0  0
    4.2685   -0.4624    2.0407 C   0  0  2  0  0  0  0  0  0  0  0  0
    5.1736   -1.3219    2.9133 C   0  0  0  0  0  0  0  0  0  0  0  0
    4.7939   -1.8529    3.9550 O   0  0  0  0  0  0  0  0  0  0  0  0
    4.5139    1.0168    2.2947 C   0  0  0  0  0  0  0  0  0  0  0  0
    2.6732   -1.1084    3.2742 H   0  0  0  0  0  0  0  0  0  0  0  0
    4.4453   -0.6989    0.9858 H   0  0  0  0  0  0  0  0  0  0  0  0
    4.3417    1.2729    3.3465 H   0  0  0  0  0  0  0  0  0  0  0  0
    5.5444    1.2956    2.0511 H   0  0  0  0  0  0  0  0  0  0  0  0
    3.8415    1.6332    1.6882 H   0  0  0  0  0  0  0  0  0  0  0  0
    6.4669   -1.3910    2.4146 N   0  0  0  0  0  0  0  0  0  0  0  0
    7.5165   -2.1360    3.0699 C   0  0  0  0  0  0  0  0  0  0  0  0
    6.6880   -0.9352    1.5342 H   0  0  0  0  0  0  0  0  0  0  0  0
    8.0687   -1.4713    3.7504 H   0  0  0  0  0  0  0  0  0  0  0  0
    7.0747   -2.9636    3.6444 H   0  0  0  0  0  0  0  0  0  0  0  0
    8.2054   -2.5410    2.3140 H   0  0  0  0  0  0  0  0  0  0  0  0
  1  3  1  0  0  0  0
  1  7  1  0  0  0  0
  1  2  2  0  0  0  0
 30 31  1  0  0  0  0
 31 39  1  0  0  0  0
 31 32  2  0  0  0  0
  8  9  1  0  0  0  0
  9 17  1  0  0  0  0
  9 10  2  0  0  0  0
 18 19  1  0  0  0  0
 19 29  1  0  0  0  0
 19 20  2  0  0  0  0
 21 22  1  0  0  0  0
 22 23  1  0  0  0  0
 22 24  2  0  0  0  0
 30 33  1  0  0  0  0
  8 11  1  0  0  0  0
 39 40  1  0  0  0  0
 18 21  1  0  0  0  0
 29 30  1  0  0  0  0
  7  8  1  0  0  0  0
 17 18  1  0  0  0  0
  3  4  1  0  0  0  0
  3  5  1  0  0  0  0
  3  6  1  0  0  0  0
 33 36  1  0  0  0  0
 33 37  1  0  0  0  0
 33 38  1  0  0  0  0
 11 14  1  0  0  0  0
 11 15  1  0  0  0  0
 11 16  1  0  0  0  0
 40 42  1  0  0  0  0
 40 43  1  0  0  0  0
 40 44  1  0  0  0  0
 21 27  1  0  0  0  0
 21 28  1  0  0  0  0
 30 35  1  0  0  0  0
  8 13  1  0  0  0  0
 18 26  1  0  0  0  0
 39 41  1  0  0  0  0
  7 12  1  0  0  0  0
 29 34  1  0  0  0  0
 17 25  1  0  0  0  0
M  CHG  1  23  -1
M  END
$$$$

  -OEChem-05262214473D

 44 43  0     1  0  0  0  0  0999 V2000
   -4.0256   -1.8030   -2.1581 C   0  0  0  0  0  0  0  0  0  0  0  0
   -3.7513   -2.6782   -2.9709 O   0  0  0  0  0  0  0  0  0  0  0  0
   -5.3491   -1.1169   -2.2339 C   0  0  0  0  0  0  0  0  0  0  0  0
   -5.3223   -0.2211   -2.8750 H   0  0  0  0  0  0  0  0  0  0  0  0
   -6.1322   -1.7605   -2.6658 H   0  0  0  0  0  0  0  0  0  0  0  0
   -5.7568   -0.7715   -1.2704 H   0  0  0  0  0  0  0  0  0  0  0  0
   -3.2124   -1.3578   -1.1289 N   0  0  0  0  0  0  0  0  0  0  0  0
   -1.8971   -1.8843   -0.8752 C   0  0  2  0  0  0  0  0  0  0  0  0
   -1.2676   -1.0599    0.2399 C   0  0  0  0  0  0  0  0  0  0  0  0
   -1.6270    0.0833    0.5138 O   0  0  0  0  0  0  0  0  0  0  0  0
   -1.0364   -1.8506   -2.1285 C   0  0  0  0  0  0  0  0  0  0  0  0
   -3.5631   -0.6202   -0.5206 H   0  0  0  0  0  0  0  0  0  0  0  0
   -2.0301   -2.9174   -0.5360 H   0  0  0  0  0  0  0  0  0  0  0  0
   -0.8921   -0.8236   -2.4833 H   0  0  0  0  0  0  0  0  0  0  0  0
   -0.0457   -2.2777   -1.9410 H   0  0  0  0  0  0  0  0  0  0  0  0
   -1.5052   -2.4193   -2.9387 H   0  0  0  0  0  0  0  0  0  0  0  0
   -0.2267   -1.7335    0.8672 N   0  0  0  0  0  0  0  0  0  0  0  0
    0.5363   -1.1590    1.9465 C   0  0  2  0  0  0  0  0  0  0  0  0
    1.8905   -0.7549    1.3751 C   0  0  0  0  0  0  0  0  0  0  0  0
    2.0149   -0.1262    0.3261 O   0  0  0  0  0  0  0  0  0  0  0  0
    0.7132   -2.1411    3.1022 C   0  0  0  0  0  0  0  0  0  0  0  0
   -0.5483   -2.4841    3.9047 C   0  0  0  0  0  0  0  0  0  0  0  0
   -1.4113   -1.5592    3.9302 O   0  5  0  0  0  0  0  0  0  0  0  0
   -0.5814   -3.6226    4.4467 O   0  0  0  0  0  0  0  0  0  0  0  0
   -0.0113   -2.6869    0.5854 H   0  0  0  0  0  0  0  0  0  0  0  0
   -0.0014   -0.2603    2.2691 H   0  0  0  0  0  0  0  0  0  0  0  0
    1.4646   -1.7539    3.8041 H   0  0  0  0  0  0  0  0  0  0  0  0
    1.1059   -3.0929    2.7214 H   0  0  0  0  0  0  0  0  0  0  0  0
    2.9394   -1.1338    2.2013 N   0  0  0  0  0  0  0  0  0  0  0  0
    4.3203   -0.8385    1.8974 C   0  0  2  0  0  0  0  0  0  0  0  0
    5.1786   -1.9550    2.4773 C   0  0  0  0  0  0  0  0  0  0  0  0
    4.8055   -2.6784    3.3985 O   0  0  0  0  0  0  0  0  0  0  0  0
    4.7338    0.5127    2.4593 C   0  0  0  0  0  0  0  0  0  0  0  0
    2.7392   -1.6099    3.0759 H   0  0  0  0  0  0  0  0  0  0  0  0
    4.4105   -0.8372    0.8056 H   0  0  0  0  0  0  0  0  0  0  0  0
    4.6500    0.5306    3.5521 H   0  0  0  0  0  0  0  0  0  0  0  0
    5.7723    0.7478    2.2037 H   0  0  0  0  0  0  0  0  0  0  0  0
    4.0962    1.3109    2.0640 H   0  0  0  0  0  0  0  0  0  0  0  0
    6.4268   -2.0206    1.8741 N   0  0  0  0  0  0  0  0  0  0  0  0
    7.4281   -2.9883    2.2575 C   0  0  0  0  0  0  0  0  0  0  0  0
    6.6437   -1.3935    1.1051 H   0  0  0  0  0  0  0  0  0  0  0  0
    8.0851   -2.5525    3.0246 H   0  0  0  0  0  0  0  0  0  0  0  0
    6.9355   -3.8844    2.6630 H   0  0  0  0  0  0  0  0  0  0  0  0
    8.0262   -3.2655    1.3769 H   0  0  0  0  0  0  0  0  0  0  0  0
  1  3  1  0  0  0  0
  1  7  1  0  0  0  0
  1  2  2  0  0  0  0
 30 31  1  0  0  0  0
 31 39  1  0  0  0  0
 31 32  2  0  0  0  0
  8  9  1  0  0  0  0
  9 17  1  0  0  0  0
  9 10  2  0  0  0  0
 18 19  1  0  0  0  0
 19 29  1  0  0  0  0
 19 20  2  0  0  0  0
 21 22  1  0  0  0  0
 22 23  1  0  0  0  0
 22 24  2  0  0  0  0
 30 33  1  0  0  0  0
  8 11  1  0  0  0  0
 39 40  1  0  0  0  0
 18 21  1  0  0  0  0
 29 30  1  0  0  0  0
  7  8  1  0  0  0  0
 17 18  1  0  0  0  0
  3  4  1  0  0  0  0
  3  5  1  0  0  0  0
  3  6  1  0  0  0  0
 33 36  1  0  0  0  0
 33 37  1  0  0  0  0
 33 38  1  0  0  0  0
 11 14  1  0  0  0  0
 11 15  1  0  0  0  0
 11 16  1  0  0  0  0
 40 42  1  0  0  0  0
 40 43  1  0  0  0  0
 40 44  1  0  0  0  0
 21 27  1  0  0  0  0
 21 28  1  0  0  0  0
 30 35  1  0  0  0  0
  8 13  1  0  0  0  0
 18 26  1  0  0  0  0
 39 41  1  0  0  0  0
  7 12  1  0  0  0  0
 29 34  1  0  0  0  0
 17 25  1  0  0  0  0
M  CHG  1  23  -1
M  END
$$$$

  -OEChem-05262214473D

 44 43  0     1  0  0  0  0  0999 V2000
   -4.0256   -1.8030   -2.1581 C   0  0  0  0  0  0  0  0  0  0  0  0
   -3.7513   -2.6782   -2.9709 O   0  0  0  0  0  0  0  0  0  0  0  0
   -5.3491   -1.1169   -2.2339 C   0  0  0  0  0  0  0  0  0  0  0  0
   -5.3223   -0.2211   -2.8750 H   0  0  0  0  0  0  0  0  0  0  0  0
   -6.1322   -1.7605   -2.6658 H   0  0  0  0  0  0  0  0  0  0  0  0
   -5.7568   -0.7715   -1.2704 H   0  0  0  0  0  0  0  0  0  0  0  0
   -3.2124   -1.3578   -1.1289 N   0  0  0  0  0  0  0  0  0  0  0  0
   -1.8971   -1.8843   -0.8752 C   0  0  2  0  0  0  0  0  0  0  0  0
   -1.2676   -1.0599    0.2399 C   0  0  0  0  0  0  0  0  0  0  0  0
   -1.6270    0.0833    0.5138 O   0  0  0  0  0  0  0  0  0  0  0  0
   -1.0364   -1.8506   -2.1285 C   0  0  0  0  0  0  0  0  0  0  0  0
   -3.5631   -0.6202   -0.5206 H   0  0  0  0  0  0  0  0  0  0  0  0
   -2.0301   -2.9174   -0.5360 H   0  0  0  0  0  0  0  0  0  0  0  0
   -0.8921   -0.8236   -2.4833 H   0  0  0  0  0  0  0  0  0  0  0  0
   -0.0457   -2.2777   -1.9410 H   0  0  0  0  0  0  0  0  0  0  0  0
   -1.5052   -2.4193   -2.9387 H   0  0  0  0  0  0  0  0  0  0  0  0
   -0.2267   -1.7335    0.8672 N   0  0  0  0  0  0  0  0  0  0  0  0
    0.5363   -1.1590    1.9465 C   0  0  2  0  0  0  0  0  0  0  0  0
    1.8905   -0.7549    1.3751 C   0  0  0  0  0  0  0  0  0  0  0  0
    2.0200    0.0876    0.4893 O   0  0  0  0  0  0  0  0  0  0  0  0
    0.7132   -2.1411    3.1022 C   0  0  0  0  0  0  0  0  0  0  0  0
   -0.5483   -2.4841    3.9047 C   0  0  0  0  0  0  0  0  0  0  0  0
   -1.4113   -1.5592    3.9302 O   0  5  0  0  0  0  0  0  0  0  0  0
   -0.5814   -3.6226    4.4467 O   0  0  0  0  0  0  0  0  0  0  0  0
   -0.0113   -2.6869    0.5854 H   0  0  0  0  0  0  0  0  0  0  0  0
   -0.0014   -0.2603    2.2691 H   0  0  0  0  0  0  0  0  0  0  0  0
    1.4646   -1.7539    3.8041 H   0  0  0  0  0  0  0  0  0  0  0  0
    1.1059   -3.0929    2.7214 H   0  0  0  0  0  0  0  0  0  0  0  0
    2.9394   -1.4079    2.0074 N   0  0  0  0  0  0  0  0  0  0  0  0
    4.3240   -1.1739    1.6688 C   0  0  2  0  0  0  0  0  0  0  0  0
    5.0920   -2.4667    1.9102 C   0  0  0  0  0  0  0  0  0  0  0  0
    4.6984   -3.3489    2.6704 O   0  0  0  0  0  0  0  0  0  0  0  0
    4.9086   -0.0334    2.4874 C   0  0  0  0  0  0  0  0  0  0  0  0
    2.7407   -2.0552    2.7646 H   0  0  0  0  0  0  0  0  0  0  0  0
    4.3512   -0.9260    0.6022 H   0  0  0  0  0  0  0  0  0  0  0  0
    4.8899   -0.2636    3.5589 H   0  0  0  0  0  0  0  0  0  0  0  0
    5.9497    0.1614    2.2094 H   0  0  0  0  0  0  0  0  0  0  0  0
    4.3368    0.8884    2.3355 H   0  0  0  0  0  0  0  0  0  0  0  0
    6.2898   -2.5006    1.2100 N   0  0  0  0  0  0  0  0  0  0  0  0
    7.2042   -3.6162    1.2829 C   0  0  0  0  0  0  0  0  0  0  0  0
    6.5270   -1.7333    0.5882 H   0  0  0  0  0  0  0  0  0  0  0  0
    7.9463   -3.4317    2.0737 H   0  0  0  0  0  0  0  0  0  0  0  0
    6.6443   -4.5347    1.5129 H   0  0  0  0  0  0  0  0  0  0  0  0
    7.7185   -3.7323    0.3175 H   0  0  0  0  0  0  0  0  0  0  0  0
  1  3  1  0  0  0  0
  1  7  1  0  0  0  0
  1  2  2  0  0  0  0
 30 31  1  0  0  0  0
 31 39  1  0  0  0  0
 31 32  2  0  0  0  0
  8  9  1  0  0  0  0
  9 17  1  0  0  0  0
  9 10  2  0  0  0  0
 18 19  1  0  0  0  0
 19 29  1  0  0  0  0
 19 20  2  0  0  0  0
 21 22  1  0  0  0  0
 22 23  1  0  0  0  0
 22 24  2  0  0  0  0
 30 33  1  0  0  0  0
  8 11  1  0  0  0  0
 39 40  1  0  0  0  0
 18 21  1  0  0  0  0
 29 30  1  0  0  0  0
  7  8  1  0  0  0  0
 17 18  1  0  0  0  0
  3  4  1  0  0  0  0
  3  5  1  0  0  0  0
  3  6  1  0  0  0  0
 33 36  1  0  0  0  0
 33 37  1  0  0  0  0
 33 38  1  0  0  0  0
 11 14  1  0  0  0  0
 11 15  1  0  0  0  0
 11 16  1  0  0  0  0
 40 42  1  0  0  0  0
 40 43  1  0  0  0  0
 40 44  1  0  0  0  0
 21 27  1  0  0  0  0
 21 28  1  0  0  0  0
 30 35  1  0  0  0  0
  8 13  1  0  0  0  0
 18 26  1  0  0  0  0
 39 41  1  0  0  0  0
  7 12  1  0  0  0  0
 29 34  1  0  0  0  0
 17 25  1  0  0  0  0
M  CHG  1  23  -1
M  END
$$$$

  -OEChem-05262214473D

 44 43  0     1  0  0  0  0  0999 V2000
   -4.0256   -1.8030   -2.1581 C   0  0  0  0  0  0  0  0  0  0  0  0
   -3.7513   -2.6782   -2.9709 O   0  0  0  0  0  0  0  0  0  0  0  0
   -5.3491   -1.1169   -2.2339 C   0  0  0  0  0  0  0  0  0  0  0  0
   -5.3223   -0.2211   -2.8750 H   0  0  0  0  0  0  0  0  0  0  0  0
   -6.1322   -1.7605   -2.6658 H   0  0  0  0  0  0  0  0  0  0  0  0
   -5.7568   -0.7715   -1.2704 H   0  0  0  0  0  0  0  0  0  0  0  0
   -3.2124   -1.3578   -1.1289 N   0  0  0  0  0  0  0  0  0  0  0  0
   -1.8971   -1.8843   -0.8752 C   0  0  2  0  0  0  0  0  0  0  0  0
   -1.2676   -1.0599    0.2399 C   0  0  0  0  0  0  0  0  0  0  0  0
   -1.6270    0.0833    0.5138 O   0  0  0  0  0  0  0  0  0  0  0  0
   -1.0364   -1.8506   -2.1285 C   0  0  0  0  0  0  0  0  0  0  0  0
   -3.5631   -0.6202   -0.5206 H   0  0  0  0  0  0  0  0  0  0  0  0
   -2.0301   -2.9174   -0.5360 H   0  0  0  0  0  0  0  0  0  0  0  0
   -0.8921   -0.8236   -2.4833 H   0  0  0  0  0  0  0  0  0  0  0  0
   -0.0457   -2.2777   -1.9410 H   0  0  0  0  0  0  0  0  0  0  0  0
   -1.5052   -2.4193   -2.9387 H   0  0  0  0  0  0  0  0  0  0  0  0
   -0.2267   -1.7335    0.8672 N   0  0  0  0  0  0  0  0  0  0  0  0
    0.5363   -1.1590    1.9465 C   0  0  2  0  0  0  0  0  0  0  0  0
    1.8905   -0.7549    1.3751 C   0  0  0  0  0  0  0  0  0  0  0  0
    2.0568    0.2561    0.6958 O   0  0  0  0  0  0  0  0  0  0  0  0
    0.7132   -2.1411    3.1022 C   0  0  0  0  0  0  0  0  0  0  0  0
   -0.5483   -2.4841    3.9047 C   0  0  0  0  0  0  0  0  0  0  0  0
   -1.4113   -1.5592    3.9302 O   0  5  0  0  0  0  0  0  0  0  0  0
   -0.5814   -3.6226    4.4467 O   0  0  0  0  0  0  0  0  0  0  0  0
   -0.0113   -2.6869    0.5854 H   0  0  0  0  0  0  0  0  0  0  0  0
   -0.0014   -0.2603    2.2691 H   0  0  0  0  0  0  0  0  0  0  0  0
    1.4646   -1.7539    3.8041 H   0  0  0  0  0  0  0  0  0  0  0  0
    1.1059   -3.0929    2.7214 H   0  0  0  0  0  0  0  0  0  0  0  0
    2.8995   -1.6281    1.7571 N   0  0  0  0  0  0  0  0  0  0  0  0
    4.2793   -1.4457    1.3707 C   0  0  2  0  0  0  0  0  0  0  0  0
    4.9199   -2.8222    1.2507 C   0  0  0  0  0  0  0  0  0  0  0  0
    4.4799   -3.8188    1.8203 O   0  0  0  0  0  0  0  0  0  0  0  0
    5.0264   -0.5844    2.3769 C   0  0  0  0  0  0  0  0  0  0  0  0
    2.6776   -2.4138    2.3613 H   0  0  0  0  0  0  0  0  0  0  0  0
    4.2713   -0.9592    0.3893 H   0  0  0  0  0  0  0  0  0  0  0  0
    5.0450   -1.0556    3.3664 H   0  0  0  0  0  0  0  0  0  0  0  0
    6.0646   -0.4235    2.0680 H   0  0  0  0  0  0  0  0  0  0  0  0
    4.5469    0.3946    2.4840 H   0  0  0  0  0  0  0  0  0  0  0  0
    6.0654   -2.7983    0.4676 N   0  0  0  0  0  0  0  0  0  0  0  0
    6.8602   -3.9769    0.2125 C   0  0  0  0  0  0  0  0  0  0  0  0
    6.3459   -1.9312    0.0189 H   0  0  0  0  0  0  0  0  0  0  0  0
    7.6617   -4.0487    0.9626 H   0  0  0  0  0  0  0  0  0  0  0  0
    6.2210   -4.8701    0.2725 H   0  0  0  0  0  0  0  0  0  0  0  0
    7.3034   -3.9099   -0.7920 H   0  0  0  0  0  0  0  0  0  0  0  0
  1  3  1  0  0  0  0
  1  7  1  0  0  0  0
  1  2  2  0  0  0  0
 30 31  1  0  0  0  0
 31 39  1  0  0  0  0
 31 32  2  0  0  0  0
  8  9  1  0  0  0  0
  9 17  1  0  0  0  0
  9 10  2  0  0  0  0
 18 19  1  0  0  0  0
 19 29  1  0  0  0  0
 19 20  2  0  0  0  0
 21 22  1  0  0  0  0
 22 23  1  0  0  0  0
 22 24  2  0  0  0  0
 30 33  1  0  0  0  0
  8 11  1  0  0  0  0
 39 40  1  0  0  0  0
 18 21  1  0  0  0  0
 29 30  1  0  0  0  0
  7  8  1  0  0  0  0
 17 18  1  0  0  0  0
  3  4  1  0  0  0  0
  3  5  1  0  0  0  0
  3  6  1  0  0  0  0
 33 36  1  0  0  0  0
 33 37  1  0  0  0  0
 33 38  1  0  0  0  0
 11 14  1  0  0  0  0
 11 15  1  0  0  0  0
 11 16  1  0  0  0  0
 40 42  1  0  0  0  0
 40 43  1  0  0  0  0
 40 44  1  0  0  0  0
 21 27  1  0  0  0  0
 21 28  1  0  0  0  0
 30 35  1  0  0  0  0
  8 13  1  0  0  0  0
 18 26  1  0  0  0  0
 39 41  1  0  0  0  0
  7 12  1  0  0  0  0
 29 34  1  0  0  0  0
 17 25  1  0  0  0  0
M  CHG  1  23  -1
M  END
$$$$

  -OEChem-05262214473D

 44 43  0     1  0  0  0  0  0999 V2000
   -4.0256   -1.8030   -2.1581 C   0  0  0  0  0  0  0  0  0  0  0  0
   -3.7513   -2.6782   -2.9709 O   0  0  0  0  0  0  0  0  0  0  0  0
   -5.3491   -1.1169   -2.2339 C   0  0  0  0  0  0  0  0  0  0  0  0
   -5.3223   -0.2211   -2.8750 H   0  0  0  0  0  0  0  0  0  0  0  0
   -6.1322   -1.7605   -2.6658 H   0  0  0  0  0  0  0  0  0  0  0  0
   -5.7568   -0.7715   -1.2704 H   0  0  0  0  0  0  0  0  0  0  0  0
   -3.2124   -1.3578   -1.1289 N   0  0  0  0  0  0  0  0  0  0  0  0
   -1.8971   -1.8843   -0.8752 C   0  0  2  0  0  0  0  0  0  0  0  0
   -1.2676   -1.0599    0.2399 C   0  0  0  0  0  0  0  0  0  0  0  0
   -1.6270    0.0833    0.5138 O   0  0  0  0  0  0  0  0  0  0  0  0
   -1.0364   -1.8506   -2.1285 C   0  0  0  0  0  0  0  0  0  0  0  0
   -3.5631   -0.6202   -0.5206 H   0  0  0  0  0  0  0  0  0  0  0  0
   -2.0301   -2.9174   -0.5360 H   0  0  0  0  0  0  0  0  0  0  0  0
   -0.8921   -0.8236   -2.4833 H   0  0  0  0  0  0  0  0  0  0  0  0
   -0.0457   -2.2777   -1.9410 H   0  0  0  0  0  0  0  0  0  0  0  0
   -1.5052   -2.4193   -2.9387 H   0  0  0  0  0  0  0  0  0  0  0  0
   -0.2267   -1.7335    0.8672 N   0  0  0  0  0  0  0  0  0  0  0  0
    0.5363   -1.1590    1.9465 C   0  0  2  0  0  0  0  0  0  0  0  0
    1.8905   -0.7549    1.3751 C   0  0  0  0  0  0  0  0  0  0  0  0
    2.1229    0.3678    0.9314 O   0  0  0  0  0  0  0  0  0  0  0  0
    0.7132   -2.1411    3.1022 C   0  0  0  0  0  0  0  0  0  0  0  0
   -0.5483   -2.4841    3.9047 C   0  0  0  0  0  0  0  0  0  0  0  0
   -1.4113   -1.5592    3.9302 O   0  5  0  0  0  0  0  0  0  0  0  0
   -0.5814   -3.6226    4.4467 O   0  0  0  0  0  0  0  0  0  0  0  0
   -0.0113   -2.6869    0.5854 H   0  0  0  0  0  0  0  0  0  0  0  0
   -0.0014   -0.2603    2.2691 H   0  0  0  0  0  0  0  0  0  0  0  0
    1.4646   -1.7539    3.8041 H   0  0  0  0  0  0  0  0  0  0  0  0
    1.1059   -3.0929    2.7214 H   0  0  0  0  0  0  0  0  0  0  0  0
    2.8224   -1.7793    1.4674 N   0  0  0  0  0  0  0  0  0  0  0  0
    4.1893   -1.6354    1.0233 C   0  0  2  0  0  0  0  0  0  0  0  0
    4.6738   -2.9973    0.5438 C   0  0  0  0  0  0  0  0  0  0  0  0
    4.1650   -4.0560    0.9061 O   0  0  0  0  0  0  0  0  0  0  0  0
    5.0792   -1.1026    2.1355 C   0  0  0  0  0  0  0  0  0  0  0  0
    2.5541   -2.6614    1.8937 H   0  0  0  0  0  0  0  0  0  0  0  0
    4.1763   -0.9346    0.1815 H   0  0  0  0  0  0  0  0  0  0  0  0
    5.1048   -1.7914    2.9877 H   0  0  0  0  0  0  0  0  0  0  0  0
    6.1091   -0.9671    1.7890 H   0  0  0  0  0  0  0  0  0  0  0  0
    4.7120   -0.1369    2.4996 H   0  0  0  0  0  0  0  0  0  0  0  0
    5.7688   -2.8933   -0.3026 N   0  0  0  0  0  0  0  0  0  0  0  0
    6.4195   -4.0458   -0.8807 C   0  0  0  0  0  0  0  0  0  0  0  0
    6.1127   -1.9740   -0.5642 H   0  0  0  0  0  0  0  0  0  0  0  0
    7.2506   -4.3617   -0.2330 H   0  0  0  0  0  0  0  0  0  0  0  0
    5.6945   -4.8678   -0.9738 H   0  0  0  0  0  0  0  0  0  0  0  0
    6.8090   -3.7859   -1.8761 H   0  0  0  0  0  0  0  0  0  0  0  0
  1  3  1  0  0  0  0
  1  7  1  0  0  0  0
  1  2  2  0  0  0  0
 30 31  1  0  0  0  0
 31 39  1  0  0  0  0
 31 32  2  0  0  0  0
  8  9  1  0  0  0  0
  9 17  1  0  0  0  0
  9 10  2  0  0  0  0
 18 19  1  0  0  0  0
 19 29  1  0  0  0  0
 19 20  2  0  0  0  0
 21 22  1  0  0  0  0
 22 23  1  0  0  0  0
 22 24  2  0  0  0  0
 30 33  1  0  0  0  0
  8 11  1  0  0  0  0
 39 40  1  0  0  0  0
 18 21  1  0  0  0  0
 29 30  1  0  0  0  0
  7  8  1  0  0  0  0
 17 18  1  0  0  0  0
  3  4  1  0  0  0  0
  3  5  1  0  0  0  0
  3  6  1  0  0  0  0
 33 36  1  0  0  0  0
 33 37  1  0  0  0  0
 33 38  1  0  0  0  0
 11 14  1  0  0  0  0
 11 15  1  0  0  0  0
 11 16  1  0  0  0  0
 40 42  1  0  0  0  0
 40 43  1  0  0  0  0
 40 44  1  0  0  0  0
 21 27  1  0  0  0  0
 21 28  1  0  0  0  0
 30 35  1  0  0  0  0
  8 13  1  0  0  0  0
 18 26  1  0  0  0  0
 39 41  1  0  0  0  0
  7 12  1  0  0  0  0
 29 34  1  0  0  0  0
 17 25  1  0  0  0  0
M  CHG  1  23  -1
M  END
$$$$

  -OEChem-05262214473D

 44 43  0     1  0  0  0  0  0999 V2000
   -4.0256   -1.8030   -2.1581 C   0  0  0  0  0  0  0  0  0  0  0  0
   -3.7513   -2.6782   -2.9709 O   0  0  0  0  0  0  0  0  0  0  0  0
   -5.3491   -1.1169   -2.2339 C   0  0  0  0  0  0  0  0  0  0  0  0
   -5.3223   -0.2211   -2.8750 H   0  0  0  0  0  0  0  0  0  0  0  0
   -6.1322   -1.7605   -2.6658 H   0  0  0  0  0  0  0  0  0  0  0  0
   -5.7568   -0.7715   -1.2704 H   0  0  0  0  0  0  0  0  0  0  0  0
   -3.2124   -1.3578   -1.1289 N   0  0  0  0  0  0  0  0  0  0  0  0
   -1.8971   -1.8843   -0.8752 C   0  0  2  0  0  0  0  0  0  0  0  0
   -1.2676   -1.0599    0.2399 C   0  0  0  0  0  0  0  0  0  0  0  0
   -1.6270    0.0833    0.5138 O   0  0  0  0  0  0  0  0  0  0  0  0
   -1.0364   -1.8506   -2.1285 C   0  0  0  0  0  0  0  0  0  0  0  0
   -3.5631   -0.6202   -0.5206 H   0  0  0  0  0  0  0  0  0  0  0  0
   -2.0301   -2.9174   -0.5360 H   0  0  0  0  0  0  0  0  0  0  0  0
   -0.8921   -0.8236   -2.4833 H   0  0  0  0  0  0  0  0  0  0  0  0
   -0.0457   -2.2777   -1.9410 H   0  0  0  0  0  0  0  0  0  0  0  0
   -1.5052   -2.4193   -2.9387 H   0  0  0  0  0  0  0  0  0  0  0  0
   -0.2267   -1.7335    0.8672 N   0  0  0  0  0  0  0  0  0  0  0  0
    0.5363   -1.1590    1.9465 C   0  0  2  0  0  0  0  0  0  0  0  0
    1.8905   -0.7549    1.3751 C   0  0  0  0  0  0  0  0  0  0  0  0
    2.2138    0.4150    1.1801 O   0  0  0  0  0  0  0  0  0  0  0  0
    0.7132   -2.1411    3.1022 C   0  0  0  0  0  0  0  0  0  0  0  0
   -0.5483   -2.4841    3.9047 C   0  0  0  0  0  0  0  0  0  0  0  0
   -1.4113   -1.5592    3.9302 O   0  5  0  0  0  0  0  0  0  0  0  0
   -0.5814   -3.6226    4.4467 O   0  0  0  0  0  0  0  0  0  0  0  0
   -0.0113   -2.6869    0.5854 H   0  0  0  0  0  0  0  0  0  0  0  0
   -0.0014   -0.2603    2.2691 H   0  0  0  0  0  0  0  0  0  0  0  0
    1.4646   -1.7539    3.8041 H   0  0  0  0  0  0  0  0  0  0  0  0
    1.1059   -3.0929    2.7214 H   0  0  0  0  0  0  0  0  0  0  0  0
    2.7134   -1.8513    1.1581 N   0  0  0  0  0  0  0  0  0  0  0  0
    4.0602   -1.7300    0.6504 C   0  0  2  0  0  0  0  0  0  0  0  0
    4.3707   -2.9800   -0.1624 C   0  0  0  0  0  0  0  0  0  0  0  0
    3.7751   -4.0444   -0.0099 O   0  0  0  0  0  0  0  0  0  0  0  0
    5.0633   -1.5527    1.7795 C   0  0  0  0  0  0  0  0  0  0  0  0
    2.3788   -2.7810    1.3935 H   0  0  0  0  0  0  0  0  0  0  0  0
    4.0726   -0.8538   -0.0070 H   0  0  0  0  0  0  0  0  0  0  0  0
    5.0652   -2.4208    2.4487 H   0  0  0  0  0  0  0  0  0  0  0  0
    6.0802   -1.4323    1.3915 H   0  0  0  0  0  0  0  0  0  0  0  0
    4.8211   -0.6699    2.3810 H   0  0  0  0  0  0  0  0  0  0  0  0
    5.4203   -2.7792   -1.0480 N   0  0  0  0  0  0  0  0  0  0  0  0
    5.9122   -3.8182   -1.9224 C   0  0  0  0  0  0  0  0  0  0  0  0
    5.8432   -1.8586   -1.1212 H   0  0  0  0  0  0  0  0  0  0  0  0
    6.7412   -4.3492   -1.4316 H   0  0  0  0  0  0  0  0  0  0  0  0
    5.1007   -4.5280   -2.1409 H   0  0  0  0  0  0  0  0  0  0  0  0
    6.2691   -3.3690   -2.8609 H   0  0  0  0  0  0  0  0  0  0  0  0
  1  3  1  0  0  0  0
  1  7  1  0  0  0  0
  1  2  2  0  0  0  0
 30 31  1  0  0  0  0
 31 39  1  0  0  0  0
 31 32  2  0  0  0  0
  8  9  1  0  0  0  0
  9 17  1  0  0  0  0
  9 10  2  0  0  0  0
 18 19  1  0  0  0  0
 19 29  1  0  0  0  0
 19 20  2  0  0  0  0
 21 22  1  0  0  0  0
 22 23  1  0  0  0  0
 22 24  2  0  0  0  0
 30 33  1  0  0  0  0
  8 11  1  0  0  0  0
 39 40  1  0  0  0  0
 18 21  1  0  0  0  0
 29 30  1  0  0  0  0
  7  8  1  0  0  0  0
 17 18  1  0  0  0  0
  3  4  1  0  0  0  0
  3  5  1  0  0  0  0
  3  6  1  0  0  0  0
 33 36  1  0  0  0  0
 33 37  1  0  0  0  0
 33 38  1  0  0  0  0
 11 14  1  0  0  0  0
 11 15  1  0  0  0  0
 11 16  1  0  0  0  0
 40 42  1  0  0  0  0
 40 43  1  0  0  0  0
 40 44  1  0  0  0  0
 21 27  1  0  0  0  0
 21 28  1  0  0  0  0
 30 35  1  0  0  0  0
  8 13  1  0  0  0  0
 18 26  1  0  0  0  0
 39 41  1  0  0  0  0
  7 12  1  0  0  0  0
 29 34  1  0  0  0  0
 17 25  1  0  0  0  0
M  CHG  1  23  -1
M  END
$$$$

  -OEChem-05262214473D

 44 43  0     1  0  0  0  0  0999 V2000
   -4.0256   -1.8030   -2.1581 C   0  0  0  0  0  0  0  0  0  0  0  0
   -3.7513   -2.6782   -2.9709 O   0  0  0  0  0  0  0  0  0  0  0  0
   -5.3491   -1.1169   -2.2339 C   0  0  0  0  0  0  0  0  0  0  0  0
   -5.3223   -0.2211   -2.8750 H   0  0  0  0  0  0  0  0  0  0  0  0
   -6.1322   -1.7605   -2.6658 H   0  0  0  0  0  0  0  0  0  0  0  0
   -5.7568   -0.7715   -1.2704 H   0  0  0  0  0  0  0  0  0  0  0  0
   -3.2124   -1.3578   -1.1289 N   0  0  0  0  0  0  0  0  0  0  0  0
   -1.8971   -1.8843   -0.8752 C   0  0  2  0  0  0  0  0  0  0  0  0
   -1.2676   -1.0599    0.2399 C   0  0  0  0  0  0  0  0  0  0  0  0
   -1.6270    0.0833    0.5138 O   0  0  0  0  0  0  0  0  0  0  0  0
   -1.0364   -1.8506   -2.1285 C   0  0  0  0  0  0  0  0  0  0  0  0
   -3.5631   -0.6202   -0.5206 H   0  0  0  0  0  0  0  0  0  0  0  0
   -2.0301   -2.9174   -0.5360 H   0  0  0  0  0  0  0  0  0  0  0  0
   -0.8921   -0.8236   -2.4833 H   0  0  0  0  0  0  0  0  0  0  0  0
   -0.0457   -2.2777   -1.9410 H   0  0  0  0  0  0  0  0  0  0  0  0
   -1.5052   -2.4193   -2.9387 H   0  0  0  0  0  0  0  0  0  0  0  0
   -0.2267   -1.7335    0.8672 N   0  0  0  0  0  0  0  0  0  0  0  0
    0.5363   -1.1590    1.9465 C   0  0  2  0  0  0  0  0  0  0  0  0
    1.8905   -0.7549    1.3751 C   0  0  0  0  0  0  0  0  0  0  0  0
    2.3231    0.3947    1.4250 O   0  0  0  0  0  0  0  0  0  0  0  0
    0.7132   -2.1411    3.1022 C   0  0  0  0  0  0  0  0  0  0  0  0
   -0.5483   -2.4841    3.9047 C   0  0  0  0  0  0  0  0  0  0  0  0
   -1.4113   -1.5592    3.9302 O   0  5  0  0  0  0  0  0  0  0  0  0
   -0.5814   -3.6226    4.4467 O   0  0  0  0  0  0  0  0  0  0  0  0
   -0.0113   -2.6869    0.5854 H   0  0  0  0  0  0  0  0  0  0  0  0
   -0.0014   -0.2603    2.2691 H   0  0  0  0  0  0  0  0  0  0  0  0
    1.4646   -1.7539    3.8041 H   0  0  0  0  0  0  0  0  0  0  0  0
    1.1059   -3.0929    2.7214 H   0  0  0  0  0  0  0  0  0  0  0  0
    2.5799   -1.8391    0.8503 N   0  0  0  0  0  0  0  0  0  0  0  0
    3.9007   -1.7231    0.2772 C   0  0  2  0  0  0  0  0  0  0  0  0
    4.0311   -2.7714   -0.8198 C   0  0  0  0  0  0  0  0  0  0  0  0
    3.3367   -3.7847   -0.8653 O   0  0  0  0  0  0  0  0  0  0  0  0
    4.9799   -1.9041    1.3332 C   0  0  0  0  0  0  0  0  0  0  0  0
    2.1635   -2.7646    0.8949 H   0  0  0  0  0  0  0  0  0  0  0  0
    3.9674   -0.7223   -0.1634 H   0  0  0  0  0  0  0  0  0  0  0  0
    4.9289   -2.9010    1.7860 H   0  0  0  0  0  0  0  0  0  0  0  0
    5.9799   -1.7875    0.9026 H   0  0  0  0  0  0  0  0  0  0  0  0
    4.8666   -1.1681    2.1365 H   0  0  0  0  0  0  0  0  0  0  0  0
    5.0435   -2.4638   -1.7179 N   0  0  0  0  0  0  0  0  0  0  0  0
    5.3727   -3.3097   -2.8414 C   0  0  0  0  0  0  0  0  0  0  0  0
    5.5560   -1.5930   -1.6142 H   0  0  0  0  0  0  0  0  0  0  0  0
    6.1681   -4.0121   -2.5515 H   0  0  0  0  0  0  0  0  0  0  0  0
    4.4800   -3.8738   -3.1494 H   0  0  0  0  0  0  0  0  0  0  0  0
    5.7205   -2.6875   -3.6791 H   0  0  0  0  0  0  0  0  0  0  0  0
  1  3  1  0  0  0  0
  1  7  1  0  0  0  0
  1  2  2  0  0  0  0
 30 31  1  0  0  0  0
 31 39  1  0  0  0  0
 31 32  2  0  0  0  0
  8  9  1  0  0  0  0
  9 17  1  0  0  0  0
  9 10  2  0  0  0  0
 18 19  1  0  0  0  0
 19 29  1  0  0  0  0
 19 20  2  0  0  0  0
 21 22  1  0  0  0  0
 22 23  1  0  0  0  0
 22 24  2  0  0  0  0
 30 33  1  0  0  0  0
  8 11  1  0  0  0  0
 39 40  1  0  0  0  0
 18 21  1  0  0  0  0
 29 30  1  0  0  0  0
  7  8  1  0  0  0  0
 17 18  1  0  0  0  0
  3  4  1  0  0  0  0
  3  5  1  0  0  0  0
  3  6  1  0  0  0  0
 33 36  1  0  0  0  0
 33 37  1  0  0  0  0
 33 38  1  0  0  0  0
 11 14  1  0  0  0  0
 11 15  1  0  0  0  0
 11 16  1  0  0  0  0
 40 42  1  0  0  0  0
 40 43  1  0  0  0  0
 40 44  1  0  0  0  0
 21 27  1  0  0  0  0
 21 28  1  0  0  0  0
 30 35  1  0  0  0  0
  8 13  1  0  0  0  0
 18 26  1  0  0  0  0
 39 41  1  0  0  0  0
  7 12  1  0  0  0  0
 29 34  1  0  0  0  0
 17 25  1  0  0  0  0
M  CHG  1  23  -1
M  END
$$$$

  -OEChem-05262214473D

 44 43  0     1  0  0  0  0  0999 V2000
   -4.0256   -1.8030   -2.1581 C   0  0  0  0  0  0  0  0  0  0  0  0
   -3.7513   -2.6782   -2.9709 O   0  0  0  0  0  0  0  0  0  0  0  0
   -5.3491   -1.1169   -2.2339 C   0  0  0  0  0  0  0  0  0  0  0  0
   -5.3223   -0.2211   -2.8750 H   0  0  0  0  0  0  0  0  0  0  0  0
   -6.1322   -1.7605   -2.6658 H   0  0  0  0  0  0  0  0  0  0  0  0
   -5.7568   -0.7715   -1.2704 H   0  0  0  0  0  0  0  0  0  0  0  0
   -3.2124   -1.3578   -1.1289 N   0  0  0  0  0  0  0  0  0  0  0  0
   -1.8971   -1.8843   -0.8752 C   0  0  2  0  0  0  0  0  0  0  0  0
   -1.2676   -1.0599    0.2399 C   0  0  0  0  0  0  0  0  0  0  0  0
   -1.6270    0.0833    0.5138 O   0  0  0  0  0  0  0  0  0  0  0  0
   -1.0364   -1.8506   -2.1285 C   0  0  0  0  0  0  0  0  0  0  0  0
   -3.5631   -0.6202   -0.5206 H   0  0  0  0  0  0  0  0  0  0  0  0
   -2.0301   -2.9174   -0.5360 H   0  0  0  0  0  0  0  0  0  0  0  0
   -0.8921   -0.8236   -2.4833 H   0  0  0  0  0  0  0  0  0  0  0  0
   -0.0457   -2.2777   -1.9410 H   0  0  0  0  0  0  0  0  0  0  0  0
   -1.5052   -2.4193   -2.9387 H   0  0  0  0  0  0  0  0  0  0  0  0
   -0.2267   -1.7335    0.8672 N   0  0  0  0  0  0  0  0  0  0  0  0
    0.5363   -1.1590    1.9465 C   0  0  2  0  0  0  0  0  0  0  0  0
    1.8905   -0.7549    1.3751 C   0  0  0  0  0  0  0  0  0  0  0  0
    2.4436    0.3081    1.6494 O   0  0  0  0  0  0  0  0  0  0  0  0
    0.7132   -2.1411    3.1022 C   0  0  0  0  0  0  0  0  0  0  0  0
   -0.5483   -2.4841    3.9047 C   0  0  0  0  0  0  0  0  0  0  0  0
   -1.4113   -1.5592    3.9302 O   0  5  0  0  0  0  0  0  0  0  0  0
   -0.5814   -3.6226    4.4467 O   0  0  0  0  0  0  0  0  0  0  0  0
   -0.0113   -2.6869    0.5854 H   0  0  0  0  0  0  0  0  0  0  0  0
   -0.0014   -0.2603    2.2691 H   0  0  0  0  0  0  0  0  0  0  0  0
    1.4646   -1.7539    3.8041 H   0  0  0  0  0  0  0  0  0  0  0  0
    1.1059   -3.0929    2.7214 H   0  0  0  0  0  0  0  0  0  0  0  0
    2.4310   -1.7437    0.5649 N   0  0  0  0  0  0  0  0  0  0  0  0
    3.7217   -1.6151   -0.0707 C   0  0  2  0  0  0  0  0  0  0  0  0
    3.6783   -2.3859   -1.3835 C   0  0  0  0  0  0  0  0  0  0  0  0
    2.8798   -3.2947   -1.6017 O   0  0  0  0  0  0  0  0  0  0  0  0
    4.8346   -2.1328    0.8271 C   0  0  0  0  0  0  0  0  0  0  0  0
    1.9230   -2.6132    0.4319 H   0  0  0  0  0  0  0  0  0  0  0  0
    3.8678   -0.5492   -0.2770 H   0  0  0  0  0  0  0  0  0  0  0  0
    4.7052   -3.1993    1.0448 H   0  0  0  0  0  0  0  0  0  0  0  0
    5.8150   -2.0084    0.3555 H   0  0  0  0  0  0  0  0  0  0  0  0
    4.8454   -1.5975    1.7826 H   0  0  0  0  0  0  0  0  0  0  0  0
    4.6643   -1.9686   -2.2666 N   0  0  0  0  0  0  0  0  0  0  0  0
    4.8379   -2.5549   -3.5751 C   0  0  0  0  0  0  0  0  0  0  0  0
    5.2704   -1.1952   -2.0096 H   0  0  0  0  0  0  0  0  0  0  0  0
    5.5704   -3.3734   -3.5165 H   0  0  0  0  0  0  0  0  0  0  0  0
    3.8747   -2.9497   -3.9305 H   0  0  0  0  0  0  0  0  0  0  0  0
    5.2005   -1.7878   -4.2752 H   0  0  0  0  0  0  0  0  0  0  0  0
  1  3  1  0  0  0  0
  1  7  1  0  0  0  0
  1  2  2  0  0  0  0
 30 31  1  0  0  0  0
 31 39  1  0  0  0  0
 31 32  2  0  0  0  0
  8  9  1  0  0  0  0
  9 17  1  0  0  0  0
  9 10  2  0  0  0  0
 18 19  1  0  0  0  0
 19 29  1  0  0  0  0
 19 20  2  0  0  0  0
 21 22  1  0  0  0  0
 22 23  1  0  0  0  0
 22 24  2  0  0  0  0
 30 33  1  0  0  0  0
  8 11  1  0  0  0  0
 39 40  1  0  0  0  0
 18 21  1  0  0  0  0
 29 30  1  0  0  0  0
  7  8  1  0  0  0  0
 17 18  1  0  0  0  0
  3  4  1  0  0  0  0
  3  5  1  0  0  0  0
  3  6  1  0  0  0  0
 33 36  1  0  0  0  0
 33 37  1  0  0  0  0
 33 38  1  0  0  0  0
 11 14  1  0  0  0  0
 11 15  1  0  0  0  0
 11 16  1  0  0  0  0
 40 42  1  0  0  0  0
 40 43  1  0  0  0  0
 40 44  1  0  0  0  0
 21 27  1  0  0  0  0
 21 28  1  0  0  0  0
 30 35  1  0  0  0  0
  8 13  1  0  0  0  0
 18 26  1  0  0  0  0
 39 41  1  0  0  0  0
  7 12  1  0  0  0  0
 29 34  1  0  0  0  0
 17 25  1  0  0  0  0
M  CHG  1  23  -1
M  END
$$$$

  -OEChem-05262214473D

 44 43  0     1  0  0  0  0  0999 V2000
   -4.0256   -1.8030   -2.1581 C   0  0  0  0  0  0  0  0  0  0  0  0
   -3.7513   -2.6782   -2.9709 O   0  0  0  0  0  0  0  0  0  0  0  0
   -5.3491   -1.1169   -2.2339 C   0  0  0  0  0  0  0  0  0  0  0  0
   -5.3223   -0.2211   -2.8750 H   0  0  0  0  0  0  0  0  0  0  0  0
   -6.1322   -1.7605   -2.6658 H   0  0  0  0  0  0  0  0  0  0  0  0
   -5.7568   -0.7715   -1.2704 H   0  0  0  0  0  0  0  0  0  0  0  0
   -3.2124   -1.3578   -1.1289 N   0  0  0  0  0  0  0  0  0  0  0  0
   -1.8971   -1.8843   -0.8752 C   0  0  2  0  0  0  0  0  0  0  0  0
   -1.2676   -1.0599    0.2399 C   0  0  0  0  0  0  0  0  0  0  0  0
   -1.6270    0.0833    0.5138 O   0  0  0  0  0  0  0  0  0  0  0  0
   -1.0364   -1.8506   -2.1285 C   0  0  0  0  0  0  0  0  0  0  0  0
   -3.5631   -0.6202   -0.5206 H   0  0  0  0  0  0  0  0  0  0  0  0
   -2.0301   -2.9174   -0.5360 H   0  0  0  0  0  0  0  0  0  0  0  0
   -0.8921   -0.8236   -2.4833 H   0  0  0  0  0  0  0  0  0  0  0  0
   -0.0457   -2.2777   -1.9410 H   0  0  0  0  0  0  0  0  0  0  0  0
   -1.5052   -2.4193   -2.9387 H   0  0  0  0  0  0  0  0  0  0  0  0
   -0.2267   -1.7335    0.8672 N   0  0  0  0  0  0  0  0  0  0  0  0
    0.5363   -1.1590    1.9465 C   0  0  2  0  0  0  0  0  0  0  0  0
    1.8905   -0.7549    1.3751 C   0  0  0  0  0  0  0  0  0  0  0  0
    2.5670    0.1613    1.8380 O   0  0  0  0  0  0  0  0  0  0  0  0
    0.7132   -2.1411    3.1022 C   0  0  0  0  0  0  0  0  0  0  0  0
   -0.5483   -2.4841    3.9047 C   0  0  0  0  0  0  0  0  0  0  0  0
   -1.4113   -1.5592    3.9302 O   0  5  0  0  0  0  0  0  0  0  0  0
   -0.5814   -3.6226    4.4467 O   0  0  0  0  0  0  0  0  0  0  0  0
   -0.0113   -2.6869    0.5854 H   0  0  0  0  0  0  0  0  0  0  0  0
   -0.0014   -0.2603    2.2691 H   0  0  0  0  0  0  0  0  0  0  0  0
    1.4646   -1.7539    3.8041 H   0  0  0  0  0  0  0  0  0  0  0  0
    1.1059   -3.0929    2.7214 H   0  0  0  0  0  0  0  0  0  0  0  0
    2.2768   -1.5714    0.3214 N   0  0  0  0  0  0  0  0  0  0  0  0
    3.5354   -1.4135   -0.3697 C   0  0  2  0  0  0  0  0  0  0  0  0
    3.3361   -1.8497   -1.8152 C   0  0  0  0  0  0  0  0  0  0  0  0
    2.4354   -2.6078   -2.1690 O   0  0  0  0  0  0  0  0  0  0  0  0
    4.6373   -2.2233    0.2955 C   0  0  0  0  0  0  0  0  0  0  0  0
    1.6736   -2.3371    0.0359 H   0  0  0  0  0  0  0  0  0  0  0  0
    3.7806   -0.3462   -0.3402 H   0  0  0  0  0  0  0  0  0  0  0  0
    4.4093   -3.2952    0.2756 H   0  0  0  0  0  0  0  0  0  0  0  0
    5.5968   -2.0800   -0.2124 H   0  0  0  0  0  0  0  0  0  0  0  0
    4.7590   -1.9288    1.3435 H   0  0  0  0  0  0  0  0  0  0  0  0
    4.3083   -1.3273   -2.6567 N   0  0  0  0  0  0  0  0  0  0  0  0
    4.3441   -1.6051   -4.0736 C   0  0  0  0  0  0  0  0  0  0  0  0
    5.0061   -0.6923   -2.2804 H   0  0  0  0  0  0  0  0  0  0  0  0
    4.9888   -2.4766   -4.2607 H   0  0  0  0  0  0  0  0  0  0  0  0
    3.3260   -1.8188   -4.4310 H   0  0  0  0  0  0  0  0  0  0  0  0
    4.7447   -0.7314   -4.6084 H   0  0  0  0  0  0  0  0  0  0  0  0
  1  3  1  0  0  0  0
  1  7  1  0  0  0  0
  1  2  2  0  0  0  0
 30 31  1  0  0  0  0
 31 39  1  0  0  0  0
 31 32  2  0  0  0  0
  8  9  1  0  0  0  0
  9 17  1  0  0  0  0
  9 10  2  0  0  0  0
 18 19  1  0  0  0  0
 19 29  1  0  0  0  0
 19 20  2  0  0  0  0
 21 22  1  0  0  0  0
 22 23  1  0  0  0  0
 22 24  2  0  0  0  0
 30 33  1  0  0  0  0
  8 11  1  0  0  0  0
 39 40  1  0  0  0  0
 18 21  1  0  0  0  0
 29 30  1  0  0  0  0
  7  8  1  0  0  0  0
 17 18  1  0  0  0  0
  3  4  1  0  0  0  0
  3  5  1  0  0  0  0
  3  6  1  0  0  0  0
 33 36  1  0  0  0  0
 33 37  1  0  0  0  0
 33 38  1  0  0  0  0
 11 14  1  0  0  0  0
 11 15  1  0  0  0  0
 11 16  1  0  0  0  0
 40 42  1  0  0  0  0
 40 43  1  0  0  0  0
 40 44  1  0  0  0  0
 21 27  1  0  0  0  0
 21 28  1  0  0  0  0
 30 35  1  0  0  0  0
  8 13  1  0  0  0  0
 18 26  1  0  0  0  0
 39 41  1  0  0  0  0
  7 12  1  0  0  0  0
 29 34  1  0  0  0  0
 17 25  1  0  0  0  0
M  CHG  1  23  -1
M  END
$$$$

  -OEChem-05262214473D

 44 43  0     1  0  0  0  0  0999 V2000
   -4.0256   -1.8030   -2.1581 C   0  0  0  0  0  0  0  0  0  0  0  0
   -3.7513   -2.6782   -2.9709 O   0  0  0  0  0  0  0  0  0  0  0  0
   -5.3491   -1.1169   -2.2339 C   0  0  0  0  0  0  0  0  0  0  0  0
   -5.3223   -0.2211   -2.8750 H   0  0  0  0  0  0  0  0  0  0  0  0
   -6.1322   -1.7605   -2.6658 H   0  0  0  0  0  0  0  0  0  0  0  0
   -5.7568   -0.7715   -1.2704 H   0  0  0  0  0  0  0  0  0  0  0  0
   -3.2124   -1.3578   -1.1289 N   0  0  0  0  0  0  0  0  0  0  0  0
   -1.8971   -1.8843   -0.8752 C   0  0  2  0  0  0  0  0  0  0  0  0
   -1.2676   -1.0599    0.2399 C   0  0  0  0  0  0  0  0  0  0  0  0
   -1.6270    0.0833    0.5138 O   0  0  0  0  0  0  0  0  0  0  0  0
   -1.0364   -1.8506   -2.1285 C   0  0  0  0  0  0  0  0  0  0  0  0
   -3.5631   -0.6202   -0.5206 H   0  0  0  0  0  0  0  0  0  0  0  0
   -2.0301   -2.9174   -0.5360 H   0  0  0  0  0  0  0  0  0  0  0  0
   -0.8921   -0.8236   -2.4833 H   0  0  0  0  0  0  0  0  0  0  0  0
   -0.0457   -2.2777   -1.9410 H   0  0  0  0  0  0  0  0  0  0  0  0
   -1.5052   -2.4193   -2.9387 H   0  0  0  0  0  0  0  0  0  0  0  0
   -0.2267   -1.7335    0.8672 N   0  0  0  0  0  0  0  0  0  0  0  0
    0.5363   -1.1590    1.9465 C   0  0  2  0  0  0  0  0  0  0  0  0
    1.8905   -0.7549    1.3751 C   0  0  0  0  0  0  0  0  0  0  0  0
    2.6849   -0.0360    1.9779 O   0  0  0  0  0  0  0  0  0  0  0  0
    0.7132   -2.1411    3.1022 C   0  0  0  0  0  0  0  0  0  0  0  0
   -0.5483   -2.4841    3.9047 C   0  0  0  0  0  0  0  0  0  0  0  0
   -1.4113   -1.5592    3.9302 O   0  5  0  0  0  0  0  0  0  0  0  0
   -0.5814   -3.6226    4.4467 O   0  0  0  0  0  0  0  0  0  0  0  0
   -0.0113   -2.6869    0.5854 H   0  0  0  0  0  0  0  0  0  0  0  0
   -0.0014   -0.2603    2.2691 H   0  0  0  0  0  0  0  0  0  0  0  0
    1.4646   -1.7539    3.8041 H   0  0  0  0  0  0  0  0  0  0  0  0
    1.1059   -3.0929    2.7214 H   0  0  0  0  0  0  0  0  0  0  0  0
    2.1280   -1.3341    0.1364 N   0  0  0  0  0  0  0  0  0  0  0  0
    3.3544   -1.1319   -0.5993 C   0  0  2  0  0  0  0  0  0  0  0  0
    3.0280   -1.1993   -2.0854 C   0  0  0  0  0  0  0  0  0  0  0  0
    2.0339   -1.7707   -2.5285 O   0  0  0  0  0  0  0  0  0  0  0  0
    4.4016   -2.1693   -0.2251 C   0  0  0  0  0  0  0  0  0  0  0  0
    1.4322   -1.9552   -0.2660 H   0  0  0  0  0  0  0  0  0  0  0  0
    3.7117   -0.1271   -0.3485 H   0  0  0  0  0  0  0  0  0  0  0  0
    4.0614   -3.1824   -0.4691 H   0  0  0  0  0  0  0  0  0  0  0  0
    5.3400   -1.9975   -0.7625 H   0  0  0  0  0  0  0  0  0  0  0  0
    4.6133   -2.1395    0.8491 H   0  0  0  0  0  0  0  0  0  0  0  0
    3.9999   -0.5837   -2.8616 N   0  0  0  0  0  0  0  0  0  0  0  0
    3.9252   -0.5253   -4.3028 C   0  0  0  0  0  0  0  0  0  0  0  0
    4.7809   -0.1186   -2.4083 H   0  0  0  0  0  0  0  0  0  0  0  0
    4.4629   -1.3828   -4.7334 H   0  0  0  0  0  0  0  0  0  0  0  0
    2.8715   -0.5582   -4.6168 H   0  0  0  0  0  0  0  0  0  0  0  0
    4.3840    0.4100   -4.6560 H   0  0  0  0  0  0  0  0  0  0  0  0
  1  3  1  0  0  0  0
  1  7  1  0  0  0  0
  1  2  2  0  0  0  0
 30 31  1  0  0  0  0
 31 39  1  0  0  0  0
 31 32  2  0  0  0  0
  8  9  1  0  0  0  0
  9 17  1  0  0  0  0
  9 10  2  0  0  0  0
 18 19  1  0  0  0  0
 19 29  1  0  0  0  0
 19 20  2  0  0  0  0
 21 22  1  0  0  0  0
 22 23  1  0  0  0  0
 22 24  2  0  0  0  0
 30 33  1  0  0  0  0
  8 11  1  0  0  0  0
 39 40  1  0  0  0  0
 18 21  1  0  0  0  0
 29 30  1  0  0  0  0
  7  8  1  0  0  0  0
 17 18  1  0  0  0  0
  3  4  1  0  0  0  0
  3  5  1  0  0  0  0
  3  6  1  0  0  0  0
 33 36  1  0  0  0  0
 33 37  1  0  0  0  0
 33 38  1  0  0  0  0
 11 14  1  0  0  0  0
 11 15  1  0  0  0  0
 11 16  1  0  0  0  0
 40 42  1  0  0  0  0
 40 43  1  0  0  0  0
 40 44  1  0  0  0  0
 21 27  1  0  0  0  0
 21 28  1  0  0  0  0
 30 35  1  0  0  0  0
  8 13  1  0  0  0  0
 18 26  1  0  0  0  0
 39 41  1  0  0  0  0
  7 12  1  0  0  0  0
 29 34  1  0  0  0  0
 17 25  1  0  0  0  0
M  CHG  1  23  -1
M  END
$$$$

  -OEChem-05262214473D

 44 43  0     1  0  0  0  0  0999 V2000
   -4.0256   -1.8030   -2.1581 C   0  0  0  0  0  0  0  0  0  0  0  0
   -3.7513   -2.6782   -2.9709 O   0  0  0  0  0  0  0  0  0  0  0  0
   -5.3491   -1.1169   -2.2339 C   0  0  0  0  0  0  0  0  0  0  0  0
   -5.3223   -0.2211   -2.8750 H   0  0  0  0  0  0  0  0  0  0  0  0
   -6.1322   -1.7605   -2.6658 H   0  0  0  0  0  0  0  0  0  0  0  0
   -5.7568   -0.7715   -1.2704 H   0  0  0  0  0  0  0  0  0  0  0  0
   -3.2124   -1.3578   -1.1289 N   0  0  0  0  0  0  0  0  0  0  0  0
   -1.8971   -1.8843   -0.8752 C   0  0  2  0  0  0  0  0  0  0  0  0
   -1.2676   -1.0599    0.2399 C   0  0  0  0  0  0  0  0  0  0  0  0
   -1.6270    0.0833    0.5138 O   0  0  0  0  0  0  0  0  0  0  0  0
   -1.0364   -1.8506   -2.1285 C   0  0  0  0  0  0  0  0  0  0  0  0
   -3.5631   -0.6202   -0.5206 H   0  0  0  0  0  0  0  0  0  0  0  0
   -2.0301   -2.9174   -0.5360 H   0  0  0  0  0  0  0  0  0  0  0  0
   -0.8921   -0.8236   -2.4833 H   0  0  0  0  0  0  0  0  0  0  0  0
   -0.0457   -2.2777   -1.9410 H   0  0  0  0  0  0  0  0  0  0  0  0
   -1.5052   -2.4193   -2.9387 H   0  0  0  0  0  0  0  0  0  0  0  0
   -0.2267   -1.7335    0.8672 N   0  0  0  0  0  0  0  0  0  0  0  0
    0.5363   -1.1590    1.9465 C   0  0  2  0  0  0  0  0  0  0  0  0
    1.8905   -0.7549    1.3751 C   0  0  0  0  0  0  0  0  0  0  0  0
    2.7892   -0.2701    2.0596 O   0  0  0  0  0  0  0  0  0  0  0  0
    0.7132   -2.1411    3.1022 C   0  0  0  0  0  0  0  0  0  0  0  0
   -0.5483   -2.4841    3.9047 C   0  0  0  0  0  0  0  0  0  0  0  0
   -1.4113   -1.5592    3.9302 O   0  5  0  0  0  0  0  0  0  0  0  0
   -0.5814   -3.6226    4.4467 O   0  0  0  0  0  0  0  0  0  0  0  0
   -0.0113   -2.6869    0.5854 H   0  0  0  0  0  0  0  0  0  0  0  0
   -0.0014   -0.2603    2.2691 H   0  0  0  0  0  0  0  0  0  0  0  0
    1.4646   -1.7539    3.8041 H   0  0  0  0  0  0  0  0  0  0  0  0
    1.1059   -3.0929    2.7214 H   0  0  0  0  0  0  0  0  0  0  0  0
    1.9945   -1.0478    0.0225 N   0  0  0  0  0  0  0  0  0  0  0  0
    3.1913   -0.7895   -0.7439 C   0  0  2  0  0  0  0  0  0  0  0  0
    2.7750   -0.4791   -2.1756 C   0  0  0  0  0  0  0  0  0  0  0  0
    1.7027   -0.8405   -2.6558 O   0  0  0  0  0  0  0  0  0  0  0  0
    4.1433   -1.9746   -0.6995 C   0  0  0  0  0  0  0  0  0  0  0  0
    1.2155   -1.4935   -0.4532 H   0  0  0  0  0  0  0  0  0  0  0  0
    3.6658    0.0931   -0.3014 H   0  0  0  0  0  0  0  0  0  0  0  0
    3.6852   -2.8684   -1.1386 H   0  0  0  0  0  0  0  0  0  0  0  0
    5.0623   -1.7663   -1.2572 H   0  0  0  0  0  0  0  0  0  0  0  0
    4.4182   -2.2152    0.3332 H   0  0  0  0  0  0  0  0  0  0  0  0
    3.7601    0.2117   -2.8674 N   0  0  0  0  0  0  0  0  0  0  0  0
    3.6095    0.6111   -4.2472 C   0  0  0  0  0  0  0  0  0  0  0  0
    4.6103    0.4868   -2.3845 H   0  0  0  0  0  0  0  0  0  0  0  0
    4.0287   -0.1666   -4.9024 H   0  0  0  0  0  0  0  0  0  0  0  0
    2.5419    0.7463   -4.4752 H   0  0  0  0  0  0  0  0  0  0  0  0
    4.1430    1.5584   -4.4149 H   0  0  0  0  0  0  0  0  0  0  0  0
  1  3  1  0  0  0  0
  1  7  1  0  0  0  0
  1  2  2  0  0  0  0
 30 31  1  0  0  0  0
 31 39  1  0  0  0  0
 31 32  2  0  0  0  0
  8  9  1  0  0  0  0
  9 17  1  0  0  0  0
  9 10  2  0  0  0  0
 18 19  1  0  0  0  0
 19 29  1  0  0  0  0
 19 20  2  0  0  0  0
 21 22  1  0  0  0  0
 22 23  1  0  0  0  0
 22 24  2  0  0  0  0
 30 33  1  0  0  0  0
  8 11  1  0  0  0  0
 39 40  1  0  0  0  0
 18 21  1  0  0  0  0
 29 30  1  0  0  0  0
  7  8  1  0  0  0  0
 17 18  1  0  0  0  0
  3  4  1  0  0  0  0
  3  5  1  0  0  0  0
  3  6  1  0  0  0  0
 33 36  1  0  0  0  0
 33 37  1  0  0  0  0
 33 38  1  0  0  0  0
 11 14  1  0  0  0  0
 11 15  1  0  0  0  0
 11 16  1  0  0  0  0
 40 42  1  0  0  0  0
 40 43  1  0  0  0  0
 40 44  1  0  0  0  0
 21 27  1  0  0  0  0
 21 28  1  0  0  0  0
 30 35  1  0  0  0  0
  8 13  1  0  0  0  0
 18 26  1  0  0  0  0
 39 41  1  0  0  0  0
  7 12  1  0  0  0  0
 29 34  1  0  0  0  0
 17 25  1  0  0  0  0
M  CHG  1  23  -1
M  END
$$$$

  -OEChem-05262214473D

 44 43  0     1  0  0  0  0  0999 V2000
   -4.0256   -1.8030   -2.1581 C   0  0  0  0  0  0  0  0  0  0  0  0
   -3.7513   -2.6782   -2.9709 O   0  0  0  0  0  0  0  0  0  0  0  0
   -5.3491   -1.1169   -2.2339 C   0  0  0  0  0  0  0  0  0  0  0  0
   -5.3223   -0.2211   -2.8750 H   0  0  0  0  0  0  0  0  0  0  0  0
   -6.1322   -1.7605   -2.6658 H   0  0  0  0  0  0  0  0  0  0  0  0
   -5.7568   -0.7715   -1.2704 H   0  0  0  0  0  0  0  0  0  0  0  0
   -3.2124   -1.3578   -1.1289 N   0  0  0  0  0  0  0  0  0  0  0  0
   -1.8971   -1.8843   -0.8752 C   0  0  2  0  0  0  0  0  0  0  0  0
   -1.2676   -1.0599    0.2399 C   0  0  0  0  0  0  0  0  0  0  0  0
   -1.6270    0.0833    0.5138 O   0  0  0  0  0  0  0  0  0  0  0  0
   -1.0364   -1.8506   -2.1285 C   0  0  0  0  0  0  0  0  0  0  0  0
   -3.5631   -0.6202   -0.5206 H   0  0  0  0  0  0  0  0  0  0  0  0
   -2.0301   -2.9174   -0.5360 H   0  0  0  0  0  0  0  0  0  0  0  0
   -0.8921   -0.8236   -2.4833 H   0  0  0  0  0  0  0  0  0  0  0  0
   -0.0457   -2.2777   -1.9410 H   0  0  0  0  0  0  0  0  0  0  0  0
   -1.5052   -2.4193   -2.9387 H   0  0  0  0  0  0  0  0  0  0  0  0
   -0.2267   -1.7335    0.8672 N   0  0  0  0  0  0  0  0  0  0  0  0
    0.5363   -1.1590    1.9465 C   0  0  2  0  0  0  0  0  0  0  0  0
    1.8905   -0.7549    1.3751 C   0  0  0  0  0  0  0  0  0  0  0  0
    2.8729   -0.5251    2.0775 O   0  0  0  0  0  0  0  0  0  0  0  0
    0.7132   -2.1411    3.1022 C   0  0  0  0  0  0  0  0  0  0  0  0
   -0.5483   -2.4841    3.9047 C   0  0  0  0  0  0  0  0  0  0  0  0
   -1.4113   -1.5592    3.9302 O   0  5  0  0  0  0  0  0  0  0  0  0
   -0.5814   -3.6226    4.4467 O   0  0  0  0  0  0  0  0  0  0  0  0
   -0.0113   -2.6869    0.5854 H   0  0  0  0  0  0  0  0  0  0  0  0
   -0.0014   -0.2603    2.2691 H   0  0  0  0  0  0  0  0  0  0  0  0
    1.4646   -1.7539    3.8041 H   0  0  0  0  0  0  0  0  0  0  0  0
    1.1059   -3.0929    2.7214 H   0  0  0  0  0  0  0  0  0  0  0  0
    1.8855   -0.7322   -0.0126 N   0  0  0  0  0  0  0  0  0  0  0  0
    3.0569   -0.4098   -0.7937 C   0  0  2  0  0  0  0  0  0  0  0  0
    2.5943    0.2619   -2.0799 C   0  0  0  0  0  0  0  0  0  0  0  0
    1.4642    0.1194   -2.5421 O   0  0  0  0  0  0  0  0  0  0  0  0
    3.8802   -1.6524   -1.0952 C   0  0  0  0  0  0  0  0  0  0  0  0
    1.0380   -0.9835   -0.5130 H   0  0  0  0  0  0  0  0  0  0  0  0
    3.6462    0.2994   -0.2022 H   0  0  0  0  0  0  0  0  0  0  0  0
    3.3064   -2.3746   -1.6873 H   0  0  0  0  0  0  0  0  0  0  0  0
    4.7826   -1.4024   -1.6629 H   0  0  0  0  0  0  0  0  0  0  0  0
    4.1870   -2.1507   -0.1693 H   0  0  0  0  0  0  0  0  0  0  0  0
    3.6053    1.0046   -2.6737 N   0  0  0  0  0  0  0  0  0  0  0  0
    3.4187    1.7267   -3.9105 C   0  0  0  0  0  0  0  0  0  0  0  0
    4.5059    1.0826   -2.2105 H   0  0  0  0  0  0  0  0  0  0  0  0
    3.7156    1.0891   -4.7563 H   0  0  0  0  0  0  0  0  0  0  0  0
    2.3599    2.0058   -4.0159 H   0  0  0  0  0  0  0  0  0  0  0  0
    4.0383    2.6355   -3.9014 H   0  0  0  0  0  0  0  0  0  0  0  0
  1  3  1  0  0  0  0
  1  7  1  0  0  0  0
  1  2  2  0  0  0  0
 30 31  1  0  0  0  0
 31 39  1  0  0  0  0
 31 32  2  0  0  0  0
  8  9  1  0  0  0  0
  9 17  1  0  0  0  0
  9 10  2  0  0  0  0
 18 19  1  0  0  0  0
 19 29  1  0  0  0  0
 19 20  2  0  0  0  0
 21 22  1  0  0  0  0
 22 23  1  0  0  0  0
 22 24  2  0  0  0  0
 30 33  1  0  0  0  0
  8 11  1  0  0  0  0
 39 40  1  0  0  0  0
 18 21  1  0  0  0  0
 29 30  1  0  0  0  0
  7  8  1  0  0  0  0
 17 18  1  0  0  0  0
  3  4  1  0  0  0  0
  3  5  1  0  0  0  0
  3  6  1  0  0  0  0
 33 36  1  0  0  0  0
 33 37  1  0  0  0  0
 33 38  1  0  0  0  0
 11 14  1  0  0  0  0
 11 15  1  0  0  0  0
 11 16  1  0  0  0  0
 40 42  1  0  0  0  0
 40 43  1  0  0  0  0
 40 44  1  0  0  0  0
 21 27  1  0  0  0  0
 21 28  1  0  0  0  0
 30 35  1  0  0  0  0
  8 13  1  0  0  0  0
 18 26  1  0  0  0  0
 39 41  1  0  0  0  0
  7 12  1  0  0  0  0
 29 34  1  0  0  0  0
 17 25  1  0  0  0  0
M  CHG  1  23  -1
M  END
$$$$

  -OEChem-05262214473D

 44 43  0     1  0  0  0  0  0999 V2000
   -4.0256   -1.8030   -2.1581 C   0  0  0  0  0  0  0  0  0  0  0  0
   -3.7513   -2.6782   -2.9709 O   0  0  0  0  0  0  0  0  0  0  0  0
   -5.3491   -1.1169   -2.2339 C   0  0  0  0  0  0  0  0  0  0  0  0
   -5.3223   -0.2211   -2.8750 H   0  0  0  0  0  0  0  0  0  0  0  0
   -6.1322   -1.7605   -2.6658 H   0  0  0  0  0  0  0  0  0  0  0  0
   -5.7568   -0.7715   -1.2704 H   0  0  0  0  0  0  0  0  0  0  0  0
   -3.2124   -1.3578   -1.1289 N   0  0  0  0  0  0  0  0  0  0  0  0
   -1.8971   -1.8843   -0.8752 C   0  0  2  0  0  0  0  0  0  0  0  0
   -1.2676   -1.0599    0.2399 C   0  0  0  0  0  0  0  0  0  0  0  0
   -1.6270    0.0833    0.5138 O   0  0  0  0  0  0  0  0  0  0  0  0
   -1.0364   -1.8506   -2.1285 C   0  0  0  0  0  0  0  0  0  0  0  0
   -3.5631   -0.6202   -0.5206 H   0  0  0  0  0  0  0  0  0  0  0  0
   -2.0301   -2.9174   -0.5360 H   0  0  0  0  0  0  0  0  0  0  0  0
   -0.8921   -0.8236   -2.4833 H   0  0  0  0  0  0  0  0  0  0  0  0
   -0.0457   -2.2777   -1.9410 H   0  0  0  0  0  0  0  0  0  0  0  0
   -1.5052   -2.4193   -2.9387 H   0  0  0  0  0  0  0  0  0  0  0  0
   -0.2267   -1.7335    0.8672 N   0  0  0  0  0  0  0  0  0  0  0  0
    0.5363   -1.1590    1.9465 C   0  0  2  0  0  0  0  0  0  0  0  0
    1.8905   -0.7549    1.3751 C   0  0  0  0  0  0  0  0  0  0  0  0
    2.9302   -0.7837    2.0304 O   0  0  0  0  0  0  0  0  0  0  0  0
    0.7132   -2.1411    3.1022 C   0  0  0  0  0  0  0  0  0  0  0  0
   -0.5483   -2.4841    3.9047 C   0  0  0  0  0  0  0  0  0  0  0  0
   -1.4113   -1.5592    3.9302 O   0  5  0  0  0  0  0  0  0  0  0  0
   -0.5814   -3.6226    4.4467 O   0  0  0  0  0  0  0  0  0  0  0  0
   -0.0113   -2.6869    0.5854 H   0  0  0  0  0  0  0  0  0  0  0  0
   -0.0014   -0.2603    2.2691 H   0  0  0  0  0  0  0  0  0  0  0  0
    1.4646   -1.7539    3.8041 H   0  0  0  0  0  0  0  0  0  0  0  0
    1.1059   -3.0929    2.7214 H   0  0  0  0  0  0  0  0  0  0  0  0
    1.8084   -0.4087    0.0336 N   0  0  0  0  0  0  0  0  0  0  0  0
    2.9606   -0.0185   -0.7453 C   0  0  2  0  0  0  0  0  0  0  0  0
    2.4982    0.9732   -1.8046 C   0  0  0  0  0  0  0  0  0  0  0  0
    1.3347    1.0436   -2.1952 O   0  0  0  0  0  0  0  0  0  0  0  0
    3.6302   -1.2246   -1.3853 C   0  0  0  0  0  0  0  0  0  0  0  0
    0.9120   -0.4598   -0.4413 H   0  0  0  0  0  0  0  0  0  0  0  0
    3.6540    0.4778   -0.0575 H   0  0  0  0  0  0  0  0  0  0  0  0
    2.9507   -1.7348   -2.0777 H   0  0  0  0  0  0  0  0  0  0  0  0
    4.5198   -0.9304   -1.9518 H   0  0  0  0  0  0  0  0  0  0  0  0
    3.9354   -1.9505   -0.6239 H   0  0  0  0  0  0  0  0  0  0  0  0
    3.5459    1.7409   -2.2936 N   0  0  0  0  0  0  0  0  0  0  0  0
    3.3656    2.7453   -3.3157 C   0  0  0  0  0  0  0  0  0  0  0  0
    4.4748    1.6283   -1.8984 H   0  0  0  0  0  0  0  0  0  0  0  0
    3.5450    2.2989   -4.3049 H   0  0  0  0  0  0  0  0  0  0  0  0
    2.3378    3.1343   -3.2701 H   0  0  0  0  0  0  0  0  0  0  0  0
    4.0768    3.5681   -3.1505 H   0  0  0  0  0  0  0  0  0  0  0  0
  1  3  1  0  0  0  0
  1  7  1  0  0  0  0
  1  2  2  0  0  0  0
 30 31  1  0  0  0  0
 31 39  1  0  0  0  0
 31 32  2  0  0  0  0
  8  9  1  0  0  0  0
  9 17  1  0  0  0  0
  9 10  2  0  0  0  0
 18 19  1  0  0  0  0
 19 29  1  0  0  0  0
 19 20  2  0  0  0  0
 21 22  1  0  0  0  0
 22 23  1  0  0  0  0
 22 24  2  0  0  0  0
 30 33  1  0  0  0  0
  8 11  1  0  0  0  0
 39 40  1  0  0  0  0
 18 21  1  0  0  0  0
 29 30  1  0  0  0  0
  7  8  1  0  0  0  0
 17 18  1  0  0  0  0
  3  4  1  0  0  0  0
  3  5  1  0  0  0  0
  3  6  1  0  0  0  0
 33 36  1  0  0  0  0
 33 37  1  0  0  0  0
 33 38  1  0  0  0  0
 11 14  1  0  0  0  0
 11 15  1  0  0  0  0
 11 16  1  0  0  0  0
 40 42  1  0  0  0  0
 40 43  1  0  0  0  0
 40 44  1  0  0  0  0
 21 27  1  0  0  0  0
 21 28  1  0  0  0  0
 30 35  1  0  0  0  0
  8 13  1  0  0  0  0
 18 26  1  0  0  0  0
 39 41  1  0  0  0  0
  7 12  1  0  0  0  0
 29 34  1  0  0  0  0
 17 25  1  0  0  0  0
M  CHG  1  23  -1
M  END
$$$$

  -OEChem-05262214473D

 44 43  0     1  0  0  0  0  0999 V2000
   -4.0256   -1.8030   -2.1581 C   0  0  0  0  0  0  0  0  0  0  0  0
   -3.7513   -2.6782   -2.9709 O   0  0  0  0  0  0  0  0  0  0  0  0
   -5.3491   -1.1169   -2.2339 C   0  0  0  0  0  0  0  0  0  0  0  0
   -5.3223   -0.2211   -2.8750 H   0  0  0  0  0  0  0  0  0  0  0  0
   -6.1322   -1.7605   -2.6658 H   0  0  0  0  0  0  0  0  0  0  0  0
   -5.7568   -0.7715   -1.2704 H   0  0  0  0  0  0  0  0  0  0  0  0
   -3.2124   -1.3578   -1.1289 N   0  0  0  0  0  0  0  0  0  0  0  0
   -1.8971   -1.8843   -0.8752 C   0  0  2  0  0  0  0  0  0  0  0  0
   -1.2676   -1.0599    0.2399 C   0  0  0  0  0  0  0  0  0  0  0  0
   -1.6270    0.0833    0.5138 O   0  0  0  0  0  0  0  0  0  0  0  0
   -1.0364   -1.8506   -2.1285 C   0  0  0  0  0  0  0  0  0  0  0  0
   -3.5631   -0.6202   -0.5206 H   0  0  0  0  0  0  0  0  0  0  0  0
   -2.0301   -2.9174   -0.5360 H   0  0  0  0  0  0  0  0  0  0  0  0
   -0.8921   -0.8236   -2.4833 H   0  0  0  0  0  0  0  0  0  0  0  0
   -0.0457   -2.2777   -1.9410 H   0  0  0  0  0  0  0  0  0  0  0  0
   -1.5052   -2.4193   -2.9387 H   0  0  0  0  0  0  0  0  0  0  0  0
   -0.2267   -1.7335    0.8672 N   0  0  0  0  0  0  0  0  0  0  0  0
    0.5363   -1.1590    1.9465 C   0  0  2  0  0  0  0  0  0  0  0  0
    1.8905   -0.7549    1.3751 C   0  0  0  0  0  0  0  0  0  0  0  0
    2.9573   -1.0282    1.9216 O   0  0  0  0  0  0  0  0  0  0  0  0
    0.7132   -2.1411    3.1022 C   0  0  0  0  0  0  0  0  0  0  0  0
   -0.5483   -2.4841    3.9047 C   0  0  0  0  0  0  0  0  0  0  0  0
   -1.4113   -1.5592    3.9302 O   0  5  0  0  0  0  0  0  0  0  0  0
   -0.5814   -3.6226    4.4467 O   0  0  0  0  0  0  0  0  0  0  0  0
   -0.0113   -2.6869    0.5854 H   0  0  0  0  0  0  0  0  0  0  0  0
   -0.0014   -0.2603    2.2691 H   0  0  0  0  0  0  0  0  0  0  0  0
    1.4646   -1.7539    3.8041 H   0  0  0  0  0  0  0  0  0  0  0  0
    1.1059   -3.0929    2.7214 H   0  0  0  0  0  0  0  0  0  0  0  0
    1.7686   -0.0994    0.1579 N   0  0  0  0  0  0  0  0  0  0  0  0
    2.9088    0.3577   -0.6019 C   0  0  2  0  0  0  0  0  0  0  0  0
    2.4932    1.6063   -1.3686 C   0  0  0  0  0  0  0  0  0  0  0  0
    1.3232    1.8691   -1.6388 O   0  0  0  0  0  0  0  0  0  0  0  0
    3.4103   -0.7205   -1.5499 C   0  0  0  0  0  0  0  0  0  0  0  0
    0.8460    0.0417   -0.2431 H   0  0  0  0  0  0  0  0  0  0  0  0
    3.6887    0.6161    0.1227 H   0  0  0  0  0  0  0  0  0  0  0  0
    2.6424   -0.9925   -2.2834 H   0  0  0  0  0  0  0  0  0  0  0  0
    4.2920   -0.3826   -2.1044 H   0  0  0  0  0  0  0  0  0  0  0  0
    3.6807   -1.6282   -0.9997 H   0  0  0  0  0  0  0  0  0  0  0  0
    3.5860    2.3705   -1.7531 N   0  0  0  0  0  0  0  0  0  0  0  0
    3.4541    3.5976   -2.5033 C   0  0  0  0  0  0  0  0  0  0  0  0
    4.5191    2.0866   -1.4693 H   0  0  0  0  0  0  0  0  0  0  0  0
    3.5286    3.3801   -3.5790 H   0  0  0  0  0  0  0  0  0  0  0  0
    2.4770    4.0551   -2.2887 H   0  0  0  0  0  0  0  0  0  0  0  0
    4.2560    4.2925   -2.2134 H   0  0  0  0  0  0  0  0  0  0  0  0
  1  3  1  0  0  0  0
  1  7  1  0  0  0  0
  1  2  2  0  0  0  0
 30 31  1  0  0  0  0
 31 39  1  0  0  0  0
 31 32  2  0  0  0  0
  8  9  1  0  0  0  0
  9 17  1  0  0  0  0
  9 10  2  0  0  0  0
 18 19  1  0  0  0  0
 19 29  1  0  0  0  0
 19 20  2  0  0  0  0
 21 22  1  0  0  0  0
 22 23  1  0  0  0  0
 22 24  2  0  0  0  0
 30 33  1  0  0  0  0
  8 11  1  0  0  0  0
 39 40  1  0  0  0  0
 18 21  1  0  0  0  0
 29 30  1  0  0  0  0
  7  8  1  0  0  0  0
 17 18  1  0  0  0  0
  3  4  1  0  0  0  0
  3  5  1  0  0  0  0
  3  6  1  0  0  0  0
 33 36  1  0  0  0  0
 33 37  1  0  0  0  0
 33 38  1  0  0  0  0
 11 14  1  0  0  0  0
 11 15  1  0  0  0  0
 11 16  1  0  0  0  0
 40 42  1  0  0  0  0
 40 43  1  0  0  0  0
 40 44  1  0  0  0  0
 21 27  1  0  0  0  0
 21 28  1  0  0  0  0
 30 35  1  0  0  0  0
  8 13  1  0  0  0  0
 18 26  1  0  0  0  0
 39 41  1  0  0  0  0
  7 12  1  0  0  0  0
 29 34  1  0  0  0  0
 17 25  1  0  0  0  0
M  CHG  1  23  -1
M  END
$$$$

  -OEChem-05262214473D

 44 43  0     1  0  0  0  0  0999 V2000
   -4.0256   -1.8030   -2.1581 C   0  0  0  0  0  0  0  0  0  0  0  0
   -3.7513   -2.6782   -2.9709 O   0  0  0  0  0  0  0  0  0  0  0  0
   -5.3491   -1.1169   -2.2339 C   0  0  0  0  0  0  0  0  0  0  0  0
   -5.3223   -0.2211   -2.8750 H   0  0  0  0  0  0  0  0  0  0  0  0
   -6.1322   -1.7605   -2.6658 H   0  0  0  0  0  0  0  0  0  0  0  0
   -5.7568   -0.7715   -1.2704 H   0  0  0  0  0  0  0  0  0  0  0  0
   -3.2124   -1.3578   -1.1289 N   0  0  0  0  0  0  0  0  0  0  0  0
   -1.8971   -1.8843   -0.8752 C   0  0  2  0  0  0  0  0  0  0  0  0
   -1.2676   -1.0599    0.2399 C   0  0  0  0  0  0  0  0  0  0  0  0
   -1.6270    0.0833    0.5138 O   0  0  0  0  0  0  0  0  0  0  0  0
   -1.0364   -1.8506   -2.1285 C   0  0  0  0  0  0  0  0  0  0  0  0
   -3.5631   -0.6202   -0.5206 H   0  0  0  0  0  0  0  0  0  0  0  0
   -2.0301   -2.9174   -0.5360 H   0  0  0  0  0  0  0  0  0  0  0  0
   -0.8921   -0.8236   -2.4833 H   0  0  0  0  0  0  0  0  0  0  0  0
   -0.0457   -2.2777   -1.9410 H   0  0  0  0  0  0  0  0  0  0  0  0
   -1.5052   -2.4193   -2.9387 H   0  0  0  0  0  0  0  0  0  0  0  0
   -0.2267   -1.7335    0.8672 N   0  0  0  0  0  0  0  0  0  0  0  0
    0.5363   -1.1590    1.9465 C   0  0  2  0  0  0  0  0  0  0  0  0
    1.8905   -0.7549    1.3751 C   0  0  0  0  0  0  0  0  0  0  0  0
    2.9522   -1.2419    1.7584 O   0  0  0  0  0  0  0  0  0  0  0  0
    0.7132   -2.1411    3.1022 C   0  0  0  0  0  0  0  0  0  0  0  0
   -0.5483   -2.4841    3.9047 C   0  0  0  0  0  0  0  0  0  0  0  0
   -1.4113   -1.5592    3.9302 O   0  5  0  0  0  0  0  0  0  0  0  0
   -0.5814   -3.6226    4.4467 O   0  0  0  0  0  0  0  0  0  0  0  0
   -0.0113   -2.6869    0.5854 H   0  0  0  0  0  0  0  0  0  0  0  0
   -0.0014   -0.2603    2.2691 H   0  0  0  0  0  0  0  0  0  0  0  0
    1.4646   -1.7539    3.8041 H   0  0  0  0  0  0  0  0  0  0  0  0
    1.1059   -3.0929    2.7214 H   0  0  0  0  0  0  0  0  0  0  0  0
    1.7686    0.1747    0.3518 N   0  0  0  0  0  0  0  0  0  0  0  0
    2.9052    0.6931   -0.3734 C   0  0  2  0  0  0  0  0  0  0  0  0
    2.5798    2.1180   -0.8015 C   0  0  0  0  0  0  0  0  0  0  0  0
    1.4303    2.5397   -0.9107 O   0  0  0  0  0  0  0  0  0  0  0  0
    3.2355   -0.1744   -1.5780 C   0  0  0  0  0  0  0  0  0  0  0  0
    0.8445    0.4870    0.0683 H   0  0  0  0  0  0  0  0  0  0  0  0
    3.7481    0.7048    0.3262 H   0  0  0  0  0  0  0  0  0  0  0  0
    2.4026   -0.1983   -2.2902 H   0  0  0  0  0  0  0  0  0  0  0  0
    4.1146    0.2038   -2.1102 H   0  0  0  0  0  0  0  0  0  0  0  0
    3.4401   -1.2058   -1.2712 H   0  0  0  0  0  0  0  0  0  0  0  0
    3.7230    2.8505   -1.0890 N   0  0  0  0  0  0  0  0  0  0  0  0
    3.6779    4.2255   -1.5287 C   0  0  0  0  0  0  0  0  0  0  0  0
    4.6358    2.4263   -0.9524 H   0  0  0  0  0  0  0  0  0  0  0  0
    3.6675    4.2593   -2.6282 H   0  0  0  0  0  0  0  0  0  0  0  0
    2.7682    4.7054   -1.1386 H   0  0  0  0  0  0  0  0  0  0  0  0
    4.5636    4.7594   -1.1540 H   0  0  0  0  0  0  0  0  0  0  0  0
  1  3  1  0  0  0  0
  1  7  1  0  0  0  0
  1  2  2  0  0  0  0
 30 31  1  0  0  0  0
 31 39  1  0  0  0  0
 31 32  2  0  0  0  0
  8  9  1  0  0  0  0
  9 17  1  0  0  0  0
  9 10  2  0  0  0  0
 18 19  1  0  0  0  0
 19 29  1  0  0  0  0
 19 20  2  0  0  0  0
 21 22  1  0  0  0  0
 22 23  1  0  0  0  0
 22 24  2  0  0  0  0
 30 33  1  0  0  0  0
  8 11  1  0  0  0  0
 39 40  1  0  0  0  0
 18 21  1  0  0  0  0
 29 30  1  0  0  0  0
  7  8  1  0  0  0  0
 17 18  1  0  0  0  0
  3  4  1  0  0  0  0
  3  5  1  0  0  0  0
  3  6  1  0  0  0  0
 33 36  1  0  0  0  0
 33 37  1  0  0  0  0
 33 38  1  0  0  0  0
 11 14  1  0  0  0  0
 11 15  1  0  0  0  0
 11 16  1  0  0  0  0
 40 42  1  0  0  0  0
 40 43  1  0  0  0  0
 40 44  1  0  0  0  0
 21 27  1  0  0  0  0
 21 28  1  0  0  0  0
 30 35  1  0  0  0  0
  8 13  1  0  0  0  0
 18 26  1  0  0  0  0
 39 41  1  0  0  0  0
  7 12  1  0  0  0  0
 29 34  1  0  0  0  0
 17 25  1  0  0  0  0
M  CHG  1  23  -1
M  END
$$$$

  -OEChem-05262214473D

 44 43  0     1  0  0  0  0  0999 V2000
   -4.0256   -1.8030   -2.1581 C   0  0  0  0  0  0  0  0  0  0  0  0
   -3.7513   -2.6782   -2.9709 O   0  0  0  0  0  0  0  0  0  0  0  0
   -5.3491   -1.1169   -2.2339 C   0  0  0  0  0  0  0  0  0  0  0  0
   -5.3223   -0.2211   -2.8750 H   0  0  0  0  0  0  0  0  0  0  0  0
   -6.1322   -1.7605   -2.6658 H   0  0  0  0  0  0  0  0  0  0  0  0
   -5.7568   -0.7715   -1.2704 H   0  0  0  0  0  0  0  0  0  0  0  0
   -3.2124   -1.3578   -1.1289 N   0  0  0  0  0  0  0  0  0  0  0  0
   -1.8971   -1.8843   -0.8752 C   0  0  2  0  0  0  0  0  0  0  0  0
   -1.2676   -1.0599    0.2399 C   0  0  0  0  0  0  0  0  0  0  0  0
   -1.6270    0.0833    0.5138 O   0  0  0  0  0  0  0  0  0  0  0  0
   -1.0364   -1.8506   -2.1285 C   0  0  0  0  0  0  0  0  0  0  0  0
   -3.5631   -0.6202   -0.5206 H   0  0  0  0  0  0  0  0  0  0  0  0
   -2.0301   -2.9174   -0.5360 H   0  0  0  0  0  0  0  0  0  0  0  0
   -0.8921   -0.8236   -2.4833 H   0  0  0  0  0  0  0  0  0  0  0  0
   -0.0457   -2.2777   -1.9410 H   0  0  0  0  0  0  0  0  0  0  0  0
   -1.5052   -2.4193   -2.9387 H   0  0  0  0  0  0  0  0  0  0  0  0
   -0.2267   -1.7335    0.8672 N   0  0  0  0  0  0  0  0  0  0  0  0
    0.5363   -1.1590    1.9465 C   0  0  2  0  0  0  0  0  0  0  0  0
    1.8905   -0.7549    1.3751 C   0  0  0  0  0  0  0  0  0  0  0  0
    2.9154   -1.4104    1.5519 O   0  0  0  0  0  0  0  0  0  0  0  0
    0.7132   -2.1411    3.1022 C   0  0  0  0  0  0  0  0  0  0  0  0
   -0.5483   -2.4841    3.9047 C   0  0  0  0  0  0  0  0  0  0  0  0
   -1.4113   -1.5592    3.9302 O   0  5  0  0  0  0  0  0  0  0  0  0
   -0.5814   -3.6226    4.4467 O   0  0  0  0  0  0  0  0  0  0  0  0
   -0.0113   -2.6869    0.5854 H   0  0  0  0  0  0  0  0  0  0  0  0
   -0.0014   -0.2603    2.2691 H   0  0  0  0  0  0  0  0  0  0  0  0
    1.4646   -1.7539    3.8041 H   0  0  0  0  0  0  0  0  0  0  0  0
    1.1059   -3.0929    2.7214 H   0  0  0  0  0  0  0  0  0  0  0  0
    1.8085    0.3949    0.6021 N   0  0  0  0  0  0  0  0  0  0  0  0
    2.9498    0.9649   -0.0753 C   0  0  2  0  0  0  0  0  0  0  0  0
    2.7519    2.4735   -0.1420 C   0  0  0  0  0  0  0  0  0  0  0  0
    1.6487    3.0096   -0.0605 O   0  0  0  0  0  0  0  0  0  0  0  0
    3.1177    0.3766   -1.4675 C   0  0  0  0  0  0  0  0  0  0  0  0
    0.9076    0.8456    0.4716 H   0  0  0  0  0  0  0  0  0  0  0  0
    3.8280    0.7380    0.5390 H   0  0  0  0  0  0  0  0  0  0  0  0
    2.2474    0.5937   -2.0977 H   0  0  0  0  0  0  0  0  0  0  0  0
    3.9997    0.7887   -1.9687 H   0  0  0  0  0  0  0  0  0  0  0  0
    3.2301   -0.7119   -1.4197 H   0  0  0  0  0  0  0  0  0  0  0  0
    3.9474    3.1481   -0.3466 N   0  0  0  0  0  0  0  0  0  0  0  0
    4.0219    4.5862   -0.4583 C   0  0  0  0  0  0  0  0  0  0  0  0
    4.8169    2.6243   -0.3831 H   0  0  0  0  0  0  0  0  0  0  0  0
    3.9521    4.8763   -1.5171 H   0  0  0  0  0  0  0  0  0  0  0  0
    3.1915    5.0408    0.1018 H   0  0  0  0  0  0  0  0  0  0  0  0
    4.9788    4.9369   -0.0444 H   0  0  0  0  0  0  0  0  0  0  0  0
  1  3  1  0  0  0  0
  1  7  1  0  0  0  0
  1  2  2  0  0  0  0
 30 31  1  0  0  0  0
 31 39  1  0  0  0  0
 31 32  2  0  0  0  0
  8  9  1  0  0  0  0
  9 17  1  0  0  0  0
  9 10  2  0  0  0  0
 18 19  1  0  0  0  0
 19 29  1  0  0  0  0
 19 20  2  0  0  0  0
 21 22  1  0  0  0  0
 22 23  1  0  0  0  0
 22 24  2  0  0  0  0
 30 33  1  0  0  0  0
  8 11  1  0  0  0  0
 39 40  1  0  0  0  0
 18 21  1  0  0  0  0
 29 30  1  0  0  0  0
  7  8  1  0  0  0  0
 17 18  1  0  0  0  0
  3  4  1  0  0  0  0
  3  5  1  0  0  0  0
  3  6  1  0  0  0  0
 33 36  1  0  0  0  0
 33 37  1  0  0  0  0
 33 38  1  0  0  0  0
 11 14  1  0  0  0  0
 11 15  1  0  0  0  0
 11 16  1  0  0  0  0
 40 42  1  0  0  0  0
 40 43  1  0  0  0  0
 40 44  1  0  0  0  0
 21 27  1  0  0  0  0
 21 28  1  0  0  0  0
 30 35  1  0  0  0  0
  8 13  1  0  0  0  0
 18 26  1  0  0  0  0
 39 41  1  0  0  0  0
  7 12  1  0  0  0  0
 29 34  1  0  0  0  0
 17 25  1  0  0  0  0
M  CHG  1  23  -1
M  END
$$$$

  -OEChem-05262214473D

 44 43  0     1  0  0  0  0  0999 V2000
   -4.0256   -1.8030   -2.1581 C   0  0  0  0  0  0  0  0  0  0  0  0
   -3.7513   -2.6782   -2.9709 O   0  0  0  0  0  0  0  0  0  0  0  0
   -5.3491   -1.1169   -2.2339 C   0  0  0  0  0  0  0  0  0  0  0  0
   -5.3223   -0.2211   -2.8750 H   0  0  0  0  0  0  0  0  0  0  0  0
   -6.1322   -1.7605   -2.6658 H   0  0  0  0  0  0  0  0  0  0  0  0
   -5.7568   -0.7715   -1.2704 H   0  0  0  0  0  0  0  0  0  0  0  0
   -3.2124   -1.3578   -1.1289 N   0  0  0  0  0  0  0  0  0  0  0  0
   -1.8971   -1.8843   -0.8752 C   0  0  2  0  0  0  0  0  0  0  0  0
   -1.2676   -1.0599    0.2399 C   0  0  0  0  0  0  0  0  0  0  0  0
   -1.6270    0.0833    0.5138 O   0  0  0  0  0  0  0  0  0  0  0  0
   -1.0364   -1.8506   -2.1285 C   0  0  0  0  0  0  0  0  0  0  0  0
   -3.5631   -0.6202   -0.5206 H   0  0  0  0  0  0  0  0  0  0  0  0
   -2.0301   -2.9174   -0.5360 H   0  0  0  0  0  0  0  0  0  0  0  0
   -0.8921   -0.8236   -2.4833 H   0  0  0  0  0  0  0  0  0  0  0  0
   -0.0457   -2.2777   -1.9410 H   0  0  0  0  0  0  0  0  0  0  0  0
   -1.5052   -2.4193   -2.9387 H   0  0  0  0  0  0  0  0  0  0  0  0
   -0.2267   -1.7335    0.8672 N   0  0  0  0  0  0  0  0  0  0  0  0
    0.5363   -1.1590    1.9465 C   0  0  2  0  0  0  0  0  0  0  0  0
    1.8905   -0.7549    1.3751 C   0  0  0  0  0  0  0  0  0  0  0  0
    2.8493   -1.5221    1.3163 O   0  0  0  0  0  0  0  0  0  0  0  0
    0.7132   -2.1411    3.1022 C   0  0  0  0  0  0  0  0  0  0  0  0
   -0.5483   -2.4841    3.9047 C   0  0  0  0  0  0  0  0  0  0  0  0
   -1.4113   -1.5592    3.9302 O   0  5  0  0  0  0  0  0  0  0  0  0
   -0.5814   -3.6226    4.4467 O   0  0  0  0  0  0  0  0  0  0  0  0
   -0.0113   -2.6869    0.5854 H   0  0  0  0  0  0  0  0  0  0  0  0
   -0.0014   -0.2603    2.2691 H   0  0  0  0  0  0  0  0  0  0  0  0
    1.4646   -1.7539    3.8041 H   0  0  0  0  0  0  0  0  0  0  0  0
    1.1059   -3.0929    2.7214 H   0  0  0  0  0  0  0  0  0  0  0  0
    1.8856    0.5461    0.8918 N   0  0  0  0  0  0  0  0  0  0  0  0
    3.0398    1.1546    0.2721 C   0  0  2  0  0  0  0  0  0  0  0  0
    2.9979    2.6486    0.5649 C   0  0  0  0  0  0  0  0  0  0  0  0
    1.9636    3.2468    0.8537 O   0  0  0  0  0  0  0  0  0  0  0  0
    3.0649    0.8948   -1.2261 C   0  0  0  0  0  0  0  0  0  0  0  0
    1.0310    1.0932    0.9392 H   0  0  0  0  0  0  0  0  0  0  0  0
    3.9230    0.7134    0.7468 H   0  0  0  0  0  0  0  0  0  0  0  0
    2.1877    1.3295   -1.7190 H   0  0  0  0  0  0  0  0  0  0  0  0
    3.9552    1.3323   -1.6898 H   0  0  0  0  0  0  0  0  0  0  0  0
    3.0649   -0.1804   -1.4352 H   0  0  0  0  0  0  0  0  0  0  0  0
    4.2440    3.2432    0.4236 N   0  0  0  0  0  0  0  0  0  0  0  0
    4.4626    4.6551    0.6350 C   0  0  0  0  0  0  0  0  0  0  0  0
    5.0501    2.6670    0.2000 H   0  0  0  0  0  0  0  0  0  0  0  0
    4.3632    5.1893   -0.3215 H   0  0  0  0  0  0  0  0  0  0  0  0
    3.7180    5.0385    1.3481 H   0  0  0  0  0  0  0  0  0  0  0  0
    5.4732    4.8130    1.0397 H   0  0  0  0  0  0  0  0  0  0  0  0
  1  3  1  0  0  0  0
  1  7  1  0  0  0  0
  1  2  2  0  0  0  0
 30 31  1  0  0  0  0
 31 39  1  0  0  0  0
 31 32  2  0  0  0  0
  8  9  1  0  0  0  0
  9 17  1  0  0  0  0
  9 10  2  0  0  0  0
 18 19  1  0  0  0  0
 19 29  1  0  0  0  0
 19 20  2  0  0  0  0
 21 22  1  0  0  0  0
 22 23  1  0  0  0  0
 22 24  2  0  0  0  0
 30 33  1  0  0  0  0
  8 11  1  0  0  0  0
 39 40  1  0  0  0  0
 18 21  1  0  0  0  0
 29 30  1  0  0  0  0
  7  8  1  0  0  0  0
 17 18  1  0  0  0  0
  3  4  1  0  0  0  0
  3  5  1  0  0  0  0
  3  6  1  0  0  0  0
 33 36  1  0  0  0  0
 33 37  1  0  0  0  0
 33 38  1  0  0  0  0
 11 14  1  0  0  0  0
 11 15  1  0  0  0  0
 11 16  1  0  0  0  0
 40 42  1  0  0  0  0
 40 43  1  0  0  0  0
 40 44  1  0  0  0  0
 21 27  1  0  0  0  0
 21 28  1  0  0  0  0
 30 35  1  0  0  0  0
  8 13  1  0  0  0  0
 18 26  1  0  0  0  0
 39 41  1  0  0  0  0
  7 12  1  0  0  0  0
 29 34  1  0  0  0  0
 17 25  1  0  0  0  0
M  CHG  1  23  -1
M  END
$$$$

  -OEChem-05262214473D

 44 43  0     1  0  0  0  0  0999 V2000
   -4.0256   -1.8030   -2.1581 C   0  0  0  0  0  0  0  0  0  0  0  0
   -3.7513   -2.6782   -2.9709 O   0  0  0  0  0  0  0  0  0  0  0  0
   -5.3491   -1.1169   -2.2339 C   0  0  0  0  0  0  0  0  0  0  0  0
   -5.3223   -0.2211   -2.8750 H   0  0  0  0  0  0  0  0  0  0  0  0
   -6.1322   -1.7605   -2.6658 H   0  0  0  0  0  0  0  0  0  0  0  0
   -5.7568   -0.7715   -1.2704 H   0  0  0  0  0  0  0  0  0  0  0  0
   -3.2124   -1.3578   -1.1289 N   0  0  0  0  0  0  0  0  0  0  0  0
   -1.8971   -1.8843   -0.8752 C   0  0  2  0  0  0  0  0  0  0  0  0
   -1.2676   -1.0599    0.2399 C   0  0  0  0  0  0  0  0  0  0  0  0
   -1.6270    0.0833    0.5138 O   0  0  0  0  0  0  0  0  0  0  0  0
   -1.0364   -1.8506   -2.1285 C   0  0  0  0  0  0  0  0  0  0  0  0
   -3.5631   -0.6202   -0.5206 H   0  0  0  0  0  0  0  0  0  0  0  0
   -2.0301   -2.9174   -0.5360 H   0  0  0  0  0  0  0  0  0  0  0  0
   -0.8921   -0.8236   -2.4833 H   0  0  0  0  0  0  0  0  0  0  0  0
   -0.0457   -2.2777   -1.9410 H   0  0  0  0  0  0  0  0  0  0  0  0
   -1.5052   -2.4193   -2.9387 H   0  0  0  0  0  0  0  0  0  0  0  0
   -0.2267   -1.7335    0.8672 N   0  0  0  0  0  0  0  0  0  0  0  0
    0.5363   -1.1590    1.9465 C   0  0  2  0  0  0  0  0  0  0  0  0
    1.8905   -0.7549    1.3751 C   0  0  0  0  0  0  0  0  0  0  0  0
    2.7584   -1.5694    1.0676 O   0  0  0  0  0  0  0  0  0  0  0  0
    0.7132   -2.1411    3.1022 C   0  0  0  0  0  0  0  0  0  0  0  0
   -0.5483   -2.4841    3.9047 C   0  0  0  0  0  0  0  0  0  0  0  0
   -1.4113   -1.5592    3.9302 O   0  5  0  0  0  0  0  0  0  0  0  0
   -0.5814   -3.6226    4.4467 O   0  0  0  0  0  0  0  0  0  0  0  0
   -0.0113   -2.6869    0.5854 H   0  0  0  0  0  0  0  0  0  0  0  0
   -0.0014   -0.2603    2.2691 H   0  0  0  0  0  0  0  0  0  0  0  0
    1.4646   -1.7539    3.8041 H   0  0  0  0  0  0  0  0  0  0  0  0
    1.1059   -3.0929    2.7214 H   0  0  0  0  0  0  0  0  0  0  0  0
    1.9946    0.6181    1.2010 N   0  0  0  0  0  0  0  0  0  0  0  0
    3.1689    1.2492    0.6451 C   0  0  2  0  0  0  0  0  0  0  0  0
    3.3011    2.6312    1.2711 C   0  0  0  0  0  0  0  0  0  0  0  0
    2.3536    3.2352    1.7696 O   0  0  0  0  0  0  0  0  0  0  0  0
    3.0808    1.3449   -0.8701 C   0  0  0  0  0  0  0  0  0  0  0  0
    1.2063    1.2128    1.4394 H   0  0  0  0  0  0  0  0  0  0  0  0
    4.0266    0.6326    0.9353 H   0  0  0  0  0  0  0  0  0  0  0  0
    2.2273    1.9589   -1.1799 H   0  0  0  0  0  0  0  0  0  0  0  0
    3.9841    1.7975   -1.2923 H   0  0  0  0  0  0  0  0  0  0  0  0
    2.9558    0.3526   -1.3167 H   0  0  0  0  0  0  0  0  0  0  0  0
    4.5925    3.1291    1.1690 N   0  0  0  0  0  0  0  0  0  0  0  0
    4.9700    4.4275    1.6766 C   0  0  0  0  0  0  0  0  0  0  0  0
    5.3195    2.5517    0.7570 H   0  0  0  0  0  0  0  0  0  0  0  0
    4.8726    5.1768    0.8771 H   0  0  0  0  0  0  0  0  0  0  0  0
    4.3118    4.6987    2.5152 H   0  0  0  0  0  0  0  0  0  0  0  0
    6.0130    4.3961    2.0244 H   0  0  0  0  0  0  0  0  0  0  0  0
  1  3  1  0  0  0  0
  1  7  1  0  0  0  0
  1  2  2  0  0  0  0
 30 31  1  0  0  0  0
 31 39  1  0  0  0  0
 31 32  2  0  0  0  0
  8  9  1  0  0  0  0
  9 17  1  0  0  0  0
  9 10  2  0  0  0  0
 18 19  1  0  0  0  0
 19 29  1  0  0  0  0
 19 20  2  0  0  0  0
 21 22  1  0  0  0  0
 22 23  1  0  0  0  0
 22 24  2  0  0  0  0
 30 33  1  0  0  0  0
  8 11  1  0  0  0  0
 39 40  1  0  0  0  0
 18 21  1  0  0  0  0
 29 30  1  0  0  0  0
  7  8  1  0  0  0  0
 17 18  1  0  0  0  0
  3  4  1  0  0  0  0
  3  5  1  0  0  0  0
  3  6  1  0  0  0  0
 33 36  1  0  0  0  0
 33 37  1  0  0  0  0
 33 38  1  0  0  0  0
 11 14  1  0  0  0  0
 11 15  1  0  0  0  0
 11 16  1  0  0  0  0
 40 42  1  0  0  0  0
 40 43  1  0  0  0  0
 40 44  1  0  0  0  0
 21 27  1  0  0  0  0
 21 28  1  0  0  0  0
 30 35  1  0  0  0  0
  8 13  1  0  0  0  0
 18 26  1  0  0  0  0
 39 41  1  0  0  0  0
  7 12  1  0  0  0  0
 29 34  1  0  0  0  0
 17 25  1  0  0  0  0
M  CHG  1  23  -1
M  END
$$$$

  -OEChem-05262214473D

 44 43  0     1  0  0  0  0  0999 V2000
   -4.0256   -1.8030   -2.1581 C   0  0  0  0  0  0  0  0  0  0  0  0
   -3.7513   -2.6782   -2.9709 O   0  0  0  0  0  0  0  0  0  0  0  0
   -5.3491   -1.1169   -2.2339 C   0  0  0  0  0  0  0  0  0  0  0  0
   -5.3223   -0.2211   -2.8750 H   0  0  0  0  0  0  0  0  0  0  0  0
   -6.1322   -1.7605   -2.6658 H   0  0  0  0  0  0  0  0  0  0  0  0
   -5.7568   -0.7715   -1.2704 H   0  0  0  0  0  0  0  0  0  0  0  0
   -3.2124   -1.3578   -1.1289 N   0  0  0  0  0  0  0  0  0  0  0  0
   -1.8971   -1.8843   -0.8752 C   0  0  2  0  0  0  0  0  0  0  0  0
   -1.2676   -1.0599    0.2399 C   0  0  0  0  0  0  0  0  0  0  0  0
   -1.6270    0.0833    0.5138 O   0  0  0  0  0  0  0  0  0  0  0  0
   -1.0364   -1.8506   -2.1285 C   0  0  0  0  0  0  0  0  0  0  0  0
   -3.5631   -0.6202   -0.5206 H   0  0  0  0  0  0  0  0  0  0  0  0
   -2.0301   -2.9174   -0.5360 H   0  0  0  0  0  0  0  0  0  0  0  0
   -0.8921   -0.8236   -2.4833 H   0  0  0  0  0  0  0  0  0  0  0  0
   -0.0457   -2.2777   -1.9410 H   0  0  0  0  0  0  0  0  0  0  0  0
   -1.5052   -2.4193   -2.9387 H   0  0  0  0  0  0  0  0  0  0  0  0
   -0.2267   -1.7335    0.8672 N   0  0  0  0  0  0  0  0  0  0  0  0
    0.5363   -1.1590    1.9465 C   0  0  2  0  0  0  0  0  0  0  0  0
    1.8905   -0.7549    1.3751 C   0  0  0  0  0  0  0  0  0  0  0  0
    2.6490   -1.5490    0.8226 O   0  0  0  0  0  0  0  0  0  0  0  0
    0.7132   -2.1411    3.1022 C   0  0  0  0  0  0  0  0  0  0  0  0
   -0.5483   -2.4841    3.9047 C   0  0  0  0  0  0  0  0  0  0  0  0
   -1.4113   -1.5592    3.9302 O   0  5  0  0  0  0  0  0  0  0  0  0
   -0.5814   -3.6226    4.4467 O   0  0  0  0  0  0  0  0  0  0  0  0
   -0.0113   -2.6869    0.5854 H   0  0  0  0  0  0  0  0  0  0  0  0
   -0.0014   -0.2603    2.2691 H   0  0  0  0  0  0  0  0  0  0  0  0
    1.4646   -1.7539    3.8041 H   0  0  0  0  0  0  0  0  0  0  0  0
    1.1059   -3.0929    2.7214 H   0  0  0  0  0  0  0  0  0  0  0  0
    2.1281    0.6060    1.5089 N   0  0  0  0  0  0  0  0  0  0  0  0
    3.3284    1.2422    1.0183 C   0  0  2  0  0  0  0  0  0  0  0  0
    3.6407    2.4227    1.9285 C   0  0  0  0  0  0  0  0  0  0  0  0
    2.7919    2.9755    2.6250 O   0  0  0  0  0  0  0  0  0  0  0  0
    3.1642    1.6963   -0.4238 C   0  0  0  0  0  0  0  0  0  0  0  0
    1.4216    1.1964    1.9380 H   0  0  0  0  0  0  0  0  0  0  0  0
    4.1318    0.5012    1.0917 H   0  0  0  0  0  0  0  0  0  0  0  0
    2.3636    2.4391   -0.5172 H   0  0  0  0  0  0  0  0  0  0  0  0
    4.0844    2.1527   -0.8033 H   0  0  0  0  0  0  0  0  0  0  0  0
    2.9104    0.8507   -1.0721 H   0  0  0  0  0  0  0  0  0  0  0  0
    4.9693    2.8137    1.8389 N   0  0  0  0  0  0  0  0  0  0  0  0
    5.5094    3.9190    2.5956 C   0  0  0  0  0  0  0  0  0  0  0  0
    5.6068    2.2860    1.2500 H   0  0  0  0  0  0  0  0  0  0  0  0
    5.4457    4.8397    1.9970 H   0  0  0  0  0  0  0  0  0  0  0  0
    4.9325    4.0445    3.5237 H   0  0  0  0  0  0  0  0  0  0  0  0
    6.5616    3.7146    2.8427 H   0  0  0  0  0  0  0  0  0  0  0  0
  1  3  1  0  0  0  0
  1  7  1  0  0  0  0
  1  2  2  0  0  0  0
 30 31  1  0  0  0  0
 31 39  1  0  0  0  0
 31 32  2  0  0  0  0
  8  9  1  0  0  0  0
  9 17  1  0  0  0  0
  9 10  2  0  0  0  0
 18 19  1  0  0  0  0
 19 29  1  0  0  0  0
 19 20  2  0  0  0  0
 21 22  1  0  0  0  0
 22 23  1  0  0  0  0
 22 24  2  0  0  0  0
 30 33  1  0  0  0  0
  8 11  1  0  0  0  0
 39 40  1  0  0  0  0
 18 21  1  0  0  0  0
 29 30  1  0  0  0  0
  7  8  1  0  0  0  0
 17 18  1  0  0  0  0
  3  4  1  0  0  0  0
  3  5  1  0  0  0  0
  3  6  1  0  0  0  0
 33 36  1  0  0  0  0
 33 37  1  0  0  0  0
 33 38  1  0  0  0  0
 11 14  1  0  0  0  0
 11 15  1  0  0  0  0
 11 16  1  0  0  0  0
 40 42  1  0  0  0  0
 40 43  1  0  0  0  0
 40 44  1  0  0  0  0
 21 27  1  0  0  0  0
 21 28  1  0  0  0  0
 30 35  1  0  0  0  0
  8 13  1  0  0  0  0
 18 26  1  0  0  0  0
 39 41  1  0  0  0  0
  7 12  1  0  0  0  0
 29 34  1  0  0  0  0
 17 25  1  0  0  0  0
M  CHG  1  23  -1
M  END
$$$$

  -OEChem-05262214473D

 44 43  0     1  0  0  0  0  0999 V2000
   -4.0256   -1.8030   -2.1581 C   0  0  0  0  0  0  0  0  0  0  0  0
   -3.7513   -2.6782   -2.9709 O   0  0  0  0  0  0  0  0  0  0  0  0
   -5.3491   -1.1169   -2.2339 C   0  0  0  0  0  0  0  0  0  0  0  0
   -5.3223   -0.2211   -2.8750 H   0  0  0  0  0  0  0  0  0  0  0  0
   -6.1322   -1.7605   -2.6658 H   0  0  0  0  0  0  0  0  0  0  0  0
   -5.7568   -0.7715   -1.2704 H   0  0  0  0  0  0  0  0  0  0  0  0
   -3.2124   -1.3578   -1.1289 N   0  0  0  0  0  0  0  0  0  0  0  0
   -1.8971   -1.8843   -0.8752 C   0  0  2  0  0  0  0  0  0  0  0  0
   -1.2676   -1.0599    0.2399 C   0  0  0  0  0  0  0  0  0  0  0  0
   -1.6270    0.0833    0.5138 O   0  0  0  0  0  0  0  0  0  0  0  0
   -1.0364   -1.8506   -2.1285 C   0  0  0  0  0  0  0  0  0  0  0  0
   -3.5631   -0.6202   -0.5206 H   0  0  0  0  0  0  0  0  0  0  0  0
   -2.0301   -2.9174   -0.5360 H   0  0  0  0  0  0  0  0  0  0  0  0
   -0.8921   -0.8236   -2.4833 H   0  0  0  0  0  0  0  0  0  0  0  0
   -0.0457   -2.2777   -1.9410 H   0  0  0  0  0  0  0  0  0  0  0  0
   -1.5052   -2.4193   -2.9387 H   0  0  0  0  0  0  0  0  0  0  0  0
   -0.2267   -1.7335    0.8672 N   0  0  0  0  0  0  0  0  0  0  0  0
    0.5363   -1.1590    1.9465 C   0  0  2  0  0  0  0  0  0  0  0  0
    1.8905   -0.7549    1.3751 C   0  0  0  0  0  0  0  0  0  0  0  0
    2.5285   -1.4625    0.5983 O   0  0  0  0  0  0  0  0  0  0  0  0
    0.7132   -2.1411    3.1022 C   0  0  0  0  0  0  0  0  0  0  0  0
   -0.5483   -2.4841    3.9047 C   0  0  0  0  0  0  0  0  0  0  0  0
   -1.4113   -1.5592    3.9302 O   0  5  0  0  0  0  0  0  0  0  0  0
   -0.5814   -3.6226    4.4467 O   0  0  0  0  0  0  0  0  0  0  0  0
   -0.0113   -2.6869    0.5854 H   0  0  0  0  0  0  0  0  0  0  0  0
   -0.0014   -0.2603    2.2691 H   0  0  0  0  0  0  0  0  0  0  0  0
    1.4646   -1.7539    3.8041 H   0  0  0  0  0  0  0  0  0  0  0  0
    1.1059   -3.0929    2.7214 H   0  0  0  0  0  0  0  0  0  0  0  0
    2.2770    0.5105    1.7943 N   0  0  0  0  0  0  0  0  0  0  0  0
    3.5075    1.1343    1.3662 C   0  0  2  0  0  0  0  0  0  0  0  0
    3.9935    2.0372    2.4922 C   0  0  0  0  0  0  0  0  0  0  0  0
    3.2489    2.4855    3.3614 O   0  0  0  0  0  0  0  0  0  0  0  0
    3.3095    1.9250    0.0824 C   0  0  0  0  0  0  0  0  0  0  0  0
    1.6622    1.0450    2.4010 H   0  0  0  0  0  0  0  0  0  0  0  0
    4.2315    0.3281    1.2054 H   0  0  0  0  0  0  0  0  0  0  0  0
    2.5873    2.7373    0.2240 H   0  0  0  0  0  0  0  0  0  0  0  0
    4.2492    2.3736   -0.2562 H   0  0  0  0  0  0  0  0  0  0  0  0
    2.9315    1.2801   -0.7183 H   0  0  0  0  0  0  0  0  0  0  0  0
    5.3486    2.3185    2.3876 N   0  0  0  0  0  0  0  0  0  0  0  0
    6.0443    3.1641    3.3293 C   0  0  0  0  0  0  0  0  0  0  0  0
    5.8924    1.8882    1.6454 H   0  0  0  0  0  0  0  0  0  0  0  0
    6.0434    4.2010    2.9620 H   0  0  0  0  0  0  0  0  0  0  0  0
    5.5378    3.1204    4.3048 H   0  0  0  0  0  0  0  0  0  0  0  0
    7.0816    2.8149    3.4387 H   0  0  0  0  0  0  0  0  0  0  0  0
  1  3  1  0  0  0  0
  1  7  1  0  0  0  0
  1  2  2  0  0  0  0
 30 31  1  0  0  0  0
 31 39  1  0  0  0  0
 31 32  2  0  0  0  0
  8  9  1  0  0  0  0
  9 17  1  0  0  0  0
  9 10  2  0  0  0  0
 18 19  1  0  0  0  0
 19 29  1  0  0  0  0
 19 20  2  0  0  0  0
 21 22  1  0  0  0  0
 22 23  1  0  0  0  0
 22 24  2  0  0  0  0
 30 33  1  0  0  0  0
  8 11  1  0  0  0  0
 39 40  1  0  0  0  0
 18 21  1  0  0  0  0
 29 30  1  0  0  0  0
  7  8  1  0  0  0  0
 17 18  1  0  0  0  0
  3  4  1  0  0  0  0
  3  5  1  0  0  0  0
  3  6  1  0  0  0  0
 33 36  1  0  0  0  0
 33 37  1  0  0  0  0
 33 38  1  0  0  0  0
 11 14  1  0  0  0  0
 11 15  1  0  0  0  0
 11 16  1  0  0  0  0
 40 42  1  0  0  0  0
 40 43  1  0  0  0  0
 40 44  1  0  0  0  0
 21 27  1  0  0  0  0
 21 28  1  0  0  0  0
 30 35  1  0  0  0  0
  8 13  1  0  0  0  0
 18 26  1  0  0  0  0
 39 41  1  0  0  0  0
  7 12  1  0  0  0  0
 29 34  1  0  0  0  0
 17 25  1  0  0  0  0
M  CHG  1  23  -1
M  END
$$$$

  -OEChem-05262214473D

 44 43  0     1  0  0  0  0  0999 V2000
   -4.0256   -1.8030   -2.1581 C   0  0  0  0  0  0  0  0  0  0  0  0
   -3.7513   -2.6782   -2.9709 O   0  0  0  0  0  0  0  0  0  0  0  0
   -5.3491   -1.1169   -2.2339 C   0  0  0  0  0  0  0  0  0  0  0  0
   -5.3223   -0.2211   -2.8750 H   0  0  0  0  0  0  0  0  0  0  0  0
   -6.1322   -1.7605   -2.6658 H   0  0  0  0  0  0  0  0  0  0  0  0
   -5.7568   -0.7715   -1.2704 H   0  0  0  0  0  0  0  0  0  0  0  0
   -3.2124   -1.3578   -1.1289 N   0  0  0  0  0  0  0  0  0  0  0  0
   -1.8971   -1.8843   -0.8752 C   0  0  2  0  0  0  0  0  0  0  0  0
   -1.2676   -1.0599    0.2399 C   0  0  0  0  0  0  0  0  0  0  0  0
   -1.6270    0.0833    0.5138 O   0  0  0  0  0  0  0  0  0  0  0  0
   -1.0364   -1.8506   -2.1285 C   0  0  0  0  0  0  0  0  0  0  0  0
   -3.5631   -0.6202   -0.5206 H   0  0  0  0  0  0  0  0  0  0  0  0
   -2.0301   -2.9174   -0.5360 H   0  0  0  0  0  0  0  0  0  0  0  0
   -0.8921   -0.8236   -2.4833 H   0  0  0  0  0  0  0  0  0  0  0  0
   -0.0457   -2.2777   -1.9410 H   0  0  0  0  0  0  0  0  0  0  0  0
   -1.5052   -2.4193   -2.9387 H   0  0  0  0  0  0  0  0  0  0  0  0
   -0.2267   -1.7335    0.8672 N   0  0  0  0  0  0  0  0  0  0  0  0
    0.5363   -1.1590    1.9465 C   0  0  2  0  0  0  0  0  0  0  0  0
    1.8905   -0.7549    1.3751 C   0  0  0  0  0  0  0  0  0  0  0  0
    2.4051   -1.3156    0.4097 O   0  0  0  0  0  0  0  0  0  0  0  0
    0.7132   -2.1411    3.1022 C   0  0  0  0  0  0  0  0  0  0  0  0
   -0.5483   -2.4841    3.9047 C   0  0  0  0  0  0  0  0  0  0  0  0
   -1.4113   -1.5592    3.9302 O   0  5  0  0  0  0  0  0  0  0  0  0
   -0.5814   -3.6226    4.4467 O   0  0  0  0  0  0  0  0  0  0  0  0
   -0.0113   -2.6869    0.5854 H   0  0  0  0  0  0  0  0  0  0  0  0
   -0.0014   -0.2603    2.2691 H   0  0  0  0  0  0  0  0  0  0  0  0
    1.4646   -1.7539    3.8041 H   0  0  0  0  0  0  0  0  0  0  0  0
    1.1059   -3.0929    2.7214 H   0  0  0  0  0  0  0  0  0  0  0  0
    2.4311    0.3382    2.0378 N   0  0  0  0  0  0  0  0  0  0  0  0
    3.6938    0.9326    1.6651 C   0  0  2  0  0  0  0  0  0  0  0  0
    4.3357    1.5010    2.9239 C   0  0  0  0  0  0  0  0  0  0  0  0
    3.6932    1.7986    3.9287 O   0  0  0  0  0  0  0  0  0  0  0  0
    3.5068    2.0155    0.6139 C   0  0  0  0  0  0  0  0  0  0  0  0
    1.9116    0.7689    2.7970 H   0  0  0  0  0  0  0  0  0  0  0  0
    4.3187    0.1250    1.2685 H   0  0  0  0  0  0  0  0  0  0  0  0
    2.8832    2.8333    0.9931 H   0  0  0  0  0  0  0  0  0  0  0  0
    4.4675    2.4453    0.3117 H   0  0  0  0  0  0  0  0  0  0  0  0
    3.0179    1.6114   -0.2792 H   0  0  0  0  0  0  0  0  0  0  0  0
    5.7045    1.6772    2.7777 N   0  0  0  0  0  0  0  0  0  0  0  0
    6.5380    2.2144    3.8278 C   0  0  0  0  0  0  0  0  0  0  0  0
    6.1567    1.3853    1.9162 H   0  0  0  0  0  0  0  0  0  0  0  0
    6.6250    3.3042    3.7062 H   0  0  0  0  0  0  0  0  0  0  0  0
    6.0865    1.9896    4.8053 H   0  0  0  0  0  0  0  0  0  0  0  0
    7.5375    1.7584    3.7719 H   0  0  0  0  0  0  0  0  0  0  0  0
  1  3  1  0  0  0  0
  1  7  1  0  0  0  0
  1  2  2  0  0  0  0
 30 31  1  0  0  0  0
 31 39  1  0  0  0  0
 31 32  2  0  0  0  0
  8  9  1  0  0  0  0
  9 17  1  0  0  0  0
  9 10  2  0  0  0  0
 18 19  1  0  0  0  0
 19 29  1  0  0  0  0
 19 20  2  0  0  0  0
 21 22  1  0  0  0  0
 22 23  1  0  0  0  0
 22 24  2  0  0  0  0
 30 33  1  0  0  0  0
  8 11  1  0  0  0  0
 39 40  1  0  0  0  0
 18 21  1  0  0  0  0
 29 30  1  0  0  0  0
  7  8  1  0  0  0  0
 17 18  1  0  0  0  0
  3  4  1  0  0  0  0
  3  5  1  0  0  0  0
  3  6  1  0  0  0  0
 33 36  1  0  0  0  0
 33 37  1  0  0  0  0
 33 38  1  0  0  0  0
 11 14  1  0  0  0  0
 11 15  1  0  0  0  0
 11 16  1  0  0  0  0
 40 42  1  0  0  0  0
 40 43  1  0  0  0  0
 40 44  1  0  0  0  0
 21 27  1  0  0  0  0
 21 28  1  0  0  0  0
 30 35  1  0  0  0  0
  8 13  1  0  0  0  0
 18 26  1  0  0  0  0
 39 41  1  0  0  0  0
  7 12  1  0  0  0  0
 29 34  1  0  0  0  0
 17 25  1  0  0  0  0
M  CHG  1  23  -1
M  END
$$$$

  -OEChem-05262214473D

 44 43  0     1  0  0  0  0  0999 V2000
   -4.0256   -1.8030   -2.1581 C   0  0  0  0  0  0  0  0  0  0  0  0
   -3.7513   -2.6782   -2.9709 O   0  0  0  0  0  0  0  0  0  0  0  0
   -5.3491   -1.1169   -2.2339 C   0  0  0  0  0  0  0  0  0  0  0  0
   -5.3223   -0.2211   -2.8750 H   0  0  0  0  0  0  0  0  0  0  0  0
   -6.1322   -1.7605   -2.6658 H   0  0  0  0  0  0  0  0  0  0  0  0
   -5.7568   -0.7715   -1.2704 H   0  0  0  0  0  0  0  0  0  0  0  0
   -3.2124   -1.3578   -1.1289 N   0  0  0  0  0  0  0  0  0  0  0  0
   -1.8971   -1.8843   -0.8752 C   0  0  2  0  0  0  0  0  0  0  0  0
   -1.2676   -1.0599    0.2399 C   0  0  0  0  0  0  0  0  0  0  0  0
   -1.6270    0.0833    0.5138 O   0  0  0  0  0  0  0  0  0  0  0  0
   -1.0364   -1.8506   -2.1285 C   0  0  0  0  0  0  0  0  0  0  0  0
   -3.5631   -0.6202   -0.5206 H   0  0  0  0  0  0  0  0  0  0  0  0
   -2.0301   -2.9174   -0.5360 H   0  0  0  0  0  0  0  0  0  0  0  0
   -0.8921   -0.8236   -2.4833 H   0  0  0  0  0  0  0  0  0  0  0  0
   -0.0457   -2.2777   -1.9410 H   0  0  0  0  0  0  0  0  0  0  0  0
   -1.5052   -2.4193   -2.9387 H   0  0  0  0  0  0  0  0  0  0  0  0
   -0.2267   -1.7335    0.8672 N   0  0  0  0  0  0  0  0  0  0  0  0
    0.5363   -1.1590    1.9465 C   0  0  2  0  0  0  0  0  0  0  0  0
    1.8905   -0.7549    1.3751 C   0  0  0  0  0  0  0  0  0  0  0  0
    2.2873   -1.1184    0.2698 O   0  0  0  0  0  0  0  0  0  0  0  0
    0.7132   -2.1411    3.1022 C   0  0  0  0  0  0  0  0  0  0  0  0
   -0.5483   -2.4841    3.9047 C   0  0  0  0  0  0  0  0  0  0  0  0
   -1.4113   -1.5592    3.9302 O   0  5  0  0  0  0  0  0  0  0  0  0
   -0.5814   -3.6226    4.4467 O   0  0  0  0  0  0  0  0  0  0  0  0
   -0.0113   -2.6869    0.5854 H   0  0  0  0  0  0  0  0  0  0  0  0
   -0.0014   -0.2603    2.2691 H   0  0  0  0  0  0  0  0  0  0  0  0
    1.4646   -1.7539    3.8041 H   0  0  0  0  0  0  0  0  0  0  0  0
    1.1059   -3.0929    2.7214 H   0  0  0  0  0  0  0  0  0  0  0  0
    2.5800    0.1009    2.2228 N   0  0  0  0  0  0  0  0  0  0  0  0
    3.8747    0.6510    1.8947 C   0  0  2  0  0  0  0  0  0  0  0  0
    4.6438    0.8506    3.1940 C   0  0  0  0  0  0  0  0  0  0  0  0
    4.0947    0.9614    4.2883 O   0  0  0  0  0  0  0  0  0  0  0  0
    3.7425    1.9615    1.1346 C   0  0  0  0  0  0  0  0  0  0  0  0
    2.1529    0.3870    3.0989 H   0  0  0  0  0  0  0  0  0  0  0  0
    4.3876   -0.0940    1.2768 H   0  0  0  0  0  0  0  0  0  0  0  0
    3.2310    2.7204    1.7378 H   0  0  0  0  0  0  0  0  0  0  0  0
    4.7242    2.3627    0.8618 H   0  0  0  0  0  0  0  0  0  0  0  0
    3.1636    1.8221    0.2152 H   0  0  0  0  0  0  0  0  0  0  0  0
    6.0129    0.9335    2.9826 N   0  0  0  0  0  0  0  0  0  0  0  0
    6.9569    1.1346    4.0570 C   0  0  0  0  0  0  0  0  0  0  0  0
    6.3819    0.8116    2.0441 H   0  0  0  0  0  0  0  0  0  0  0  0
    7.1508    2.2105    4.1789 H   0  0  0  0  0  0  0  0  0  0  0  0
    6.5410    0.7289    4.9911 H   0  0  0  0  0  0  0  0  0  0  0  0
    7.8981    0.6171    3.8196 H   0  0  0  0  0  0  0  0  0  0  0  0
  1  3  1  0  0  0  0
  1  7  1  0  0  0  0
  1  2  2  0  0  0  0
 30 31  1  0  0  0  0
 31 39  1  0  0  0  0
 31 32  2  0  0  0  0
  8  9  1  0  0  0  0
  9 17  1  0  0  0  0
  9 10  2  0  0  0  0
 18 19  1  0  0  0  0
 19 29  1  0  0  0  0
 19 20  2  0  0  0  0
 21 22  1  0  0  0  0
 22 23  1  0  0  0  0
 22 24  2  0  0  0  0
 30 33  1  0  0  0  0
  8 11  1  0  0  0  0
 39 40  1  0  0  0  0
 18 21  1  0  0  0  0
 29 30  1  0  0  0  0
  7  8  1  0  0  0  0
 17 18  1  0  0  0  0
  3  4  1  0  0  0  0
  3  5  1  0  0  0  0
  3  6  1  0  0  0  0
 33 36  1  0  0  0  0
 33 37  1  0  0  0  0
 33 38  1  0  0  0  0
 11 14  1  0  0  0  0
 11 15  1  0  0  0  0
 11 16  1  0  0  0  0
 40 42  1  0  0  0  0
 40 43  1  0  0  0  0
 40 44  1  0  0  0  0
 21 27  1  0  0  0  0
 21 28  1  0  0  0  0
 30 35  1  0  0  0  0
  8 13  1  0  0  0  0
 18 26  1  0  0  0  0
 39 41  1  0  0  0  0
  7 12  1  0  0  0  0
 29 34  1  0  0  0  0
 17 25  1  0  0  0  0
M  CHG  1  23  -1
M  END
$$$$

  -OEChem-05262214473D

 44 43  0     1  0  0  0  0  0999 V2000
   -4.0256   -1.8030   -2.1581 C   0  0  0  0  0  0  0  0  0  0  0  0
   -3.7513   -2.6782   -2.9709 O   0  0  0  0  0  0  0  0  0  0  0  0
   -5.3491   -1.1169   -2.2339 C   0  0  0  0  0  0  0  0  0  0  0  0
   -5.3223   -0.2211   -2.8750 H   0  0  0  0  0  0  0  0  0  0  0  0
   -6.1322   -1.7605   -2.6658 H   0  0  0  0  0  0  0  0  0  0  0  0
   -5.7568   -0.7715   -1.2704 H   0  0  0  0  0  0  0  0  0  0  0  0
   -3.2124   -1.3578   -1.1289 N   0  0  0  0  0  0  0  0  0  0  0  0
   -1.8971   -1.8843   -0.8752 C   0  0  2  0  0  0  0  0  0  0  0  0
   -1.2676   -1.0599    0.2399 C   0  0  0  0  0  0  0  0  0  0  0  0
   -1.6270    0.0833    0.5138 O   0  0  0  0  0  0  0  0  0  0  0  0
   -1.0364   -1.8506   -2.1285 C   0  0  0  0  0  0  0  0  0  0  0  0
   -3.5631   -0.6202   -0.5206 H   0  0  0  0  0  0  0  0  0  0  0  0
   -2.0301   -2.9174   -0.5360 H   0  0  0  0  0  0  0  0  0  0  0  0
   -0.8921   -0.8236   -2.4833 H   0  0  0  0  0  0  0  0  0  0  0  0
   -0.0457   -2.2777   -1.9410 H   0  0  0  0  0  0  0  0  0  0  0  0
   -1.5052   -2.4193   -2.9387 H   0  0  0  0  0  0  0  0  0  0  0  0
   -0.2267   -1.7335    0.8672 N   0  0  0  0  0  0  0  0  0  0  0  0
    0.5363   -1.1590    1.9465 C   0  0  2  0  0  0  0  0  0  0  0  0
    1.7152   -0.4218    1.3217 C   0  0  0  0  0  0  0  0  0  0  0  0
    1.8861   -0.3381    0.1072 O   0  0  0  0  0  0  0  0  0  0  0  0
    1.0271   -2.2239    2.9245 C   0  0  0  0  0  0  0  0  0  0  0  0
   -0.0459   -2.9126    3.7776 C   0  0  0  0  0  0  0  0  0  0  0  0
   -1.0574   -2.1909    4.0163 O   0  5  0  0  0  0  0  0  0  0  0  0
    0.1976   -4.0938    4.1469 O   0  0  0  0  0  0  0  0  0  0  0  0
   -0.0113   -2.6869    0.5854 H   0  0  0  0  0  0  0  0  0  0  0  0
   -0.1183   -0.4350    2.4448 H   0  0  0  0  0  0  0  0  0  0  0  0
    1.7696   -1.7858    3.6055 H   0  0  0  0  0  0  0  0  0  0  0  0
    1.5433   -3.0213    2.3741 H   0  0  0  0  0  0  0  0  0  0  0  0
    2.5239    0.1749    2.2789 N   0  0  0  0  0  0  0  0  0  0  0  0
    3.6889    0.9587    1.9400 C   0  0  2  0  0  0  0  0  0  0  0  0
    4.7053    0.8002    3.0631 C   0  0  0  0  0  0  0  0  0  0  0  0
    4.3966    0.4659    4.2050 O   0  0  0  0  0  0  0  0  0  0  0  0
    3.3304    2.4222    1.7339 C   0  0  0  0  0  0  0  0  0  0  0  0
    2.2787    0.0929    3.2612 H   0  0  0  0  0  0  0  0  0  0  0  0
    4.0965    0.5359    1.0154 H   0  0  0  0  0  0  0  0  0  0  0  0
    2.9202    2.8631    2.6498 H   0  0  0  0  0  0  0  0  0  0  0  0
    4.2094    3.0097    1.4492 H   0  0  0  0  0  0  0  0  0  0  0  0
    2.5772    2.5317    0.9462 H   0  0  0  0  0  0  0  0  0  0  0  0
    5.9920    1.1179    2.6511 N   0  0  0  0  0  0  0  0  0  0  0  0
    7.1312    1.0584    3.5369 C   0  0  0  0  0  0  0  0  0  0  0  0
    6.1587    1.3671    1.6806 H   0  0  0  0  0  0  0  0  0  0  0  0
    7.2906    2.0449    3.9969 H   0  0  0  0  0  0  0  0  0  0  0  0
    6.9451    0.3128    4.3239 H   0  0  0  0  0  0  0  0  0  0  0  0
    8.0259    0.7720    2.9647 H   0  0  0  0  0  0  0  0  0  0  0  0
  1  3  1  0  0  0  0
  1  7  1  0  0  0  0
  1  2  2  0  0  0  0
 30 31  1  0  0  0  0
 31 39  1  0  0  0  0
 31 32  2  0  0  0  0
  8  9  1  0  0  0  0
  9 17  1  0  0  0  0
  9 10  2  0  0  0  0
 18 19  1  0  0  0  0
 19 29  1  0  0  0  0
 19 20  2  0  0  0  0
 21 22  1  0  0  0  0
 22 23  1  0  0  0  0
 22 24  2  0  0  0  0
 30 33  1  0  0  0  0
  8 11  1  0  0  0  0
 39 40  1  0  0  0  0
 18 21  1  0  0  0  0
 29 30  1  0  0  0  0
  7  8  1  0  0  0  0
 17 18  1  0  0  0  0
  3  4  1  0  0  0  0
  3  5  1  0  0  0  0
  3  6  1  0  0  0  0
 33 36  1  0  0  0  0
 33 37  1  0  0  0  0
 33 38  1  0  0  0  0
 11 14  1  0  0  0  0
 11 15  1  0  0  0  0
 11 16  1  0  0  0  0
 40 42  1  0  0  0  0
 40 43  1  0  0  0  0
 40 44  1  0  0  0  0
 21 27  1  0  0  0  0
 21 28  1  0  0  0  0
 30 35  1  0  0  0  0
  8 13  1  0  0  0  0
 18 26  1  0  0  0  0
 39 41  1  0  0  0  0
  7 12  1  0  0  0  0
 29 34  1  0  0  0  0
 17 25  1  0  0  0  0
M  CHG  1  23  -1
M  END
$$$$

  -OEChem-05262214473D

 44 43  0     1  0  0  0  0  0999 V2000
   -4.0256   -1.8030   -2.1581 C   0  0  0  0  0  0  0  0  0  0  0  0
   -3.7513   -2.6782   -2.9709 O   0  0  0  0  0  0  0  0  0  0  0  0
   -5.3491   -1.1169   -2.2339 C   0  0  0  0  0  0  0  0  0  0  0  0
   -5.3223   -0.2211   -2.8750 H   0  0  0  0  0  0  0  0  0  0  0  0
   -6.1322   -1.7605   -2.6658 H   0  0  0  0  0  0  0  0  0  0  0  0
   -5.7568   -0.7715   -1.2704 H   0  0  0  0  0  0  0  0  0  0  0  0
   -3.2124   -1.3578   -1.1289 N   0  0  0  0  0  0  0  0  0  0  0  0
   -1.8971   -1.8843   -0.8752 C   0  0  2  0  0  0  0  0  0  0  0  0
   -1.2676   -1.0599    0.2399 C   0  0  0  0  0  0  0  0  0  0  0  0
   -1.6270    0.0833    0.5138 O   0  0  0  0  0  0  0  0  0  0  0  0
   -1.0364   -1.8506   -2.1285 C   0  0  0  0  0  0  0  0  0  0  0  0
   -3.5631   -0.6202   -0.5206 H   0  0  0  0  0  0  0  0  0  0  0  0
   -2.0301   -2.9174   -0.5360 H   0  0  0  0  0  0  0  0  0  0  0  0
   -0.8921   -0.8236   -2.4833 H   0  0  0  0  0  0  0  0  0  0  0  0
   -0.0457   -2.2777   -1.9410 H   0  0  0  0  0  0  0  0  0  0  0  0
   -1.5052   -2.4193   -2.9387 H   0  0  0  0  0  0  0  0  0  0  0  0
   -0.2267   -1.7335    0.8672 N   0  0  0  0  0  0  0  0  0  0  0  0
    0.5363   -1.1590    1.9465 C   0  0  2  0  0  0  0  0  0  0  0  0
    1.7152   -0.4218    1.3217 C   0  0  0  0  0  0  0  0  0  0  0  0
    1.7548   -0.1049    0.1346 O   0  0  0  0  0  0  0  0  0  0  0  0
    1.0271   -2.2239    2.9245 C   0  0  0  0  0  0  0  0  0  0  0  0
   -0.0459   -2.9126    3.7776 C   0  0  0  0  0  0  0  0  0  0  0  0
   -1.0574   -2.1909    4.0163 O   0  5  0  0  0  0  0  0  0  0  0  0
    0.1976   -4.0938    4.1469 O   0  0  0  0  0  0  0  0  0  0  0  0
   -0.0113   -2.6869    0.5854 H   0  0  0  0  0  0  0  0  0  0  0  0
   -0.1183   -0.4350    2.4448 H   0  0  0  0  0  0  0  0  0  0  0  0
    1.7696   -1.7858    3.6055 H   0  0  0  0  0  0  0  0  0  0  0  0
    1.5433   -3.0213    2.3741 H   0  0  0  0  0  0  0  0  0  0  0  0
    2.6932   -0.1142    2.2572 N   0  0  0  0  0  0  0  0  0  0  0  0
    3.8966    0.6105    1.9212 C   0  0  2  0  0  0  0  0  0  0  0  0
    5.0087    0.1289    2.8435 C   0  0  0  0  0  0  0  0  0  0  0  0
    4.7951   -0.4042    3.9303 O   0  0  0  0  0  0  0  0  0  0  0  0
    3.6933    2.1119    2.0527 C   0  0  0  0  0  0  0  0  0  0  0  0
    2.5539   -0.3745    3.2292 H   0  0  0  0  0  0  0  0  0  0  0  0
    4.1427    0.3520    0.8855 H   0  0  0  0  0  0  0  0  0  0  0  0
    3.4459    2.3901    3.0837 H   0  0  0  0  0  0  0  0  0  0  0  0
    4.5976    2.6610    1.7702 H   0  0  0  0  0  0  0  0  0  0  0  0
    2.8734    2.4519    1.4109 H   0  0  0  0  0  0  0  0  0  0  0  0
    6.2684    0.4035    2.3297 N   0  0  0  0  0  0  0  0  0  0  0  0
    7.4863    0.0559    3.0240 C   0  0  0  0  0  0  0  0  0  0  0  0
    6.3515    0.8314    1.4123 H   0  0  0  0  0  0  0  0  0  0  0  0
    7.8133    0.9066    3.6400 H   0  0  0  0  0  0  0  0  0  0  0  0
    7.3041   -0.8157    3.6697 H   0  0  0  0  0  0  0  0  0  0  0  0
    8.2692   -0.1881    2.2909 H   0  0  0  0  0  0  0  0  0  0  0  0
  1  3  1  0  0  0  0
  1  7  1  0  0  0  0
  1  2  2  0  0  0  0
 30 31  1  0  0  0  0
 31 39  1  0  0  0  0
 31 32  2  0  0  0  0
  8  9  1  0  0  0  0
  9 17  1  0  0  0  0
  9 10  2  0  0  0  0
 18 19  1  0  0  0  0
 19 29  1  0  0  0  0
 19 20  2  0  0  0  0
 21 22  1  0  0  0  0
 22 23  1  0  0  0  0
 22 24  2  0  0  0  0
 30 33  1  0  0  0  0
  8 11  1  0  0  0  0
 39 40  1  0  0  0  0
 18 21  1  0  0  0  0
 29 30  1  0  0  0  0
  7  8  1  0  0  0  0
 17 18  1  0  0  0  0
  3  4  1  0  0  0  0
  3  5  1  0  0  0  0
  3  6  1  0  0  0  0
 33 36  1  0  0  0  0
 33 37  1  0  0  0  0
 33 38  1  0  0  0  0
 11 14  1  0  0  0  0
 11 15  1  0  0  0  0
 11 16  1  0  0  0  0
 40 42  1  0  0  0  0
 40 43  1  0  0  0  0
 40 44  1  0  0  0  0
 21 27  1  0  0  0  0
 21 28  1  0  0  0  0
 30 35  1  0  0  0  0
  8 13  1  0  0  0  0
 18 26  1  0  0  0  0
 39 41  1  0  0  0  0
  7 12  1  0  0  0  0
 29 34  1  0  0  0  0
 17 25  1  0  0  0  0
M  CHG  1  23  -1
M  END
$$$$

  -OEChem-05262214473D

 44 43  0     1  0  0  0  0  0999 V2000
   -4.0256   -1.8030   -2.1581 C   0  0  0  0  0  0  0  0  0  0  0  0
   -3.7513   -2.6782   -2.9709 O   0  0  0  0  0  0  0  0  0  0  0  0
   -5.3491   -1.1169   -2.2339 C   0  0  0  0  0  0  0  0  0  0  0  0
   -5.3223   -0.2211   -2.8750 H   0  0  0  0  0  0  0  0  0  0  0  0
   -6.1322   -1.7605   -2.6658 H   0  0  0  0  0  0  0  0  0  0  0  0
   -5.7568   -0.7715   -1.2704 H   0  0  0  0  0  0  0  0  0  0  0  0
   -3.2124   -1.3578   -1.1289 N   0  0  0  0  0  0  0  0  0  0  0  0
   -1.8971   -1.8843   -0.8752 C   0  0  2  0  0  0  0  0  0  0  0  0
   -1.2676   -1.0599    0.2399 C   0  0  0  0  0  0  0  0  0  0  0  0
   -1.6270    0.0833    0.5138 O   0  0  0  0  0  0  0  0  0  0  0  0
   -1.0364   -1.8506   -2.1285 C   0  0  0  0  0  0  0  0  0  0  0  0
   -3.5631   -0.6202   -0.5206 H   0  0  0  0  0  0  0  0  0  0  0  0
   -2.0301   -2.9174   -0.5360 H   0  0  0  0  0  0  0  0  0  0  0  0
   -0.8921   -0.8236   -2.4833 H   0  0  0  0  0  0  0  0  0  0  0  0
   -0.0457   -2.2777   -1.9410 H   0  0  0  0  0  0  0  0  0  0  0  0
   -1.5052   -2.4193   -2.9387 H   0  0  0  0  0  0  0  0  0  0  0  0
   -0.2267   -1.7335    0.8672 N   0  0  0  0  0  0  0  0  0  0  0  0
    0.5363   -1.1590    1.9465 C   0  0  2  0  0  0  0  0  0  0  0  0
    1.7152   -0.4218    1.3217 C   0  0  0  0  0  0  0  0  0  0  0  0
    1.6561    0.1288    0.2241 O   0  0  0  0  0  0  0  0  0  0  0  0
    1.0271   -2.2239    2.9245 C   0  0  0  0  0  0  0  0  0  0  0  0
   -0.0459   -2.9126    3.7776 C   0  0  0  0  0  0  0  0  0  0  0  0
   -1.0574   -2.1909    4.0163 O   0  5  0  0  0  0  0  0  0  0  0  0
    0.1976   -4.0938    4.1469 O   0  0  0  0  0  0  0  0  0  0  0  0
   -0.0113   -2.6869    0.5854 H   0  0  0  0  0  0  0  0  0  0  0  0
   -0.1183   -0.4350    2.4448 H   0  0  0  0  0  0  0  0  0  0  0  0
    1.7696   -1.7858    3.6055 H   0  0  0  0  0  0  0  0  0  0  0  0
    1.5433   -3.0213    2.3741 H   0  0  0  0  0  0  0  0  0  0  0  0
    2.8234   -0.4071    2.1572 N   0  0  0  0  0  0  0  0  0  0  0  0
    4.0580    0.2560    1.8072 C   0  0  2  0  0  0  0  0  0  0  0  0
    5.2031   -0.5077    2.4590 C   0  0  0  0  0  0  0  0  0  0  0  0
    5.0534   -1.2319    3.4410 O   0  0  0  0  0  0  0  0  0  0  0  0
    4.0509    1.7099    2.2530 C   0  0  0  0  0  0  0  0  0  0  0  0
    2.7662   -0.8487    3.0702 H   0  0  0  0  0  0  0  0  0  0  0  0
    4.1515    0.1955    0.7174 H   0  0  0  0  0  0  0  0  0  0  0  0
    3.9579    1.7905    3.3422 H   0  0  0  0  0  0  0  0  0  0  0  0
    4.9757    2.2187    1.9618 H   0  0  0  0  0  0  0  0  0  0  0  0
    3.2092    2.2503    1.8067 H   0  0  0  0  0  0  0  0  0  0  0  0
    6.4194   -0.2516    1.8416 N   0  0  0  0  0  0  0  0  0  0  0  0
    7.6587   -0.8474    2.2834 C   0  0  0  0  0  0  0  0  0  0  0  0
    6.4473    0.3473    1.0217 H   0  0  0  0  0  0  0  0  0  0  0  0
    8.1528   -0.1770    3.0020 H   0  0  0  0  0  0  0  0  0  0  0  0
    7.4493   -1.8129    2.7670 H   0  0  0  0  0  0  0  0  0  0  0  0
    8.3181   -1.0064    1.4174 H   0  0  0  0  0  0  0  0  0  0  0  0
  1  3  1  0  0  0  0
  1  7  1  0  0  0  0
  1  2  2  0  0  0  0
 30 31  1  0  0  0  0
 31 39  1  0  0  0  0
 31 32  2  0  0  0  0
  8  9  1  0  0  0  0
  9 17  1  0  0  0  0
  9 10  2  0  0  0  0
 18 19  1  0  0  0  0
 19 29  1  0  0  0  0
 19 20  2  0  0  0  0
 21 22  1  0  0  0  0
 22 23  1  0  0  0  0
 22 24  2  0  0  0  0
 30 33  1  0  0  0  0
  8 11  1  0  0  0  0
 39 40  1  0  0  0  0
 18 21  1  0  0  0  0
 29 30  1  0  0  0  0
  7  8  1  0  0  0  0
 17 18  1  0  0  0  0
  3  4  1  0  0  0  0
  3  5  1  0  0  0  0
  3  6  1  0  0  0  0
 33 36  1  0  0  0  0
 33 37  1  0  0  0  0
 33 38  1  0  0  0  0
 11 14  1  0  0  0  0
 11 15  1  0  0  0  0
 11 16  1  0  0  0  0
 40 42  1  0  0  0  0
 40 43  1  0  0  0  0
 40 44  1  0  0  0  0
 21 27  1  0  0  0  0
 21 28  1  0  0  0  0
 30 35  1  0  0  0  0
  8 13  1  0  0  0  0
 18 26  1  0  0  0  0
 39 41  1  0  0  0  0
  7 12  1  0  0  0  0
 29 34  1  0  0  0  0
 17 25  1  0  0  0  0
M  CHG  1  23  -1
M  END
$$$$

  -OEChem-05262214473D

 44 43  0     1  0  0  0  0  0999 V2000
   -4.0256   -1.8030   -2.1581 C   0  0  0  0  0  0  0  0  0  0  0  0
   -3.7513   -2.6782   -2.9709 O   0  0  0  0  0  0  0  0  0  0  0  0
   -5.3491   -1.1169   -2.2339 C   0  0  0  0  0  0  0  0  0  0  0  0
   -5.3223   -0.2211   -2.8750 H   0  0  0  0  0  0  0  0  0  0  0  0
   -6.1322   -1.7605   -2.6658 H   0  0  0  0  0  0  0  0  0  0  0  0
   -5.7568   -0.7715   -1.2704 H   0  0  0  0  0  0  0  0  0  0  0  0
   -3.2124   -1.3578   -1.1289 N   0  0  0  0  0  0  0  0  0  0  0  0
   -1.8971   -1.8843   -0.8752 C   0  0  2  0  0  0  0  0  0  0  0  0
   -1.2676   -1.0599    0.2399 C   0  0  0  0  0  0  0  0  0  0  0  0
   -1.6270    0.0833    0.5138 O   0  0  0  0  0  0  0  0  0  0  0  0
   -1.0364   -1.8506   -2.1285 C   0  0  0  0  0  0  0  0  0  0  0  0
   -3.5631   -0.6202   -0.5206 H   0  0  0  0  0  0  0  0  0  0  0  0
   -2.0301   -2.9174   -0.5360 H   0  0  0  0  0  0  0  0  0  0  0  0
   -0.8921   -0.8236   -2.4833 H   0  0  0  0  0  0  0  0  0  0  0  0
   -0.0457   -2.2777   -1.9410 H   0  0  0  0  0  0  0  0  0  0  0  0
   -1.5052   -2.4193   -2.9387 H   0  0  0  0  0  0  0  0  0  0  0  0
   -0.2267   -1.7335    0.8672 N   0  0  0  0  0  0  0  0  0  0  0  0
    0.5363   -1.1590    1.9465 C   0  0  2  0  0  0  0  0  0  0  0  0
    1.7152   -0.4218    1.3217 C   0  0  0  0  0  0  0  0  0  0  0  0
    1.5968    0.3470    0.3698 O   0  0  0  0  0  0  0  0  0  0  0  0
    1.0271   -2.2239    2.9245 C   0  0  0  0  0  0  0  0  0  0  0  0
   -0.0459   -2.9126    3.7776 C   0  0  0  0  0  0  0  0  0  0  0  0
   -1.0574   -2.1909    4.0163 O   0  5  0  0  0  0  0  0  0  0  0  0
    0.1976   -4.0938    4.1469 O   0  0  0  0  0  0  0  0  0  0  0  0
   -0.0113   -2.6869    0.5854 H   0  0  0  0  0  0  0  0  0  0  0  0
   -0.1183   -0.4350    2.4448 H   0  0  0  0  0  0  0  0  0  0  0  0
    1.7696   -1.7858    3.6055 H   0  0  0  0  0  0  0  0  0  0  0  0
    1.5433   -3.0213    2.3741 H   0  0  0  0  0  0  0  0  0  0  0  0
    2.9055   -0.6838    1.9857 N   0  0  0  0  0  0  0  0  0  0  0  0
    4.1619   -0.0808    1.6060 C   0  0  2  0  0  0  0  0  0  0  0  0
    5.2752   -1.0663    1.9359 C   0  0  0  0  0  0  0  0  0  0  0  0
    5.1538   -1.9608    2.7703 O   0  0  0  0  0  0  0  0  0  0  0  0
    4.3787    1.2435    2.3213 C   0  0  0  0  0  0  0  0  0  0  0  0
    2.9011   -1.2974    2.7951 H   0  0  0  0  0  0  0  0  0  0  0  0
    4.1223    0.0771    0.5227 H   0  0  0  0  0  0  0  0  0  0  0  0
    4.4211    1.1054    3.4079 H   0  0  0  0  0  0  0  0  0  0  0  0
    5.3180    1.7130    2.0110 H   0  0  0  0  0  0  0  0  0  0  0  0
    3.5617    1.9408    2.1066 H   0  0  0  0  0  0  0  0  0  0  0  0
    6.4347   -0.8027    1.2202 N   0  0  0  0  0  0  0  0  0  0  0  0
    7.6367   -1.5900    1.3657 C   0  0  0  0  0  0  0  0  0  0  0  0
    6.4395   -0.0524    0.5355 H   0  0  0  0  0  0  0  0  0  0  0  0
    8.2859   -1.1319    2.1264 H   0  0  0  0  0  0  0  0  0  0  0  0
    7.3708   -2.6108    1.6773 H   0  0  0  0  0  0  0  0  0  0  0  0
    8.1692   -1.6272    0.4038 H   0  0  0  0  0  0  0  0  0  0  0  0
  1  3  1  0  0  0  0
  1  7  1  0  0  0  0
  1  2  2  0  0  0  0
 30 31  1  0  0  0  0
 31 39  1  0  0  0  0
 31 32  2  0  0  0  0
  8  9  1  0  0  0  0
  9 17  1  0  0  0  0
  9 10  2  0  0  0  0
 18 19  1  0  0  0  0
 19 29  1  0  0  0  0
 19 20  2  0  0  0  0
 21 22  1  0  0  0  0
 22 23  1  0  0  0  0
 22 24  2  0  0  0  0
 30 33  1  0  0  0  0
  8 11  1  0  0  0  0
 39 40  1  0  0  0  0
 18 21  1  0  0  0  0
 29 30  1  0  0  0  0
  7  8  1  0  0  0  0
 17 18  1  0  0  0  0
  3  4  1  0  0  0  0
  3  5  1  0  0  0  0
  3  6  1  0  0  0  0
 33 36  1  0  0  0  0
 33 37  1  0  0  0  0
 33 38  1  0  0  0  0
 11 14  1  0  0  0  0
 11 15  1  0  0  0  0
 11 16  1  0  0  0  0
 40 42  1  0  0  0  0
 40 43  1  0  0  0  0
 40 44  1  0  0  0  0
 21 27  1  0  0  0  0
 21 28  1  0  0  0  0
 30 35  1  0  0  0  0
  8 13  1  0  0  0  0
 18 26  1  0  0  0  0
 39 41  1  0  0  0  0
  7 12  1  0  0  0  0
 29 34  1  0  0  0  0
 17 25  1  0  0  0  0
M  CHG  1  23  -1
M  END
$$$$

  -OEChem-05262214473D

 44 43  0     1  0  0  0  0  0999 V2000
   -4.0256   -1.8030   -2.1581 C   0  0  0  0  0  0  0  0  0  0  0  0
   -3.7513   -2.6782   -2.9709 O   0  0  0  0  0  0  0  0  0  0  0  0
   -5.3491   -1.1169   -2.2339 C   0  0  0  0  0  0  0  0  0  0  0  0
   -5.3223   -0.2211   -2.8750 H   0  0  0  0  0  0  0  0  0  0  0  0
   -6.1322   -1.7605   -2.6658 H   0  0  0  0  0  0  0  0  0  0  0  0
   -5.7568   -0.7715   -1.2704 H   0  0  0  0  0  0  0  0  0  0  0  0
   -3.2124   -1.3578   -1.1289 N   0  0  0  0  0  0  0  0  0  0  0  0
   -1.8971   -1.8843   -0.8752 C   0  0  2  0  0  0  0  0  0  0  0  0
   -1.2676   -1.0599    0.2399 C   0  0  0  0  0  0  0  0  0  0  0  0
   -1.6270    0.0833    0.5138 O   0  0  0  0  0  0  0  0  0  0  0  0
   -1.0364   -1.8506   -2.1285 C   0  0  0  0  0  0  0  0  0  0  0  0
   -3.5631   -0.6202   -0.5206 H   0  0  0  0  0  0  0  0  0  0  0  0
   -2.0301   -2.9174   -0.5360 H   0  0  0  0  0  0  0  0  0  0  0  0
   -0.8921   -0.8236   -2.4833 H   0  0  0  0  0  0  0  0  0  0  0  0
   -0.0457   -2.2777   -1.9410 H   0  0  0  0  0  0  0  0  0  0  0  0
   -1.5052   -2.4193   -2.9387 H   0  0  0  0  0  0  0  0  0  0  0  0
   -0.2267   -1.7335    0.8672 N   0  0  0  0  0  0  0  0  0  0  0  0
    0.5363   -1.1590    1.9465 C   0  0  2  0  0  0  0  0  0  0  0  0
    1.7152   -0.4218    1.3217 C   0  0  0  0  0  0  0  0  0  0  0  0
    1.5809    0.5350    0.5616 O   0  0  0  0  0  0  0  0  0  0  0  0
    1.0271   -2.2239    2.9245 C   0  0  0  0  0  0  0  0  0  0  0  0
   -0.0459   -2.9126    3.7776 C   0  0  0  0  0  0  0  0  0  0  0  0
   -1.0574   -2.1909    4.0163 O   0  5  0  0  0  0  0  0  0  0  0  0
    0.1976   -4.0938    4.1469 O   0  0  0  0  0  0  0  0  0  0  0  0
   -0.0113   -2.6869    0.5854 H   0  0  0  0  0  0  0  0  0  0  0  0
   -0.1183   -0.4350    2.4448 H   0  0  0  0  0  0  0  0  0  0  0  0
    1.7696   -1.7858    3.6055 H   0  0  0  0  0  0  0  0  0  0  0  0
    1.5433   -3.0213    2.3741 H   0  0  0  0  0  0  0  0  0  0  0  0
    2.9340   -0.9254    1.7544 N   0  0  0  0  0  0  0  0  0  0  0  0
    4.2015   -0.3769    1.3312 C   0  0  2  0  0  0  0  0  0  0  0  0
    5.2201   -1.5089    1.3098 C   0  0  0  0  0  0  0  0  0  0  0  0
    5.0895   -2.5413    1.9640 O   0  0  0  0  0  0  0  0  0  0  0  0
    4.6544    0.7446    2.2529 C   0  0  0  0  0  0  0  0  0  0  0  0
    2.9493   -1.6901    2.4228 H   0  0  0  0  0  0  0  0  0  0  0  0
    4.0573    0.0047    0.3145 H   0  0  0  0  0  0  0  0  0  0  0  0
    4.8041    0.3813    3.2762 H   0  0  0  0  0  0  0  0  0  0  0  0
    5.6012    1.1784    1.9144 H   0  0  0  0  0  0  0  0  0  0  0  0
    3.9069    1.5444    2.2902 H   0  0  0  0  0  0  0  0  0  0  0  0
    6.3132   -1.2122    0.5076 N   0  0  0  0  0  0  0  0  0  0  0  0
    7.4219   -2.1213    0.3333 C   0  0  0  0  0  0  0  0  0  0  0  0
    6.3288   -0.3403   -0.0132 H   0  0  0  0  0  0  0  0  0  0  0  0
    8.2036   -1.8931    1.0728 H   0  0  0  0  0  0  0  0  0  0  0  0
    7.0739   -3.1551    0.4748 H   0  0  0  0  0  0  0  0  0  0  0  0
    7.8326   -2.0082   -0.6809 H   0  0  0  0  0  0  0  0  0  0  0  0
  1  3  1  0  0  0  0
  1  7  1  0  0  0  0
  1  2  2  0  0  0  0
 30 31  1  0  0  0  0
 31 39  1  0  0  0  0
 31 32  2  0  0  0  0
  8  9  1  0  0  0  0
  9 17  1  0  0  0  0
  9 10  2  0  0  0  0
 18 19  1  0  0  0  0
 19 29  1  0  0  0  0
 19 20  2  0  0  0  0
 21 22  1  0  0  0  0
 22 23  1  0  0  0  0
 22 24  2  0  0  0  0
 30 33  1  0  0  0  0
  8 11  1  0  0  0  0
 39 40  1  0  0  0  0
 18 21  1  0  0  0  0
 29 30  1  0  0  0  0
  7  8  1  0  0  0  0
 17 18  1  0  0  0  0
  3  4  1  0  0  0  0
  3  5  1  0  0  0  0
  3  6  1  0  0  0  0
 33 36  1  0  0  0  0
 33 37  1  0  0  0  0
 33 38  1  0  0  0  0
 11 14  1  0  0  0  0
 11 15  1  0  0  0  0
 11 16  1  0  0  0  0
 40 42  1  0  0  0  0
 40 43  1  0  0  0  0
 40 44  1  0  0  0  0
 21 27  1  0  0  0  0
 21 28  1  0  0  0  0
 30 35  1  0  0  0  0
  8 13  1  0  0  0  0
 18 26  1  0  0  0  0
 39 41  1  0  0  0  0
  7 12  1  0  0  0  0
 29 34  1  0  0  0  0
 17 25  1  0  0  0  0
M  CHG  1  23  -1
M  END
$$$$

  -OEChem-05262214473D

 44 43  0     1  0  0  0  0  0999 V2000
   -4.0256   -1.8030   -2.1581 C   0  0  0  0  0  0  0  0  0  0  0  0
   -3.7513   -2.6782   -2.9709 O   0  0  0  0  0  0  0  0  0  0  0  0
   -5.3491   -1.1169   -2.2339 C   0  0  0  0  0  0  0  0  0  0  0  0
   -5.3223   -0.2211   -2.8750 H   0  0  0  0  0  0  0  0  0  0  0  0
   -6.1322   -1.7605   -2.6658 H   0  0  0  0  0  0  0  0  0  0  0  0
   -5.7568   -0.7715   -1.2704 H   0  0  0  0  0  0  0  0  0  0  0  0
   -3.2124   -1.3578   -1.1289 N   0  0  0  0  0  0  0  0  0  0  0  0
   -1.8971   -1.8843   -0.8752 C   0  0  2  0  0  0  0  0  0  0  0  0
   -1.2676   -1.0599    0.2399 C   0  0  0  0  0  0  0  0  0  0  0  0
   -1.6270    0.0833    0.5138 O   0  0  0  0  0  0  0  0  0  0  0  0
   -1.0364   -1.8506   -2.1285 C   0  0  0  0  0  0  0  0  0  0  0  0
   -3.5631   -0.6202   -0.5206 H   0  0  0  0  0  0  0  0  0  0  0  0
   -2.0301   -2.9174   -0.5360 H   0  0  0  0  0  0  0  0  0  0  0  0
   -0.8921   -0.8236   -2.4833 H   0  0  0  0  0  0  0  0  0  0  0  0
   -0.0457   -2.2777   -1.9410 H   0  0  0  0  0  0  0  0  0  0  0  0
   -1.5052   -2.4193   -2.9387 H   0  0  0  0  0  0  0  0  0  0  0  0
   -0.2267   -1.7335    0.8672 N   0  0  0  0  0  0  0  0  0  0  0  0
    0.5363   -1.1590    1.9465 C   0  0  2  0  0  0  0  0  0  0  0  0
    1.7152   -0.4218    1.3217 C   0  0  0  0  0  0  0  0  0  0  0  0
    1.6095    0.6798    0.7864 O   0  0  0  0  0  0  0  0  0  0  0  0
    1.0271   -2.2239    2.9245 C   0  0  0  0  0  0  0  0  0  0  0  0
   -0.0459   -2.9126    3.7776 C   0  0  0  0  0  0  0  0  0  0  0  0
   -1.0574   -2.1909    4.0163 O   0  5  0  0  0  0  0  0  0  0  0  0
    0.1976   -4.0938    4.1469 O   0  0  0  0  0  0  0  0  0  0  0  0
   -0.0113   -2.6869    0.5854 H   0  0  0  0  0  0  0  0  0  0  0  0
   -0.1183   -0.4350    2.4448 H   0  0  0  0  0  0  0  0  0  0  0  0
    1.7696   -1.7858    3.6055 H   0  0  0  0  0  0  0  0  0  0  0  0
    1.5433   -3.0213    2.3741 H   0  0  0  0  0  0  0  0  0  0  0  0
    2.9070   -1.1155    1.4790 N   0  0  0  0  0  0  0  0  0  0  0  0
    4.1738   -0.6121    1.0015 C   0  0  2  0  0  0  0  0  0  0  0  0
    5.0416   -1.8051    0.6233 C   0  0  0  0  0  0  0  0  0  0  0  0
    4.8649   -2.9338    1.0771 O   0  0  0  0  0  0  0  0  0  0  0  0
    4.8593    0.2472    2.0525 C   0  0  0  0  0  0  0  0  0  0  0  0
    2.9076   -2.0000    1.9784 H   0  0  0  0  0  0  0  0  0  0  0  0
    3.9607   -0.0166    0.1071 H   0  0  0  0  0  0  0  0  0  0  0  0
    5.0808   -0.3324    2.9561 H   0  0  0  0  0  0  0  0  0  0  0  0
    5.8059    0.6513    1.6787 H   0  0  0  0  0  0  0  0  0  0  0  0
    4.2213    1.0881    2.3450 H   0  0  0  0  0  0  0  0  0  0  0  0
    6.0632   -1.4523   -0.2474 N   0  0  0  0  0  0  0  0  0  0  0  0
    7.0287   -2.4050   -0.7433 C   0  0  0  0  0  0  0  0  0  0  0  0
    6.1226   -0.4968   -0.5869 H   0  0  0  0  0  0  0  0  0  0  0  0
    7.9114   -2.4088   -0.0869 H   0  0  0  0  0  0  0  0  0  0  0  0
    6.5789   -3.4087   -0.7585 H   0  0  0  0  0  0  0  0  0  0  0  0
    7.3313   -2.1234   -1.7627 H   0  0  0  0  0  0  0  0  0  0  0  0
  1  3  1  0  0  0  0
  1  7  1  0  0  0  0
  1  2  2  0  0  0  0
 30 31  1  0  0  0  0
 31 39  1  0  0  0  0
 31 32  2  0  0  0  0
  8  9  1  0  0  0  0
  9 17  1  0  0  0  0
  9 10  2  0  0  0  0
 18 19  1  0  0  0  0
 19 29  1  0  0  0  0
 19 20  2  0  0  0  0
 21 22  1  0  0  0  0
 22 23  1  0  0  0  0
 22 24  2  0  0  0  0
 30 33  1  0  0  0  0
  8 11  1  0  0  0  0
 39 40  1  0  0  0  0
 18 21  1  0  0  0  0
 29 30  1  0  0  0  0
  7  8  1  0  0  0  0
 17 18  1  0  0  0  0
  3  4  1  0  0  0  0
  3  5  1  0  0  0  0
  3  6  1  0  0  0  0
 33 36  1  0  0  0  0
 33 37  1  0  0  0  0
 33 38  1  0  0  0  0
 11 14  1  0  0  0  0
 11 15  1  0  0  0  0
 11 16  1  0  0  0  0
 40 42  1  0  0  0  0
 40 43  1  0  0  0  0
 40 44  1  0  0  0  0
 21 27  1  0  0  0  0
 21 28  1  0  0  0  0
 30 35  1  0  0  0  0
  8 13  1  0  0  0  0
 18 26  1  0  0  0  0
 39 41  1  0  0  0  0
  7 12  1  0  0  0  0
 29 34  1  0  0  0  0
 17 25  1  0  0  0  0
M  CHG  1  23  -1
M  END
$$$$

  -OEChem-05262214473D

 44 43  0     1  0  0  0  0  0999 V2000
   -4.0256   -1.8030   -2.1581 C   0  0  0  0  0  0  0  0  0  0  0  0
   -3.7513   -2.6782   -2.9709 O   0  0  0  0  0  0  0  0  0  0  0  0
   -5.3491   -1.1169   -2.2339 C   0  0  0  0  0  0  0  0  0  0  0  0
   -5.3223   -0.2211   -2.8750 H   0  0  0  0  0  0  0  0  0  0  0  0
   -6.1322   -1.7605   -2.6658 H   0  0  0  0  0  0  0  0  0  0  0  0
   -5.7568   -0.7715   -1.2704 H   0  0  0  0  0  0  0  0  0  0  0  0
   -3.2124   -1.3578   -1.1289 N   0  0  0  0  0  0  0  0  0  0  0  0
   -1.8971   -1.8843   -0.8752 C   0  0  2  0  0  0  0  0  0  0  0  0
   -1.2676   -1.0599    0.2399 C   0  0  0  0  0  0  0  0  0  0  0  0
   -1.6270    0.0833    0.5138 O   0  0  0  0  0  0  0  0  0  0  0  0
   -1.0364   -1.8506   -2.1285 C   0  0  0  0  0  0  0  0  0  0  0  0
   -3.5631   -0.6202   -0.5206 H   0  0  0  0  0  0  0  0  0  0  0  0
   -2.0301   -2.9174   -0.5360 H   0  0  0  0  0  0  0  0  0  0  0  0
   -0.8921   -0.8236   -2.4833 H   0  0  0  0  0  0  0  0  0  0  0  0
   -0.0457   -2.2777   -1.9410 H   0  0  0  0  0  0  0  0  0  0  0  0
   -1.5052   -2.4193   -2.9387 H   0  0  0  0  0  0  0  0  0  0  0  0
   -0.2267   -1.7335    0.8672 N   0  0  0  0  0  0  0  0  0  0  0  0
    0.5363   -1.1590    1.9465 C   0  0  2  0  0  0  0  0  0  0  0  0
    1.7152   -0.4218    1.3217 C   0  0  0  0  0  0  0  0  0  0  0  0
    1.6806    0.7717    1.0290 O   0  0  0  0  0  0  0  0  0  0  0  0
    1.0271   -2.2239    2.9245 C   0  0  0  0  0  0  0  0  0  0  0  0
   -0.0459   -2.9126    3.7776 C   0  0  0  0  0  0  0  0  0  0  0  0
   -1.0574   -2.1909    4.0163 O   0  5  0  0  0  0  0  0  0  0  0  0
    0.1976   -4.0938    4.1469 O   0  0  0  0  0  0  0  0  0  0  0  0
   -0.0113   -2.6869    0.5854 H   0  0  0  0  0  0  0  0  0  0  0  0
   -0.1183   -0.4350    2.4448 H   0  0  0  0  0  0  0  0  0  0  0  0
    1.7696   -1.7858    3.6055 H   0  0  0  0  0  0  0  0  0  0  0  0
    1.5433   -3.0213    2.3741 H   0  0  0  0  0  0  0  0  0  0  0  0
    2.8262   -1.2412    1.1783 N   0  0  0  0  0  0  0  0  0  0  0  0
    4.0809   -0.7703    0.6395 C   0  0  2  0  0  0  0  0  0  0  0  0
    4.7518   -1.9350   -0.0768 C   0  0  0  0  0  0  0  0  0  0  0  0
    4.4953   -3.1116    0.1699 O   0  0  0  0  0  0  0  0  0  0  0  0
    4.9793   -0.2149    1.7336 C   0  0  0  0  0  0  0  0  0  0  0  0
    2.7789   -2.2060    1.4924 H   0  0  0  0  0  0  0  0  0  0  0  0
    3.8391    0.0146   -0.0854 H   0  0  0  0  0  0  0  0  0  0  0  0
    5.2323   -0.9870    2.4694 H   0  0  0  0  0  0  0  0  0  0  0  0
    5.9182    0.1676    1.3200 H   0  0  0  0  0  0  0  0  0  0  0  0
    4.4834    0.6030    2.2673 H   0  0  0  0  0  0  0  0  0  0  0  0
    5.7017   -1.5065   -0.9934 N   0  0  0  0  0  0  0  0  0  0  0  0
    6.4841   -2.4218   -1.7909 C   0  0  0  0  0  0  0  0  0  0  0  0
    5.8351   -0.5112   -1.1466 H   0  0  0  0  0  0  0  0  0  0  0  0
    7.4294   -2.6437   -1.2738 H   0  0  0  0  0  0  0  0  0  0  0  0
    5.9195   -3.3542   -1.9385 H   0  0  0  0  0  0  0  0  0  0  0  0
    6.6994   -1.9649   -2.7680 H   0  0  0  0  0  0  0  0  0  0  0  0
  1  3  1  0  0  0  0
  1  7  1  0  0  0  0
  1  2  2  0  0  0  0
 30 31  1  0  0  0  0
 31 39  1  0  0  0  0
 31 32  2  0  0  0  0
  8  9  1  0  0  0  0
  9 17  1  0  0  0  0
  9 10  2  0  0  0  0
 18 19  1  0  0  0  0
 19 29  1  0  0  0  0
 19 20  2  0  0  0  0
 21 22  1  0  0  0  0
 22 23  1  0  0  0  0
 22 24  2  0  0  0  0
 30 33  1  0  0  0  0
  8 11  1  0  0  0  0
 39 40  1  0  0  0  0
 18 21  1  0  0  0  0
 29 30  1  0  0  0  0
  7  8  1  0  0  0  0
 17 18  1  0  0  0  0
  3  4  1  0  0  0  0
  3  5  1  0  0  0  0
  3  6  1  0  0  0  0
 33 36  1  0  0  0  0
 33 37  1  0  0  0  0
 33 38  1  0  0  0  0
 11 14  1  0  0  0  0
 11 15  1  0  0  0  0
 11 16  1  0  0  0  0
 40 42  1  0  0  0  0
 40 43  1  0  0  0  0
 40 44  1  0  0  0  0
 21 27  1  0  0  0  0
 21 28  1  0  0  0  0
 30 35  1  0  0  0  0
  8 13  1  0  0  0  0
 18 26  1  0  0  0  0
 39 41  1  0  0  0  0
  7 12  1  0  0  0  0
 29 34  1  0  0  0  0
 17 25  1  0  0  0  0
M  CHG  1  23  -1
M  END
$$$$

  -OEChem-05262214473D

 44 43  0     1  0  0  0  0  0999 V2000
   -4.0256   -1.8030   -2.1581 C   0  0  0  0  0  0  0  0  0  0  0  0
   -3.7513   -2.6782   -2.9709 O   0  0  0  0  0  0  0  0  0  0  0  0
   -5.3491   -1.1169   -2.2339 C   0  0  0  0  0  0  0  0  0  0  0  0
   -5.3223   -0.2211   -2.8750 H   0  0  0  0  0  0  0  0  0  0  0  0
   -6.1322   -1.7605   -2.6658 H   0  0  0  0  0  0  0  0  0  0  0  0
   -5.7568   -0.7715   -1.2704 H   0  0  0  0  0  0  0  0  0  0  0  0
   -3.2124   -1.3578   -1.1289 N   0  0  0  0  0  0  0  0  0  0  0  0
   -1.8971   -1.8843   -0.8752 C   0  0  2  0  0  0  0  0  0  0  0  0
   -1.2676   -1.0599    0.2399 C   0  0  0  0  0  0  0  0  0  0  0  0
   -1.6270    0.0833    0.5138 O   0  0  0  0  0  0  0  0  0  0  0  0
   -1.0364   -1.8506   -2.1285 C   0  0  0  0  0  0  0  0  0  0  0  0
   -3.5631   -0.6202   -0.5206 H   0  0  0  0  0  0  0  0  0  0  0  0
   -2.0301   -2.9174   -0.5360 H   0  0  0  0  0  0  0  0  0  0  0  0
   -0.8921   -0.8236   -2.4833 H   0  0  0  0  0  0  0  0  0  0  0  0
   -0.0457   -2.2777   -1.9410 H   0  0  0  0  0  0  0  0  0  0  0  0
   -1.5052   -2.4193   -2.9387 H   0  0  0  0  0  0  0  0  0  0  0  0
   -0.2267   -1.7335    0.8672 N   0  0  0  0  0  0  0  0  0  0  0  0
    0.5363   -1.1590    1.9465 C   0  0  2  0  0  0  0  0  0  0  0  0
    1.7152   -0.4218    1.3217 C   0  0  0  0  0  0  0  0  0  0  0  0
    1.7894    0.8043    1.2729 O   0  0  0  0  0  0  0  0  0  0  0  0
    1.0271   -2.2239    2.9245 C   0  0  0  0  0  0  0  0  0  0  0  0
   -0.0459   -2.9126    3.7776 C   0  0  0  0  0  0  0  0  0  0  0  0
   -1.0574   -2.1909    4.0163 O   0  5  0  0  0  0  0  0  0  0  0  0
    0.1976   -4.0938    4.1469 O   0  0  0  0  0  0  0  0  0  0  0  0
   -0.0113   -2.6869    0.5854 H   0  0  0  0  0  0  0  0  0  0  0  0
   -0.1183   -0.4350    2.4448 H   0  0  0  0  0  0  0  0  0  0  0  0
    1.7696   -1.7858    3.6055 H   0  0  0  0  0  0  0  0  0  0  0  0
    1.5433   -3.0213    2.3741 H   0  0  0  0  0  0  0  0  0  0  0  0
    2.6972   -1.2938    0.8728 N   0  0  0  0  0  0  0  0  0  0  0  0
    3.9291   -0.8409    0.2697 C   0  0  2  0  0  0  0  0  0  0  0  0
    4.3705   -1.8895   -0.7427 C   0  0  0  0  0  0  0  0  0  0  0  0
    4.0059   -3.0625   -0.6957 O   0  0  0  0  0  0  0  0  0  0  0  0
    5.0063   -0.6102    1.3181 C   0  0  0  0  0  0  0  0  0  0  0  0
    2.5718   -2.2940    0.9978 H   0  0  0  0  0  0  0  0  0  0  0  0
    3.7010    0.0961   -0.2499 H   0  0  0  0  0  0  0  0  0  0  0  0
    5.2482   -1.5380    1.8493 H   0  0  0  0  0  0  0  0  0  0  0  0
    5.9305   -0.2396    0.8625 H   0  0  0  0  0  0  0  0  0  0  0  0
    4.6754    0.1223    2.0623 H   0  0  0  0  0  0  0  0  0  0  0  0
    5.2535   -1.3712   -1.6796 N   0  0  0  0  0  0  0  0  0  0  0  0
    5.8252   -2.1707   -2.7379 C   0  0  0  0  0  0  0  0  0  0  0  0
    5.4857   -0.3827   -1.6541 H   0  0  0  0  0  0  0  0  0  0  0  0
    6.7902   -2.5820   -2.4070 H   0  0  0  0  0  0  0  0  0  0  0  0
    5.1406   -2.9954   -2.9849 H   0  0  0  0  0  0  0  0  0  0  0  0
    5.9800   -1.5435   -3.6283 H   0  0  0  0  0  0  0  0  0  0  0  0
  1  3  1  0  0  0  0
  1  7  1  0  0  0  0
  1  2  2  0  0  0  0
 30 31  1  0  0  0  0
 31 39  1  0  0  0  0
 31 32  2  0  0  0  0
  8  9  1  0  0  0  0
  9 17  1  0  0  0  0
  9 10  2  0  0  0  0
 18 19  1  0  0  0  0
 19 29  1  0  0  0  0
 19 20  2  0  0  0  0
 21 22  1  0  0  0  0
 22 23  1  0  0  0  0
 22 24  2  0  0  0  0
 30 33  1  0  0  0  0
  8 11  1  0  0  0  0
 39 40  1  0  0  0  0
 18 21  1  0  0  0  0
 29 30  1  0  0  0  0
  7  8  1  0  0  0  0
 17 18  1  0  0  0  0
  3  4  1  0  0  0  0
  3  5  1  0  0  0  0
  3  6  1  0  0  0  0
 33 36  1  0  0  0  0
 33 37  1  0  0  0  0
 33 38  1  0  0  0  0
 11 14  1  0  0  0  0
 11 15  1  0  0  0  0
 11 16  1  0  0  0  0
 40 42  1  0  0  0  0
 40 43  1  0  0  0  0
 40 44  1  0  0  0  0
 21 27  1  0  0  0  0
 21 28  1  0  0  0  0
 30 35  1  0  0  0  0
  8 13  1  0  0  0  0
 18 26  1  0  0  0  0
 39 41  1  0  0  0  0
  7 12  1  0  0  0  0
 29 34  1  0  0  0  0
 17 25  1  0  0  0  0
M  CHG  1  23  -1
M  END
$$$$

  -OEChem-05262214473D

 44 43  0     1  0  0  0  0  0999 V2000
   -4.0256   -1.8030   -2.1581 C   0  0  0  0  0  0  0  0  0  0  0  0
   -3.7513   -2.6782   -2.9709 O   0  0  0  0  0  0  0  0  0  0  0  0
   -5.3491   -1.1169   -2.2339 C   0  0  0  0  0  0  0  0  0  0  0  0
   -5.3223   -0.2211   -2.8750 H   0  0  0  0  0  0  0  0  0  0  0  0
   -6.1322   -1.7605   -2.6658 H   0  0  0  0  0  0  0  0  0  0  0  0
   -5.7568   -0.7715   -1.2704 H   0  0  0  0  0  0  0  0  0  0  0  0
   -3.2124   -1.3578   -1.1289 N   0  0  0  0  0  0  0  0  0  0  0  0
   -1.8971   -1.8843   -0.8752 C   0  0  2  0  0  0  0  0  0  0  0  0
   -1.2676   -1.0599    0.2399 C   0  0  0  0  0  0  0  0  0  0  0  0
   -1.6270    0.0833    0.5138 O   0  0  0  0  0  0  0  0  0  0  0  0
   -1.0364   -1.8506   -2.1285 C   0  0  0  0  0  0  0  0  0  0  0  0
   -3.5631   -0.6202   -0.5206 H   0  0  0  0  0  0  0  0  0  0  0  0
   -2.0301   -2.9174   -0.5360 H   0  0  0  0  0  0  0  0  0  0  0  0
   -0.8921   -0.8236   -2.4833 H   0  0  0  0  0  0  0  0  0  0  0  0
   -0.0457   -2.2777   -1.9410 H   0  0  0  0  0  0  0  0  0  0  0  0
   -1.5052   -2.4193   -2.9387 H   0  0  0  0  0  0  0  0  0  0  0  0
   -0.2267   -1.7335    0.8672 N   0  0  0  0  0  0  0  0  0  0  0  0
    0.5363   -1.1590    1.9465 C   0  0  2  0  0  0  0  0  0  0  0  0
    1.7152   -0.4218    1.3217 C   0  0  0  0  0  0  0  0  0  0  0  0
    1.9285    0.7755    1.5013 O   0  0  0  0  0  0  0  0  0  0  0  0
    1.0271   -2.2239    2.9245 C   0  0  0  0  0  0  0  0  0  0  0  0
   -0.0459   -2.9126    3.7776 C   0  0  0  0  0  0  0  0  0  0  0  0
   -1.0574   -2.1909    4.0163 O   0  5  0  0  0  0  0  0  0  0  0  0
    0.1976   -4.0938    4.1469 O   0  0  0  0  0  0  0  0  0  0  0  0
   -0.0113   -2.6869    0.5854 H   0  0  0  0  0  0  0  0  0  0  0  0
   -0.1183   -0.4350    2.4448 H   0  0  0  0  0  0  0  0  0  0  0  0
    1.7696   -1.7858    3.6055 H   0  0  0  0  0  0  0  0  0  0  0  0
    1.5433   -3.0213    2.3741 H   0  0  0  0  0  0  0  0  0  0  0  0
    2.5288   -1.2698    0.5833 N   0  0  0  0  0  0  0  0  0  0  0  0
    3.7286   -0.8189   -0.0825 C   0  0  2  0  0  0  0  0  0  0  0  0
    3.9236   -1.6718   -1.3291 C   0  0  0  0  0  0  0  0  0  0  0  0
    3.4300   -2.7899   -1.4608 O   0  0  0  0  0  0  0  0  0  0  0  0
    4.9384   -0.9117    0.8343 C   0  0  0  0  0  0  0  0  0  0  0  0
    2.3006   -2.2581    0.5284 H   0  0  0  0  0  0  0  0  0  0  0  0
    3.5556    0.2225   -0.3752 H   0  0  0  0  0  0  0  0  0  0  0  0
    5.1275   -1.9478    1.1381 H   0  0  0  0  0  0  0  0  0  0  0  0
    5.8419   -0.5428    0.3376 H   0  0  0  0  0  0  0  0  0  0  0  0
    4.7842   -0.3215    1.7440 H   0  0  0  0  0  0  0  0  0  0  0  0
    4.7489   -1.0556   -2.2593 N   0  0  0  0  0  0  0  0  0  0  0  0
    5.0968   -1.6686   -3.5199 C   0  0  0  0  0  0  0  0  0  0  0  0
    5.0984   -0.1199   -2.0749 H   0  0  0  0  0  0  0  0  0  0  0  0
    6.0376   -2.2277   -3.4092 H   0  0  0  0  0  0  0  0  0  0  0  0
    4.2953   -2.3568   -3.8264 H   0  0  0  0  0  0  0  0  0  0  0  0
    5.2222   -0.8880   -4.2848 H   0  0  0  0  0  0  0  0  0  0  0  0
  1  3  1  0  0  0  0
  1  7  1  0  0  0  0
  1  2  2  0  0  0  0
 30 31  1  0  0  0  0
 31 39  1  0  0  0  0
 31 32  2  0  0  0  0
  8  9  1  0  0  0  0
  9 17  1  0  0  0  0
  9 10  2  0  0  0  0
 18 19  1  0  0  0  0
 19 29  1  0  0  0  0
 19 20  2  0  0  0  0
 21 22  1  0  0  0  0
 22 23  1  0  0  0  0
 22 24  2  0  0  0  0
 30 33  1  0  0  0  0
  8 11  1  0  0  0  0
 39 40  1  0  0  0  0
 18 21  1  0  0  0  0
 29 30  1  0  0  0  0
  7  8  1  0  0  0  0
 17 18  1  0  0  0  0
  3  4  1  0  0  0  0
  3  5  1  0  0  0  0
  3  6  1  0  0  0  0
 33 36  1  0  0  0  0
 33 37  1  0  0  0  0
 33 38  1  0  0  0  0
 11 14  1  0  0  0  0
 11 15  1  0  0  0  0
 11 16  1  0  0  0  0
 40 42  1  0  0  0  0
 40 43  1  0  0  0  0
 40 44  1  0  0  0  0
 21 27  1  0  0  0  0
 21 28  1  0  0  0  0
 30 35  1  0  0  0  0
  8 13  1  0  0  0  0
 18 26  1  0  0  0  0
 39 41  1  0  0  0  0
  7 12  1  0  0  0  0
 29 34  1  0  0  0  0
 17 25  1  0  0  0  0
M  CHG  1  23  -1
M  END
$$$$

  -OEChem-05262214473D

 44 43  0     1  0  0  0  0  0999 V2000
   -4.0256   -1.8030   -2.1581 C   0  0  0  0  0  0  0  0  0  0  0  0
   -3.7513   -2.6782   -2.9709 O   0  0  0  0  0  0  0  0  0  0  0  0
   -5.3491   -1.1169   -2.2339 C   0  0  0  0  0  0  0  0  0  0  0  0
   -5.3223   -0.2211   -2.8750 H   0  0  0  0  0  0  0  0  0  0  0  0
   -6.1322   -1.7605   -2.6658 H   0  0  0  0  0  0  0  0  0  0  0  0
   -5.7568   -0.7715   -1.2704 H   0  0  0  0  0  0  0  0  0  0  0  0
   -3.2124   -1.3578   -1.1289 N   0  0  0  0  0  0  0  0  0  0  0  0
   -1.8971   -1.8843   -0.8752 C   0  0  2  0  0  0  0  0  0  0  0  0
   -1.2676   -1.0599    0.2399 C   0  0  0  0  0  0  0  0  0  0  0  0
   -1.6270    0.0833    0.5138 O   0  0  0  0  0  0  0  0  0  0  0  0
   -1.0364   -1.8506   -2.1285 C   0  0  0  0  0  0  0  0  0  0  0  0
   -3.5631   -0.6202   -0.5206 H   0  0  0  0  0  0  0  0  0  0  0  0
   -2.0301   -2.9174   -0.5360 H   0  0  0  0  0  0  0  0  0  0  0  0
   -0.8921   -0.8236   -2.4833 H   0  0  0  0  0  0  0  0  0  0  0  0
   -0.0457   -2.2777   -1.9410 H   0  0  0  0  0  0  0  0  0  0  0  0
   -1.5052   -2.4193   -2.9387 H   0  0  0  0  0  0  0  0  0  0  0  0
   -0.2267   -1.7335    0.8672 N   0  0  0  0  0  0  0  0  0  0  0  0
    0.5363   -1.1590    1.9465 C   0  0  2  0  0  0  0  0  0  0  0  0
    1.7152   -0.4218    1.3217 C   0  0  0  0  0  0  0  0  0  0  0  0
    2.0884    0.6872    1.6988 O   0  0  0  0  0  0  0  0  0  0  0  0
    1.0271   -2.2239    2.9245 C   0  0  0  0  0  0  0  0  0  0  0  0
   -0.0459   -2.9126    3.7776 C   0  0  0  0  0  0  0  0  0  0  0  0
   -1.0574   -2.1909    4.0163 O   0  5  0  0  0  0  0  0  0  0  0  0
    0.1976   -4.0938    4.1469 O   0  0  0  0  0  0  0  0  0  0  0  0
   -0.0113   -2.6869    0.5854 H   0  0  0  0  0  0  0  0  0  0  0  0
   -0.1183   -0.4350    2.4448 H   0  0  0  0  0  0  0  0  0  0  0  0
    1.7696   -1.7858    3.6055 H   0  0  0  0  0  0  0  0  0  0  0  0
    1.5433   -3.0213    2.3741 H   0  0  0  0  0  0  0  0  0  0  0  0
    2.3324   -1.1708    0.3296 N   0  0  0  0  0  0  0  0  0  0  0  0
    3.4933   -0.7058   -0.3933 C   0  0  2  0  0  0  0  0  0  0  0  0
    3.4416   -1.2968   -1.7960 C   0  0  0  0  0  0  0  0  0  0  0  0
    2.8069   -2.3124   -2.0731 O   0  0  0  0  0  0  0  0  0  0  0  0
    4.7803   -1.0989    0.3151 C   0  0  0  0  0  0  0  0  0  0  0  0
    1.9837   -2.1006    0.1161 H   0  0  0  0  0  0  0  0  0  0  0  0
    3.4128    0.3850   -0.4528 H   0  0  0  0  0  0  0  0  0  0  0  0
    4.8785   -2.1884    0.3842 H   0  0  0  0  0  0  0  0  0  0  0  0
    5.6584   -0.7212   -0.2190 H   0  0  0  0  0  0  0  0  0  0  0  0
    4.8024   -0.6979    1.3341 H   0  0  0  0  0  0  0  0  0  0  0  0
    4.2225   -0.5812   -2.6929 N   0  0  0  0  0  0  0  0  0  0  0  0
    4.3486   -0.9498   -4.0836 C   0  0  0  0  0  0  0  0  0  0  0  0
    4.6994    0.2593   -2.3802 H   0  0  0  0  0  0  0  0  0  0  0  0
    5.2227   -1.6051   -4.2121 H   0  0  0  0  0  0  0  0  0  0  0  0
    3.4412   -1.4819   -4.4055 H   0  0  0  0  0  0  0  0  0  0  0  0
    4.4775   -0.0431   -4.6929 H   0  0  0  0  0  0  0  0  0  0  0  0
  1  3  1  0  0  0  0
  1  7  1  0  0  0  0
  1  2  2  0  0  0  0
 30 31  1  0  0  0  0
 31 39  1  0  0  0  0
 31 32  2  0  0  0  0
  8  9  1  0  0  0  0
  9 17  1  0  0  0  0
  9 10  2  0  0  0  0
 18 19  1  0  0  0  0
 19 29  1  0  0  0  0
 19 20  2  0  0  0  0
 21 22  1  0  0  0  0
 22 23  1  0  0  0  0
 22 24  2  0  0  0  0
 30 33  1  0  0  0  0
  8 11  1  0  0  0  0
 39 40  1  0  0  0  0
 18 21  1  0  0  0  0
 29 30  1  0  0  0  0
  7  8  1  0  0  0  0
 17 18  1  0  0  0  0
  3  4  1  0  0  0  0
  3  5  1  0  0  0  0
  3  6  1  0  0  0  0
 33 36  1  0  0  0  0
 33 37  1  0  0  0  0
 33 38  1  0  0  0  0
 11 14  1  0  0  0  0
 11 15  1  0  0  0  0
 11 16  1  0  0  0  0
 40 42  1  0  0  0  0
 40 43  1  0  0  0  0
 40 44  1  0  0  0  0
 21 27  1  0  0  0  0
 21 28  1  0  0  0  0
 30 35  1  0  0  0  0
  8 13  1  0  0  0  0
 18 26  1  0  0  0  0
 39 41  1  0  0  0  0
  7 12  1  0  0  0  0
 29 34  1  0  0  0  0
 17 25  1  0  0  0  0
M  CHG  1  23  -1
M  END
$$$$

  -OEChem-05262214473D

 44 43  0     1  0  0  0  0  0999 V2000
   -4.0256   -1.8030   -2.1581 C   0  0  0  0  0  0  0  0  0  0  0  0
   -3.7513   -2.6782   -2.9709 O   0  0  0  0  0  0  0  0  0  0  0  0
   -5.3491   -1.1169   -2.2339 C   0  0  0  0  0  0  0  0  0  0  0  0
   -5.3223   -0.2211   -2.8750 H   0  0  0  0  0  0  0  0  0  0  0  0
   -6.1322   -1.7605   -2.6658 H   0  0  0  0  0  0  0  0  0  0  0  0
   -5.7568   -0.7715   -1.2704 H   0  0  0  0  0  0  0  0  0  0  0  0
   -3.2124   -1.3578   -1.1289 N   0  0  0  0  0  0  0  0  0  0  0  0
   -1.8971   -1.8843   -0.8752 C   0  0  2  0  0  0  0  0  0  0  0  0
   -1.2676   -1.0599    0.2399 C   0  0  0  0  0  0  0  0  0  0  0  0
   -1.6270    0.0833    0.5138 O   0  0  0  0  0  0  0  0  0  0  0  0
   -1.0364   -1.8506   -2.1285 C   0  0  0  0  0  0  0  0  0  0  0  0
   -3.5631   -0.6202   -0.5206 H   0  0  0  0  0  0  0  0  0  0  0  0
   -2.0301   -2.9174   -0.5360 H   0  0  0  0  0  0  0  0  0  0  0  0
   -0.8921   -0.8236   -2.4833 H   0  0  0  0  0  0  0  0  0  0  0  0
   -0.0457   -2.2777   -1.9410 H   0  0  0  0  0  0  0  0  0  0  0  0
   -1.5052   -2.4193   -2.9387 H   0  0  0  0  0  0  0  0  0  0  0  0
   -0.2267   -1.7335    0.8672 N   0  0  0  0  0  0  0  0  0  0  0  0
    0.5363   -1.1590    1.9465 C   0  0  2  0  0  0  0  0  0  0  0  0
    1.7152   -0.4218    1.3217 C   0  0  0  0  0  0  0  0  0  0  0  0
    2.2582    0.5454    1.8518 O   0  0  0  0  0  0  0  0  0  0  0  0
    1.0271   -2.2239    2.9245 C   0  0  0  0  0  0  0  0  0  0  0  0
   -0.0459   -2.9126    3.7776 C   0  0  0  0  0  0  0  0  0  0  0  0
   -1.0574   -2.1909    4.0163 O   0  5  0  0  0  0  0  0  0  0  0  0
    0.1976   -4.0938    4.1469 O   0  0  0  0  0  0  0  0  0  0  0  0
   -0.0113   -2.6869    0.5854 H   0  0  0  0  0  0  0  0  0  0  0  0
   -0.1183   -0.4350    2.4448 H   0  0  0  0  0  0  0  0  0  0  0  0
    1.7696   -1.7858    3.6055 H   0  0  0  0  0  0  0  0  0  0  0  0
    1.5433   -3.0213    2.3741 H   0  0  0  0  0  0  0  0  0  0  0  0
    2.1215   -1.0036    0.1289 N   0  0  0  0  0  0  0  0  0  0  0  0
    3.2390   -0.5095   -0.6414 C   0  0  2  0  0  0  0  0  0  0  0  0
    2.9574   -0.7900   -2.1116 C   0  0  0  0  0  0  0  0  0  0  0  0
    2.1790   -1.6625   -2.4909 O   0  0  0  0  0  0  0  0  0  0  0  0
    4.5428   -1.1590   -0.2041 C   0  0  0  0  0  0  0  0  0  0  0  0
    1.6426   -1.8324   -0.2109 H   0  0  0  0  0  0  0  0  0  0  0  0
    3.2825    0.5727   -0.4772 H   0  0  0  0  0  0  0  0  0  0  0  0
    4.5180   -2.2435   -0.3611 H   0  0  0  0  0  0  0  0  0  0  0  0
    5.3926   -0.7626   -0.7694 H   0  0  0  0  0  0  0  0  0  0  0  0
    4.7287   -0.9814    0.8606 H   0  0  0  0  0  0  0  0  0  0  0  0
    3.7101    0.0196   -2.9508 N   0  0  0  0  0  0  0  0  0  0  0  0
    3.6316   -0.0633   -4.3906 C   0  0  0  0  0  0  0  0  0  0  0  0
    4.3161    0.7290   -2.5493 H   0  0  0  0  0  0  0  0  0  0  0  0
    4.4012   -0.7565   -4.7610 H   0  0  0  0  0  0  0  0  0  0  0  0
    2.6366   -0.4302   -4.6829 H   0  0  0  0  0  0  0  0  0  0  0  0
    3.7968    0.9338   -4.8247 H   0  0  0  0  0  0  0  0  0  0  0  0
  1  3  1  0  0  0  0
  1  7  1  0  0  0  0
  1  2  2  0  0  0  0
 30 31  1  0  0  0  0
 31 39  1  0  0  0  0
 31 32  2  0  0  0  0
  8  9  1  0  0  0  0
  9 17  1  0  0  0  0
  9 10  2  0  0  0  0
 18 19  1  0  0  0  0
 19 29  1  0  0  0  0
 19 20  2  0  0  0  0
 21 22  1  0  0  0  0
 22 23  1  0  0  0  0
 22 24  2  0  0  0  0
 30 33  1  0  0  0  0
  8 11  1  0  0  0  0
 39 40  1  0  0  0  0
 18 21  1  0  0  0  0
 29 30  1  0  0  0  0
  7  8  1  0  0  0  0
 17 18  1  0  0  0  0
  3  4  1  0  0  0  0
  3  5  1  0  0  0  0
  3  6  1  0  0  0  0
 33 36  1  0  0  0  0
 33 37  1  0  0  0  0
 33 38  1  0  0  0  0
 11 14  1  0  0  0  0
 11 15  1  0  0  0  0
 11 16  1  0  0  0  0
 40 42  1  0  0  0  0
 40 43  1  0  0  0  0
 40 44  1  0  0  0  0
 21 27  1  0  0  0  0
 21 28  1  0  0  0  0
 30 35  1  0  0  0  0
  8 13  1  0  0  0  0
 18 26  1  0  0  0  0
 39 41  1  0  0  0  0
  7 12  1  0  0  0  0
 29 34  1  0  0  0  0
 17 25  1  0  0  0  0
M  CHG  1  23  -1
M  END
$$$$

  -OEChem-05262214473D

 44 43  0     1  0  0  0  0  0999 V2000
   -4.0256   -1.8030   -2.1581 C   0  0  0  0  0  0  0  0  0  0  0  0
   -3.7513   -2.6782   -2.9709 O   0  0  0  0  0  0  0  0  0  0  0  0
   -5.3491   -1.1169   -2.2339 C   0  0  0  0  0  0  0  0  0  0  0  0
   -5.3223   -0.2211   -2.8750 H   0  0  0  0  0  0  0  0  0  0  0  0
   -6.1322   -1.7605   -2.6658 H   0  0  0  0  0  0  0  0  0  0  0  0
   -5.7568   -0.7715   -1.2704 H   0  0  0  0  0  0  0  0  0  0  0  0
   -3.2124   -1.3578   -1.1289 N   0  0  0  0  0  0  0  0  0  0  0  0
   -1.8971   -1.8843   -0.8752 C   0  0  2  0  0  0  0  0  0  0  0  0
   -1.2676   -1.0599    0.2399 C   0  0  0  0  0  0  0  0  0  0  0  0
   -1.6270    0.0833    0.5138 O   0  0  0  0  0  0  0  0  0  0  0  0
   -1.0364   -1.8506   -2.1285 C   0  0  0  0  0  0  0  0  0  0  0  0
   -3.5631   -0.6202   -0.5206 H   0  0  0  0  0  0  0  0  0  0  0  0
   -2.0301   -2.9174   -0.5360 H   0  0  0  0  0  0  0  0  0  0  0  0
   -0.8921   -0.8236   -2.4833 H   0  0  0  0  0  0  0  0  0  0  0  0
   -0.0457   -2.2777   -1.9410 H   0  0  0  0  0  0  0  0  0  0  0  0
   -1.5052   -2.4193   -2.9387 H   0  0  0  0  0  0  0  0  0  0  0  0
   -0.2267   -1.7335    0.8672 N   0  0  0  0  0  0  0  0  0  0  0  0
    0.5363   -1.1590    1.9465 C   0  0  2  0  0  0  0  0  0  0  0  0
    1.7152   -0.4218    1.3217 C   0  0  0  0  0  0  0  0  0  0  0  0
    2.4263    0.3598    1.9500 O   0  0  0  0  0  0  0  0  0  0  0  0
    1.0271   -2.2239    2.9245 C   0  0  0  0  0  0  0  0  0  0  0  0
   -0.0459   -2.9126    3.7776 C   0  0  0  0  0  0  0  0  0  0  0  0
   -1.0574   -2.1909    4.0163 O   0  5  0  0  0  0  0  0  0  0  0  0
    0.1976   -4.0938    4.1469 O   0  0  0  0  0  0  0  0  0  0  0  0
   -0.0113   -2.6869    0.5854 H   0  0  0  0  0  0  0  0  0  0  0  0
   -0.1183   -0.4350    2.4448 H   0  0  0  0  0  0  0  0  0  0  0  0
    1.7696   -1.7858    3.6055 H   0  0  0  0  0  0  0  0  0  0  0  0
    1.5433   -3.0213    2.3741 H   0  0  0  0  0  0  0  0  0  0  0  0
    1.9104   -0.7795   -0.0050 N   0  0  0  0  0  0  0  0  0  0  0  0
    2.9832   -0.2432   -0.8099 C   0  0  2  0  0  0  0  0  0  0  0  0
    2.5040   -0.1859   -2.2544 C   0  0  0  0  0  0  0  0  0  0  0  0
    1.5892   -0.8845   -2.6859 O   0  0  0  0  0  0  0  0  0  0  0  0
    4.2419   -1.0879   -0.6879 C   0  0  0  0  0  0  0  0  0  0  0  0
    1.3007   -1.4717   -0.4304 H   0  0  0  0  0  0  0  0  0  0  0  0
    3.1734    0.7727   -0.4470 H   0  0  0  0  0  0  0  0  0  0  0  0
    4.0707   -2.1094   -1.0468 H   0  0  0  0  0  0  0  0  0  0  0  0
    5.0626   -0.6642   -1.2761 H   0  0  0  0  0  0  0  0  0  0  0  0
    4.5682   -1.1526    0.3557 H   0  0  0  0  0  0  0  0  0  0  0  0
    3.2465    0.7060   -3.0156 N   0  0  0  0  0  0  0  0  0  0  0  0
    2.9946    0.9305   -4.4199 C   0  0  0  0  0  0  0  0  0  0  0  0
    3.9745    1.2572   -2.5706 H   0  0  0  0  0  0  0  0  0  0  0  0
    3.6290    0.2602   -5.0185 H   0  0  0  0  0  0  0  0  0  0  0  0
    1.9362    0.7265   -4.6396 H   0  0  0  0  0  0  0  0  0  0  0  0
    3.2264    1.9759   -4.6713 H   0  0  0  0  0  0  0  0  0  0  0  0
  1  3  1  0  0  0  0
  1  7  1  0  0  0  0
  1  2  2  0  0  0  0
 30 31  1  0  0  0  0
 31 39  1  0  0  0  0
 31 32  2  0  0  0  0
  8  9  1  0  0  0  0
  9 17  1  0  0  0  0
  9 10  2  0  0  0  0
 18 19  1  0  0  0  0
 19 29  1  0  0  0  0
 19 20  2  0  0  0  0
 21 22  1  0  0  0  0
 22 23  1  0  0  0  0
 22 24  2  0  0  0  0
 30 33  1  0  0  0  0
  8 11  1  0  0  0  0
 39 40  1  0  0  0  0
 18 21  1  0  0  0  0
 29 30  1  0  0  0  0
  7  8  1  0  0  0  0
 17 18  1  0  0  0  0
  3  4  1  0  0  0  0
  3  5  1  0  0  0  0
  3  6  1  0  0  0  0
 33 36  1  0  0  0  0
 33 37  1  0  0  0  0
 33 38  1  0  0  0  0
 11 14  1  0  0  0  0
 11 15  1  0  0  0  0
 11 16  1  0  0  0  0
 40 42  1  0  0  0  0
 40 43  1  0  0  0  0
 40 44  1  0  0  0  0
 21 27  1  0  0  0  0
 21 28  1  0  0  0  0
 30 35  1  0  0  0  0
  8 13  1  0  0  0  0
 18 26  1  0  0  0  0
 39 41  1  0  0  0  0
  7 12  1  0  0  0  0
 29 34  1  0  0  0  0
 17 25  1  0  0  0  0
M  CHG  1  23  -1
M  END
$$$$

  -OEChem-05262214473D

 44 43  0     1  0  0  0  0  0999 V2000
   -4.0256   -1.8030   -2.1581 C   0  0  0  0  0  0  0  0  0  0  0  0
   -3.7513   -2.6782   -2.9709 O   0  0  0  0  0  0  0  0  0  0  0  0
   -5.3491   -1.1169   -2.2339 C   0  0  0  0  0  0  0  0  0  0  0  0
   -5.3223   -0.2211   -2.8750 H   0  0  0  0  0  0  0  0  0  0  0  0
   -6.1322   -1.7605   -2.6658 H   0  0  0  0  0  0  0  0  0  0  0  0
   -5.7568   -0.7715   -1.2704 H   0  0  0  0  0  0  0  0  0  0  0  0
   -3.2124   -1.3578   -1.1289 N   0  0  0  0  0  0  0  0  0  0  0  0
   -1.8971   -1.8843   -0.8752 C   0  0  2  0  0  0  0  0  0  0  0  0
   -1.2676   -1.0599    0.2399 C   0  0  0  0  0  0  0  0  0  0  0  0
   -1.6270    0.0833    0.5138 O   0  0  0  0  0  0  0  0  0  0  0  0
   -1.0364   -1.8506   -2.1285 C   0  0  0  0  0  0  0  0  0  0  0  0
   -3.5631   -0.6202   -0.5206 H   0  0  0  0  0  0  0  0  0  0  0  0
   -2.0301   -2.9174   -0.5360 H   0  0  0  0  0  0  0  0  0  0  0  0
   -0.8921   -0.8236   -2.4833 H   0  0  0  0  0  0  0  0  0  0  0  0
   -0.0457   -2.2777   -1.9410 H   0  0  0  0  0  0  0  0  0  0  0  0
   -1.5052   -2.4193   -2.9387 H   0  0  0  0  0  0  0  0  0  0  0  0
   -0.2267   -1.7335    0.8672 N   0  0  0  0  0  0  0  0  0  0  0  0
    0.5363   -1.1590    1.9465 C   0  0  2  0  0  0  0  0  0  0  0  0
    1.7152   -0.4218    1.3217 C   0  0  0  0  0  0  0  0  0  0  0  0
    2.5813    0.1430    1.9867 O   0  0  0  0  0  0  0  0  0  0  0  0
    1.0271   -2.2239    2.9245 C   0  0  0  0  0  0  0  0  0  0  0  0
   -0.0459   -2.9126    3.7776 C   0  0  0  0  0  0  0  0  0  0  0  0
   -1.0574   -2.1909    4.0163 O   0  5  0  0  0  0  0  0  0  0  0  0
    0.1976   -4.0938    4.1469 O   0  0  0  0  0  0  0  0  0  0  0  0
   -0.0113   -2.6869    0.5854 H   0  0  0  0  0  0  0  0  0  0  0  0
   -0.1183   -0.4350    2.4448 H   0  0  0  0  0  0  0  0  0  0  0  0
    1.7696   -1.7858    3.6055 H   0  0  0  0  0  0  0  0  0  0  0  0
    1.5433   -3.0213    2.3741 H   0  0  0  0  0  0  0  0  0  0  0  0
    1.7135   -0.5139   -0.0631 N   0  0  0  0  0  0  0  0  0  0  0  0
    2.7433    0.0748   -0.8874 C   0  0  2  0  0  0  0  0  0  0  0  0
    2.1122    0.4743   -2.2146 C   0  0  0  0  0  0  0  0  0  0  0  0
    1.0776   -0.0314   -2.6446 O   0  0  0  0  0  0  0  0  0  0  0  0
    3.8983   -0.8905   -1.1034 C   0  0  0  0  0  0  0  0  0  0  0  0
    0.9812   -1.0430   -0.5274 H   0  0  0  0  0  0  0  0  0  0  0  0
    3.0931    0.9714   -0.3641 H   0  0  0  0  0  0  0  0  0  0  0  0
    3.5670   -1.7951   -1.6264 H   0  0  0  0  0  0  0  0  0  0  0  0
    4.6909   -0.4327   -1.7045 H   0  0  0  0  0  0  0  0  0  0  0  0
    4.3318   -1.1999   -0.1462 H   0  0  0  0  0  0  0  0  0  0  0  0
    2.8635    1.4311   -2.8827 N   0  0  0  0  0  0  0  0  0  0  0  0
    2.4811    1.9638   -4.1695 C   0  0  0  0  0  0  0  0  0  0  0  0
    3.6979    1.8079   -2.4427 H   0  0  0  0  0  0  0  0  0  0  0  0
    2.9586    1.3757   -4.9671 H   0  0  0  0  0  0  0  0  0  0  0  0
    1.3878    1.9094   -4.2785 H   0  0  0  0  0  0  0  0  0  0  0  0
    2.8052    3.0124   -4.2432 H   0  0  0  0  0  0  0  0  0  0  0  0
  1  3  1  0  0  0  0
  1  7  1  0  0  0  0
  1  2  2  0  0  0  0
 30 31  1  0  0  0  0
 31 39  1  0  0  0  0
 31 32  2  0  0  0  0
  8  9  1  0  0  0  0
  9 17  1  0  0  0  0
  9 10  2  0  0  0  0
 18 19  1  0  0  0  0
 19 29  1  0  0  0  0
 19 20  2  0  0  0  0
 21 22  1  0  0  0  0
 22 23  1  0  0  0  0
 22 24  2  0  0  0  0
 30 33  1  0  0  0  0
  8 11  1  0  0  0  0
 39 40  1  0  0  0  0
 18 21  1  0  0  0  0
 29 30  1  0  0  0  0
  7  8  1  0  0  0  0
 17 18  1  0  0  0  0
  3  4  1  0  0  0  0
  3  5  1  0  0  0  0
  3  6  1  0  0  0  0
 33 36  1  0  0  0  0
 33 37  1  0  0  0  0
 33 38  1  0  0  0  0
 11 14  1  0  0  0  0
 11 15  1  0  0  0  0
 11 16  1  0  0  0  0
 40 42  1  0  0  0  0
 40 43  1  0  0  0  0
 40 44  1  0  0  0  0
 21 27  1  0  0  0  0
 21 28  1  0  0  0  0
 30 35  1  0  0  0  0
  8 13  1  0  0  0  0
 18 26  1  0  0  0  0
 39 41  1  0  0  0  0
  7 12  1  0  0  0  0
 29 34  1  0  0  0  0
 17 25  1  0  0  0  0
M  CHG  1  23  -1
M  END
$$$$

  -OEChem-05262214473D

 44 43  0     1  0  0  0  0  0999 V2000
   -4.0256   -1.8030   -2.1581 C   0  0  0  0  0  0  0  0  0  0  0  0
   -3.7513   -2.6782   -2.9709 O   0  0  0  0  0  0  0  0  0  0  0  0
   -5.3491   -1.1169   -2.2339 C   0  0  0  0  0  0  0  0  0  0  0  0
   -5.3223   -0.2211   -2.8750 H   0  0  0  0  0  0  0  0  0  0  0  0
   -6.1322   -1.7605   -2.6658 H   0  0  0  0  0  0  0  0  0  0  0  0
   -5.7568   -0.7715   -1.2704 H   0  0  0  0  0  0  0  0  0  0  0  0
   -3.2124   -1.3578   -1.1289 N   0  0  0  0  0  0  0  0  0  0  0  0
   -1.8971   -1.8843   -0.8752 C   0  0  2  0  0  0  0  0  0  0  0  0
   -1.2676   -1.0599    0.2399 C   0  0  0  0  0  0  0  0  0  0  0  0
   -1.6270    0.0833    0.5138 O   0  0  0  0  0  0  0  0  0  0  0  0
   -1.0364   -1.8506   -2.1285 C   0  0  0  0  0  0  0  0  0  0  0  0
   -3.5631   -0.6202   -0.5206 H   0  0  0  0  0  0  0  0  0  0  0  0
   -2.0301   -2.9174   -0.5360 H   0  0  0  0  0  0  0  0  0  0  0  0
   -0.8921   -0.8236   -2.4833 H   0  0  0  0  0  0  0  0  0  0  0  0
   -0.0457   -2.2777   -1.9410 H   0  0  0  0  0  0  0  0  0  0  0  0
   -1.5052   -2.4193   -2.9387 H   0  0  0  0  0  0  0  0  0  0  0  0
   -0.2267   -1.7335    0.8672 N   0  0  0  0  0  0  0  0  0  0  0  0
    0.5363   -1.1590    1.9465 C   0  0  2  0  0  0  0  0  0  0  0  0
    1.7152   -0.4218    1.3217 C   0  0  0  0  0  0  0  0  0  0  0  0
    2.7126   -0.0902    1.9593 O   0  0  0  0  0  0  0  0  0  0  0  0
    1.0271   -2.2239    2.9245 C   0  0  0  0  0  0  0  0  0  0  0  0
   -0.0459   -2.9126    3.7776 C   0  0  0  0  0  0  0  0  0  0  0  0
   -1.0574   -2.1909    4.0163 O   0  5  0  0  0  0  0  0  0  0  0  0
    0.1976   -4.0938    4.1469 O   0  0  0  0  0  0  0  0  0  0  0  0
   -0.0113   -2.6869    0.5854 H   0  0  0  0  0  0  0  0  0  0  0  0
   -0.1183   -0.4350    2.4448 H   0  0  0  0  0  0  0  0  0  0  0  0
    1.7696   -1.7858    3.6055 H   0  0  0  0  0  0  0  0  0  0  0  0
    1.5433   -3.0213    2.3741 H   0  0  0  0  0  0  0  0  0  0  0  0
    1.5442   -0.2247   -0.0414 N   0  0  0  0  0  0  0  0  0  0  0  0
    2.5355    0.4230   -0.8685 C   0  0  2  0  0  0  0  0  0  0  0  0
    1.8088    1.1456   -1.9950 C   0  0  0  0  0  0  0  0  0  0  0  0
    0.6791    0.8387   -2.3700 O   0  0  0  0  0  0  0  0  0  0  0  0
    3.5354   -0.5802   -1.4221 C   0  0  0  0  0  0  0  0  0  0  0  0
    0.7060   -0.5757   -0.4954 H   0  0  0  0  0  0  0  0  0  0  0  0
    3.0470    1.1553   -0.2342 H   0  0  0  0  0  0  0  0  0  0  0  0
    3.0413   -1.3220   -2.0602 H   0  0  0  0  0  0  0  0  0  0  0  0
    4.3027   -0.0840   -2.0254 H   0  0  0  0  0  0  0  0  0  0  0  0
    4.0357   -1.1201   -0.6109 H   0  0  0  0  0  0  0  0  0  0  0  0
    2.5871    2.1455   -2.5613 N   0  0  0  0  0  0  0  0  0  0  0  0
    2.1260    2.9663   -3.6566 C   0  0  0  0  0  0  0  0  0  0  0  0
    3.5051    2.3436   -2.1743 H   0  0  0  0  0  0  0  0  0  0  0  0
    2.4359    2.5140   -4.6102 H   0  0  0  0  0  0  0  0  0  0  0  0
    1.0288    3.0379   -3.6244 H   0  0  0  0  0  0  0  0  0  0  0  0
    2.5618    3.9725   -3.5694 H   0  0  0  0  0  0  0  0  0  0  0  0
  1  3  1  0  0  0  0
  1  7  1  0  0  0  0
  1  2  2  0  0  0  0
 30 31  1  0  0  0  0
 31 39  1  0  0  0  0
 31 32  2  0  0  0  0
  8  9  1  0  0  0  0
  9 17  1  0  0  0  0
  9 10  2  0  0  0  0
 18 19  1  0  0  0  0
 19 29  1  0  0  0  0
 19 20  2  0  0  0  0
 21 22  1  0  0  0  0
 22 23  1  0  0  0  0
 22 24  2  0  0  0  0
 30 33  1  0  0  0  0
  8 11  1  0  0  0  0
 39 40  1  0  0  0  0
 18 21  1  0  0  0  0
 29 30  1  0  0  0  0
  7  8  1  0  0  0  0
 17 18  1  0  0  0  0
  3  4  1  0  0  0  0
  3  5  1  0  0  0  0
  3  6  1  0  0  0  0
 33 36  1  0  0  0  0
 33 37  1  0  0  0  0
 33 38  1  0  0  0  0
 11 14  1  0  0  0  0
 11 15  1  0  0  0  0
 11 16  1  0  0  0  0
 40 42  1  0  0  0  0
 40 43  1  0  0  0  0
 40 44  1  0  0  0  0
 21 27  1  0  0  0  0
 21 28  1  0  0  0  0
 30 35  1  0  0  0  0
  8 13  1  0  0  0  0
 18 26  1  0  0  0  0
 39 41  1  0  0  0  0
  7 12  1  0  0  0  0
 29 34  1  0  0  0  0
 17 25  1  0  0  0  0
M  CHG  1  23  -1
M  END
$$$$

  -OEChem-05262214473D

 44 43  0     1  0  0  0  0  0999 V2000
   -4.0256   -1.8030   -2.1581 C   0  0  0  0  0  0  0  0  0  0  0  0
   -3.7513   -2.6782   -2.9709 O   0  0  0  0  0  0  0  0  0  0  0  0
   -5.3491   -1.1169   -2.2339 C   0  0  0  0  0  0  0  0  0  0  0  0
   -5.3223   -0.2211   -2.8750 H   0  0  0  0  0  0  0  0  0  0  0  0
   -6.1322   -1.7605   -2.6658 H   0  0  0  0  0  0  0  0  0  0  0  0
   -5.7568   -0.7715   -1.2704 H   0  0  0  0  0  0  0  0  0  0  0  0
   -3.2124   -1.3578   -1.1289 N   0  0  0  0  0  0  0  0  0  0  0  0
   -1.8971   -1.8843   -0.8752 C   0  0  2  0  0  0  0  0  0  0  0  0
   -1.2676   -1.0599    0.2399 C   0  0  0  0  0  0  0  0  0  0  0  0
   -1.6270    0.0833    0.5138 O   0  0  0  0  0  0  0  0  0  0  0  0
   -1.0364   -1.8506   -2.1285 C   0  0  0  0  0  0  0  0  0  0  0  0
   -3.5631   -0.6202   -0.5206 H   0  0  0  0  0  0  0  0  0  0  0  0
   -2.0301   -2.9174   -0.5360 H   0  0  0  0  0  0  0  0  0  0  0  0
   -0.8921   -0.8236   -2.4833 H   0  0  0  0  0  0  0  0  0  0  0  0
   -0.0457   -2.2777   -1.9410 H   0  0  0  0  0  0  0  0  0  0  0  0
   -1.5052   -2.4193   -2.9387 H   0  0  0  0  0  0  0  0  0  0  0  0
   -0.2267   -1.7335    0.8672 N   0  0  0  0  0  0  0  0  0  0  0  0
    0.5363   -1.1590    1.9465 C   0  0  2  0  0  0  0  0  0  0  0  0
    1.7152   -0.4218    1.3217 C   0  0  0  0  0  0  0  0  0  0  0  0
    2.8112   -0.3238    1.8698 O   0  0  0  0  0  0  0  0  0  0  0  0
    1.0271   -2.2239    2.9245 C   0  0  0  0  0  0  0  0  0  0  0  0
   -0.0459   -2.9126    3.7776 C   0  0  0  0  0  0  0  0  0  0  0  0
   -1.0574   -2.1909    4.0163 O   0  5  0  0  0  0  0  0  0  0  0  0
    0.1976   -4.0938    4.1469 O   0  0  0  0  0  0  0  0  0  0  0  0
   -0.0113   -2.6869    0.5854 H   0  0  0  0  0  0  0  0  0  0  0  0
   -0.1183   -0.4350    2.4448 H   0  0  0  0  0  0  0  0  0  0  0  0
    1.7696   -1.7858    3.6055 H   0  0  0  0  0  0  0  0  0  0  0  0
    1.5433   -3.0213    2.3741 H   0  0  0  0  0  0  0  0  0  0  0  0
    1.4140    0.0681    0.0586 N   0  0  0  0  0  0  0  0  0  0  0  0
    2.3742    0.7776   -0.7545 C   0  0  2  0  0  0  0  0  0  0  0  0
    1.6144    1.7823   -1.6106 C   0  0  0  0  0  0  0  0  0  0  0  0
    0.4208    1.6664   -1.8806 O   0  0  0  0  0  0  0  0  0  0  0  0
    3.1778   -0.1782   -1.6225 C   0  0  0  0  0  0  0  0  0  0  0  0
    0.4937   -0.1015   -0.3364 H   0  0  0  0  0  0  0  0  0  0  0  0
    3.0382    1.3118   -0.0662 H   0  0  0  0  0  0  0  0  0  0  0  0
    2.5294   -0.7225   -2.3187 H   0  0  0  0  0  0  0  0  0  0  0  0
    3.9246    0.3583   -2.2170 H   0  0  0  0  0  0  0  0  0  0  0  0
    3.6999   -0.9185   -1.0067 H   0  0  0  0  0  0  0  0  0  0  0  0
    2.4361    2.8006   -2.0732 N   0  0  0  0  0  0  0  0  0  0  0  0
    1.9535    3.8696   -2.9160 C   0  0  0  0  0  0  0  0  0  0  0  0
    3.4093    2.8278   -1.7838 H   0  0  0  0  0  0  0  0  0  0  0  0
    2.0964    3.5975   -3.9722 H   0  0  0  0  0  0  0  0  0  0  0  0
    0.8836    4.0351   -2.7217 H   0  0  0  0  0  0  0  0  0  0  0  0
    2.5129    4.7908   -2.6959 H   0  0  0  0  0  0  0  0  0  0  0  0
  1  3  1  0  0  0  0
  1  7  1  0  0  0  0
  1  2  2  0  0  0  0
 30 31  1  0  0  0  0
 31 39  1  0  0  0  0
 31 32  2  0  0  0  0
  8  9  1  0  0  0  0
  9 17  1  0  0  0  0
  9 10  2  0  0  0  0
 18 19  1  0  0  0  0
 19 29  1  0  0  0  0
 19 20  2  0  0  0  0
 21 22  1  0  0  0  0
 22 23  1  0  0  0  0
 22 24  2  0  0  0  0
 30 33  1  0  0  0  0
  8 11  1  0  0  0  0
 39 40  1  0  0  0  0
 18 21  1  0  0  0  0
 29 30  1  0  0  0  0
  7  8  1  0  0  0  0
 17 18  1  0  0  0  0
  3  4  1  0  0  0  0
  3  5  1  0  0  0  0
  3  6  1  0  0  0  0
 33 36  1  0  0  0  0
 33 37  1  0  0  0  0
 33 38  1  0  0  0  0
 11 14  1  0  0  0  0
 11 15  1  0  0  0  0
 11 16  1  0  0  0  0
 40 42  1  0  0  0  0
 40 43  1  0  0  0  0
 40 44  1  0  0  0  0
 21 27  1  0  0  0  0
 21 28  1  0  0  0  0
 30 35  1  0  0  0  0
  8 13  1  0  0  0  0
 18 26  1  0  0  0  0
 39 41  1  0  0  0  0
  7 12  1  0  0  0  0
 29 34  1  0  0  0  0
 17 25  1  0  0  0  0
M  CHG  1  23  -1
M  END
$$$$

  -OEChem-05262214473D

 44 43  0     1  0  0  0  0  0999 V2000
   -4.0256   -1.8030   -2.1581 C   0  0  0  0  0  0  0  0  0  0  0  0
   -3.7513   -2.6782   -2.9709 O   0  0  0  0  0  0  0  0  0  0  0  0
   -5.3491   -1.1169   -2.2339 C   0  0  0  0  0  0  0  0  0  0  0  0
   -5.3223   -0.2211   -2.8750 H   0  0  0  0  0  0  0  0  0  0  0  0
   -6.1322   -1.7605   -2.6658 H   0  0  0  0  0  0  0  0  0  0  0  0
   -5.7568   -0.7715   -1.2704 H   0  0  0  0  0  0  0  0  0  0  0  0
   -3.2124   -1.3578   -1.1289 N   0  0  0  0  0  0  0  0  0  0  0  0
   -1.8971   -1.8843   -0.8752 C   0  0  2  0  0  0  0  0  0  0  0  0
   -1.2676   -1.0599    0.2399 C   0  0  0  0  0  0  0  0  0  0  0  0
   -1.6270    0.0833    0.5138 O   0  0  0  0  0  0  0  0  0  0  0  0
   -1.0364   -1.8506   -2.1285 C   0  0  0  0  0  0  0  0  0  0  0  0
   -3.5631   -0.6202   -0.5206 H   0  0  0  0  0  0  0  0  0  0  0  0
   -2.0301   -2.9174   -0.5360 H   0  0  0  0  0  0  0  0  0  0  0  0
   -0.8921   -0.8236   -2.4833 H   0  0  0  0  0  0  0  0  0  0  0  0
   -0.0457   -2.2777   -1.9410 H   0  0  0  0  0  0  0  0  0  0  0  0
   -1.5052   -2.4193   -2.9387 H   0  0  0  0  0  0  0  0  0  0  0  0
   -0.2267   -1.7335    0.8672 N   0  0  0  0  0  0  0  0  0  0  0  0
    0.5363   -1.1590    1.9465 C   0  0  2  0  0  0  0  0  0  0  0  0
    1.7152   -0.4218    1.3217 C   0  0  0  0  0  0  0  0  0  0  0  0
    2.8706   -0.5421    1.7241 O   0  0  0  0  0  0  0  0  0  0  0  0
    1.0271   -2.2239    2.9245 C   0  0  0  0  0  0  0  0  0  0  0  0
   -0.0459   -2.9126    3.7776 C   0  0  0  0  0  0  0  0  0  0  0  0
   -1.0574   -2.1909    4.0163 O   0  5  0  0  0  0  0  0  0  0  0  0
    0.1976   -4.0938    4.1469 O   0  0  0  0  0  0  0  0  0  0  0  0
   -0.0113   -2.6869    0.5854 H   0  0  0  0  0  0  0  0  0  0  0  0
   -0.1183   -0.4350    2.4448 H   0  0  0  0  0  0  0  0  0  0  0  0
    1.7696   -1.7858    3.6055 H   0  0  0  0  0  0  0  0  0  0  0  0
    1.5433   -3.0213    2.3741 H   0  0  0  0  0  0  0  0  0  0  0  0
    1.3319    0.3448    0.2301 N   0  0  0  0  0  0  0  0  0  0  0  0
    2.2702    1.1144   -0.5533 C   0  0  2  0  0  0  0  0  0  0  0  0
    1.5423    2.3409   -1.0874 C   0  0  0  0  0  0  0  0  0  0  0  0
    0.3204    2.3953   -1.2100 O   0  0  0  0  0  0  0  0  0  0  0  0
    2.8500    0.2881   -1.6908 C   0  0  0  0  0  0  0  0  0  0  0  0
    0.3588    0.3473   -0.0613 H   0  0  0  0  0  0  0  0  0  0  0  0
    3.0673    1.4302    0.1286 H   0  0  0  0  0  0  0  0  0  0  0  0
    2.0661   -0.0374   -2.3844 H   0  0  0  0  0  0  0  0  0  0  0  0
    3.5823    0.8640   -2.2663 H   0  0  0  0  0  0  0  0  0  0  0  0
    3.3474   -0.6090   -1.3066 H   0  0  0  0  0  0  0  0  0  0  0  0
    2.4208    3.3517   -1.4517 N   0  0  0  0  0  0  0  0  0  0  0  0
    1.9755    4.6122   -1.9983 C   0  0  0  0  0  0  0  0  0  0  0  0
    3.4171    3.2274   -1.2976 H   0  0  0  0  0  0  0  0  0  0  0  0
    1.9633    4.5524   -3.0966 H   0  0  0  0  0  0  0  0  0  0  0  0
    0.9621    4.8330   -1.6319 H   0  0  0  0  0  0  0  0  0  0  0  0
    2.6619    5.4117   -1.6823 H   0  0  0  0  0  0  0  0  0  0  0  0
  1  3  1  0  0  0  0
  1  7  1  0  0  0  0
  1  2  2  0  0  0  0
 30 31  1  0  0  0  0
 31 39  1  0  0  0  0
 31 32  2  0  0  0  0
  8  9  1  0  0  0  0
  9 17  1  0  0  0  0
  9 10  2  0  0  0  0
 18 19  1  0  0  0  0
 19 29  1  0  0  0  0
 19 20  2  0  0  0  0
 21 22  1  0  0  0  0
 22 23  1  0  0  0  0
 22 24  2  0  0  0  0
 30 33  1  0  0  0  0
  8 11  1  0  0  0  0
 39 40  1  0  0  0  0
 18 21  1  0  0  0  0
 29 30  1  0  0  0  0
  7  8  1  0  0  0  0
 17 18  1  0  0  0  0
  3  4  1  0  0  0  0
  3  5  1  0  0  0  0
  3  6  1  0  0  0  0
 33 36  1  0  0  0  0
 33 37  1  0  0  0  0
 33 38  1  0  0  0  0
 11 14  1  0  0  0  0
 11 15  1  0  0  0  0
 11 16  1  0  0  0  0
 40 42  1  0  0  0  0
 40 43  1  0  0  0  0
 40 44  1  0  0  0  0
 21 27  1  0  0  0  0
 21 28  1  0  0  0  0
 30 35  1  0  0  0  0
  8 13  1  0  0  0  0
 18 26  1  0  0  0  0
 39 41  1  0  0  0  0
  7 12  1  0  0  0  0
 29 34  1  0  0  0  0
 17 25  1  0  0  0  0
M  CHG  1  23  -1
M  END
$$$$

  -OEChem-05262214473D

 44 43  0     1  0  0  0  0  0999 V2000
   -4.0256   -1.8030   -2.1581 C   0  0  0  0  0  0  0  0  0  0  0  0
   -3.7513   -2.6782   -2.9709 O   0  0  0  0  0  0  0  0  0  0  0  0
   -5.3491   -1.1169   -2.2339 C   0  0  0  0  0  0  0  0  0  0  0  0
   -5.3223   -0.2211   -2.8750 H   0  0  0  0  0  0  0  0  0  0  0  0
   -6.1322   -1.7605   -2.6658 H   0  0  0  0  0  0  0  0  0  0  0  0
   -5.7568   -0.7715   -1.2704 H   0  0  0  0  0  0  0  0  0  0  0  0
   -3.2124   -1.3578   -1.1289 N   0  0  0  0  0  0  0  0  0  0  0  0
   -1.8971   -1.8843   -0.8752 C   0  0  2  0  0  0  0  0  0  0  0  0
   -1.2676   -1.0599    0.2399 C   0  0  0  0  0  0  0  0  0  0  0  0
   -1.6270    0.0833    0.5138 O   0  0  0  0  0  0  0  0  0  0  0  0
   -1.0364   -1.8506   -2.1285 C   0  0  0  0  0  0  0  0  0  0  0  0
   -3.5631   -0.6202   -0.5206 H   0  0  0  0  0  0  0  0  0  0  0  0
   -2.0301   -2.9174   -0.5360 H   0  0  0  0  0  0  0  0  0  0  0  0
   -0.8921   -0.8236   -2.4833 H   0  0  0  0  0  0  0  0  0  0  0  0
   -0.0457   -2.2777   -1.9410 H   0  0  0  0  0  0  0  0  0  0  0  0
   -1.5052   -2.4193   -2.9387 H   0  0  0  0  0  0  0  0  0  0  0  0
   -0.2267   -1.7335    0.8672 N   0  0  0  0  0  0  0  0  0  0  0  0
    0.5363   -1.1590    1.9465 C   0  0  2  0  0  0  0  0  0  0  0  0
    1.7152   -0.4218    1.3217 C   0  0  0  0  0  0  0  0  0  0  0  0
    2.8865   -0.7301    1.5324 O   0  0  0  0  0  0  0  0  0  0  0  0
    1.0271   -2.2239    2.9245 C   0  0  0  0  0  0  0  0  0  0  0  0
   -0.0459   -2.9126    3.7776 C   0  0  0  0  0  0  0  0  0  0  0  0
   -1.0574   -2.1909    4.0163 O   0  5  0  0  0  0  0  0  0  0  0  0
    0.1976   -4.0938    4.1469 O   0  0  0  0  0  0  0  0  0  0  0  0
   -0.0113   -2.6869    0.5854 H   0  0  0  0  0  0  0  0  0  0  0  0
   -0.1183   -0.4350    2.4448 H   0  0  0  0  0  0  0  0  0  0  0  0
    1.7696   -1.7858    3.6055 H   0  0  0  0  0  0  0  0  0  0  0  0
    1.5433   -3.0213    2.3741 H   0  0  0  0  0  0  0  0  0  0  0  0
    1.3034    0.5865    0.4614 N   0  0  0  0  0  0  0  0  0  0  0  0
    2.2307    1.4105   -0.2785 C   0  0  2  0  0  0  0  0  0  0  0  0
    1.5974    2.7834   -0.4613 C   0  0  0  0  0  0  0  0  0  0  0  0
    0.3846    2.9758   -0.4037 O   0  0  0  0  0  0  0  0  0  0  0  0
    2.5742    0.7870   -1.6224 C   0  0  0  0  0  0  0  0  0  0  0  0
    0.3106    0.7400    0.3110 H   0  0  0  0  0  0  0  0  0  0  0  0
    3.1324    1.5026    0.3367 H   0  0  0  0  0  0  0  0  0  0  0  0
    1.6831    0.6867   -2.2527 H   0  0  0  0  0  0  0  0  0  0  0  0
    3.2991    1.3986   -2.1697 H   0  0  0  0  0  0  0  0  0  0  0  0
    3.0021   -0.2126   -1.4903 H   0  0  0  0  0  0  0  0  0  0  0  0
    2.5423    3.7612   -0.7392 N   0  0  0  0  0  0  0  0  0  0  0  0
    2.1904    5.1435   -0.9659 C   0  0  0  0  0  0  0  0  0  0  0  0
    3.5278    3.5153   -0.7489 H   0  0  0  0  0  0  0  0  0  0  0  0
    2.0456    5.3137   -2.0430 H   0  0  0  0  0  0  0  0  0  0  0  0
    1.2590    5.3773   -0.4294 H   0  0  0  0  0  0  0  0  0  0  0  0
    2.9985    5.7926   -0.5976 H   0  0  0  0  0  0  0  0  0  0  0  0
  1  3  1  0  0  0  0
  1  7  1  0  0  0  0
  1  2  2  0  0  0  0
 30 31  1  0  0  0  0
 31 39  1  0  0  0  0
 31 32  2  0  0  0  0
  8  9  1  0  0  0  0
  9 17  1  0  0  0  0
  9 10  2  0  0  0  0
 18 19  1  0  0  0  0
 19 29  1  0  0  0  0
 19 20  2  0  0  0  0
 21 22  1  0  0  0  0
 22 23  1  0  0  0  0
 22 24  2  0  0  0  0
 30 33  1  0  0  0  0
  8 11  1  0  0  0  0
 39 40  1  0  0  0  0
 18 21  1  0  0  0  0
 29 30  1  0  0  0  0
  7  8  1  0  0  0  0
 17 18  1  0  0  0  0
  3  4  1  0  0  0  0
  3  5  1  0  0  0  0
  3  6  1  0  0  0  0
 33 36  1  0  0  0  0
 33 37  1  0  0  0  0
 33 38  1  0  0  0  0
 11 14  1  0  0  0  0
 11 15  1  0  0  0  0
 11 16  1  0  0  0  0
 40 42  1  0  0  0  0
 40 43  1  0  0  0  0
 40 44  1  0  0  0  0
 21 27  1  0  0  0  0
 21 28  1  0  0  0  0
 30 35  1  0  0  0  0
  8 13  1  0  0  0  0
 18 26  1  0  0  0  0
 39 41  1  0  0  0  0
  7 12  1  0  0  0  0
 29 34  1  0  0  0  0
 17 25  1  0  0  0  0
M  CHG  1  23  -1
M  END
$$$$

  -OEChem-05262214473D

 44 43  0     1  0  0  0  0  0999 V2000
   -4.0256   -1.8030   -2.1581 C   0  0  0  0  0  0  0  0  0  0  0  0
   -3.7513   -2.6782   -2.9709 O   0  0  0  0  0  0  0  0  0  0  0  0
   -5.3491   -1.1169   -2.2339 C   0  0  0  0  0  0  0  0  0  0  0  0
   -5.3223   -0.2211   -2.8750 H   0  0  0  0  0  0  0  0  0  0  0  0
   -6.1322   -1.7605   -2.6658 H   0  0  0  0  0  0  0  0  0  0  0  0
   -5.7568   -0.7715   -1.2704 H   0  0  0  0  0  0  0  0  0  0  0  0
   -3.2124   -1.3578   -1.1289 N   0  0  0  0  0  0  0  0  0  0  0  0
   -1.8971   -1.8843   -0.8752 C   0  0  2  0  0  0  0  0  0  0  0  0
   -1.2676   -1.0599    0.2399 C   0  0  0  0  0  0  0  0  0  0  0  0
   -1.6270    0.0833    0.5138 O   0  0  0  0  0  0  0  0  0  0  0  0
   -1.0364   -1.8506   -2.1285 C   0  0  0  0  0  0  0  0  0  0  0  0
   -3.5631   -0.6202   -0.5206 H   0  0  0  0  0  0  0  0  0  0  0  0
   -2.0301   -2.9174   -0.5360 H   0  0  0  0  0  0  0  0  0  0  0  0
   -0.8921   -0.8236   -2.4833 H   0  0  0  0  0  0  0  0  0  0  0  0
   -0.0457   -2.2777   -1.9410 H   0  0  0  0  0  0  0  0  0  0  0  0
   -1.5052   -2.4193   -2.9387 H   0  0  0  0  0  0  0  0  0  0  0  0
   -0.2267   -1.7335    0.8672 N   0  0  0  0  0  0  0  0  0  0  0  0
    0.5363   -1.1590    1.9465 C   0  0  2  0  0  0  0  0  0  0  0  0
    1.7152   -0.4218    1.3217 C   0  0  0  0  0  0  0  0  0  0  0  0
    2.8579   -0.8749    1.3075 O   0  0  0  0  0  0  0  0  0  0  0  0
    1.0271   -2.2239    2.9245 C   0  0  0  0  0  0  0  0  0  0  0  0
   -0.0459   -2.9126    3.7776 C   0  0  0  0  0  0  0  0  0  0  0  0
   -1.0574   -2.1909    4.0163 O   0  5  0  0  0  0  0  0  0  0  0  0
    0.1976   -4.0938    4.1469 O   0  0  0  0  0  0  0  0  0  0  0  0
   -0.0113   -2.6869    0.5854 H   0  0  0  0  0  0  0  0  0  0  0  0
   -0.1183   -0.4350    2.4448 H   0  0  0  0  0  0  0  0  0  0  0  0
    1.7696   -1.7858    3.6055 H   0  0  0  0  0  0  0  0  0  0  0  0
    1.5433   -3.0213    2.3741 H   0  0  0  0  0  0  0  0  0  0  0  0
    1.3304    0.7766    0.7368 N   0  0  0  0  0  0  0  0  0  0  0  0
    2.2583    1.6457    0.0512 C   0  0  2  0  0  0  0  0  0  0  0  0
    1.7759    3.0797    0.2252 C   0  0  0  0  0  0  0  0  0  0  0  0
    0.6092    3.3683    0.4833 O   0  0  0  0  0  0  0  0  0  0  0  0
    2.3694    1.2845   -1.4219 C   0  0  0  0  0  0  0  0  0  0  0  0
    0.3523    1.0499    0.7554 H   0  0  0  0  0  0  0  0  0  0  0  0
    3.2290    1.5239    0.5442 H   0  0  0  0  0  0  0  0  0  0  0  0
    1.4065    1.4004   -1.9326 H   0  0  0  0  0  0  0  0  0  0  0  0
    3.0944    1.9257   -1.9340 H   0  0  0  0  0  0  0  0  0  0  0  0
    2.6878    0.2437   -1.5451 H   0  0  0  0  0  0  0  0  0  0  0  0
    2.7923    4.0013    0.0158 N   0  0  0  0  0  0  0  0  0  0  0  0
    2.5835    5.4272    0.1107 C   0  0  0  0  0  0  0  0  0  0  0  0
    3.7340    3.6718   -0.1752 H   0  0  0  0  0  0  0  0  0  0  0  0
    2.3378    5.8293   -0.8832 H   0  0  0  0  0  0  0  0  0  0  0  0
    1.7540    5.6309    0.8039 H   0  0  0  0  0  0  0  0  0  0  0  0
    3.4998    5.9078    0.4843 H   0  0  0  0  0  0  0  0  0  0  0  0
  1  3  1  0  0  0  0
  1  7  1  0  0  0  0
  1  2  2  0  0  0  0
 30 31  1  0  0  0  0
 31 39  1  0  0  0  0
 31 32  2  0  0  0  0
  8  9  1  0  0  0  0
  9 17  1  0  0  0  0
  9 10  2  0  0  0  0
 18 19  1  0  0  0  0
 19 29  1  0  0  0  0
 19 20  2  0  0  0  0
 21 22  1  0  0  0  0
 22 23  1  0  0  0  0
 22 24  2  0  0  0  0
 30 33  1  0  0  0  0
  8 11  1  0  0  0  0
 39 40  1  0  0  0  0
 18 21  1  0  0  0  0
 29 30  1  0  0  0  0
  7  8  1  0  0  0  0
 17 18  1  0  0  0  0
  3  4  1  0  0  0  0
  3  5  1  0  0  0  0
  3  6  1  0  0  0  0
 33 36  1  0  0  0  0
 33 37  1  0  0  0  0
 33 38  1  0  0  0  0
 11 14  1  0  0  0  0
 11 15  1  0  0  0  0
 11 16  1  0  0  0  0
 40 42  1  0  0  0  0
 40 43  1  0  0  0  0
 40 44  1  0  0  0  0
 21 27  1  0  0  0  0
 21 28  1  0  0  0  0
 30 35  1  0  0  0  0
  8 13  1  0  0  0  0
 18 26  1  0  0  0  0
 39 41  1  0  0  0  0
  7 12  1  0  0  0  0
 29 34  1  0  0  0  0
 17 25  1  0  0  0  0
M  CHG  1  23  -1
M  END
$$$$

  -OEChem-05262214473D

 44 43  0     1  0  0  0  0  0999 V2000
   -4.0256   -1.8030   -2.1581 C   0  0  0  0  0  0  0  0  0  0  0  0
   -3.7513   -2.6782   -2.9709 O   0  0  0  0  0  0  0  0  0  0  0  0
   -5.3491   -1.1169   -2.2339 C   0  0  0  0  0  0  0  0  0  0  0  0
   -5.3223   -0.2211   -2.8750 H   0  0  0  0  0  0  0  0  0  0  0  0
   -6.1322   -1.7605   -2.6658 H   0  0  0  0  0  0  0  0  0  0  0  0
   -5.7568   -0.7715   -1.2704 H   0  0  0  0  0  0  0  0  0  0  0  0
   -3.2124   -1.3578   -1.1289 N   0  0  0  0  0  0  0  0  0  0  0  0
   -1.8971   -1.8843   -0.8752 C   0  0  2  0  0  0  0  0  0  0  0  0
   -1.2676   -1.0599    0.2399 C   0  0  0  0  0  0  0  0  0  0  0  0
   -1.6270    0.0833    0.5138 O   0  0  0  0  0  0  0  0  0  0  0  0
   -1.0364   -1.8506   -2.1285 C   0  0  0  0  0  0  0  0  0  0  0  0
   -3.5631   -0.6202   -0.5206 H   0  0  0  0  0  0  0  0  0  0  0  0
   -2.0301   -2.9174   -0.5360 H   0  0  0  0  0  0  0  0  0  0  0  0
   -0.8921   -0.8236   -2.4833 H   0  0  0  0  0  0  0  0  0  0  0  0
   -0.0457   -2.2777   -1.9410 H   0  0  0  0  0  0  0  0  0  0  0  0
   -1.5052   -2.4193   -2.9387 H   0  0  0  0  0  0  0  0  0  0  0  0
   -0.2267   -1.7335    0.8672 N   0  0  0  0  0  0  0  0  0  0  0  0
    0.5363   -1.1590    1.9465 C   0  0  2  0  0  0  0  0  0  0  0  0
    1.7152   -0.4218    1.3217 C   0  0  0  0  0  0  0  0  0  0  0  0
    2.7868   -0.9668    1.0649 O   0  0  0  0  0  0  0  0  0  0  0  0
    1.0271   -2.2239    2.9245 C   0  0  0  0  0  0  0  0  0  0  0  0
   -0.0459   -2.9126    3.7776 C   0  0  0  0  0  0  0  0  0  0  0  0
   -1.0574   -2.1909    4.0163 O   0  5  0  0  0  0  0  0  0  0  0  0
    0.1976   -4.0938    4.1469 O   0  0  0  0  0  0  0  0  0  0  0  0
   -0.0113   -2.6869    0.5854 H   0  0  0  0  0  0  0  0  0  0  0  0
   -0.1183   -0.4350    2.4448 H   0  0  0  0  0  0  0  0  0  0  0  0
    1.7696   -1.7858    3.6055 H   0  0  0  0  0  0  0  0  0  0  0  0
    1.5433   -3.0213    2.3741 H   0  0  0  0  0  0  0  0  0  0  0  0
    1.4112    0.9023    1.0375 N   0  0  0  0  0  0  0  0  0  0  0  0
    2.3512    1.8039    0.4132 C   0  0  2  0  0  0  0  0  0  0  0  0
    2.0657    3.2095    0.9253 C   0  0  0  0  0  0  0  0  0  0  0  0
    0.9788    3.5461    1.3905 O   0  0  0  0  0  0  0  0  0  0  0  0
    2.2494    1.7466   -1.1030 C   0  0  0  0  0  0  0  0  0  0  0  0
    0.4810    1.2558    1.2414 H   0  0  0  0  0  0  0  0  0  0  0  0
    3.3505    1.4927    0.7367 H   0  0  0  0  0  0  0  0  0  0  0  0
    1.2550    2.0550   -1.4459 H   0  0  0  0  0  0  0  0  0  0  0  0
    2.9821    2.4094   -1.5752 H   0  0  0  0  0  0  0  0  0  0  0  0
    2.4256    0.7288   -1.4673 H   0  0  0  0  0  0  0  0  0  0  0  0
    3.1538    4.0555    0.7618 N   0  0  0  0  0  0  0  0  0  0  0  0
    3.1281    5.4441    1.1583 C   0  0  0  0  0  0  0  0  0  0  0  0
    4.0215    3.6863    0.3845 H   0  0  0  0  0  0  0  0  0  0  0  0
    2.8198    6.0643    0.3037 H   0  0  0  0  0  0  0  0  0  0  0  0
    2.4134    5.5764    1.9839 H   0  0  0  0  0  0  0  0  0  0  0  0
    4.1317    5.7493    1.4895 H   0  0  0  0  0  0  0  0  0  0  0  0
  1  3  1  0  0  0  0
  1  7  1  0  0  0  0
  1  2  2  0  0  0  0
 30 31  1  0  0  0  0
 31 39  1  0  0  0  0
 31 32  2  0  0  0  0
  8  9  1  0  0  0  0
  9 17  1  0  0  0  0
  9 10  2  0  0  0  0
 18 19  1  0  0  0  0
 19 29  1  0  0  0  0
 19 20  2  0  0  0  0
 21 22  1  0  0  0  0
 22 23  1  0  0  0  0
 22 24  2  0  0  0  0
 30 33  1  0  0  0  0
  8 11  1  0  0  0  0
 39 40  1  0  0  0  0
 18 21  1  0  0  0  0
 29 30  1  0  0  0  0
  7  8  1  0  0  0  0
 17 18  1  0  0  0  0
  3  4  1  0  0  0  0
  3  5  1  0  0  0  0
  3  6  1  0  0  0  0
 33 36  1  0  0  0  0
 33 37  1  0  0  0  0
 33 38  1  0  0  0  0
 11 14  1  0  0  0  0
 11 15  1  0  0  0  0
 11 16  1  0  0  0  0
 40 42  1  0  0  0  0
 40 43  1  0  0  0  0
 40 44  1  0  0  0  0
 21 27  1  0  0  0  0
 21 28  1  0  0  0  0
 30 35  1  0  0  0  0
  8 13  1  0  0  0  0
 18 26  1  0  0  0  0
 39 41  1  0  0  0  0
  7 12  1  0  0  0  0
 29 34  1  0  0  0  0
 17 25  1  0  0  0  0
M  CHG  1  23  -1
M  END
$$$$

  -OEChem-05262214473D

 44 43  0     1  0  0  0  0  0999 V2000
   -4.0256   -1.8030   -2.1581 C   0  0  0  0  0  0  0  0  0  0  0  0
   -3.7513   -2.6782   -2.9709 O   0  0  0  0  0  0  0  0  0  0  0  0
   -5.3491   -1.1169   -2.2339 C   0  0  0  0  0  0  0  0  0  0  0  0
   -5.3223   -0.2211   -2.8750 H   0  0  0  0  0  0  0  0  0  0  0  0
   -6.1322   -1.7605   -2.6658 H   0  0  0  0  0  0  0  0  0  0  0  0
   -5.7568   -0.7715   -1.2704 H   0  0  0  0  0  0  0  0  0  0  0  0
   -3.2124   -1.3578   -1.1289 N   0  0  0  0  0  0  0  0  0  0  0  0
   -1.8971   -1.8843   -0.8752 C   0  0  2  0  0  0  0  0  0  0  0  0
   -1.2676   -1.0599    0.2399 C   0  0  0  0  0  0  0  0  0  0  0  0
   -1.6270    0.0833    0.5138 O   0  0  0  0  0  0  0  0  0  0  0  0
   -1.0364   -1.8506   -2.1285 C   0  0  0  0  0  0  0  0  0  0  0  0
   -3.5631   -0.6202   -0.5206 H   0  0  0  0  0  0  0  0  0  0  0  0
   -2.0301   -2.9174   -0.5360 H   0  0  0  0  0  0  0  0  0  0  0  0
   -0.8921   -0.8236   -2.4833 H   0  0  0  0  0  0  0  0  0  0  0  0
   -0.0457   -2.2777   -1.9410 H   0  0  0  0  0  0  0  0  0  0  0  0
   -1.5052   -2.4193   -2.9387 H   0  0  0  0  0  0  0  0  0  0  0  0
   -0.2267   -1.7335    0.8672 N   0  0  0  0  0  0  0  0  0  0  0  0
    0.5363   -1.1590    1.9465 C   0  0  2  0  0  0  0  0  0  0  0  0
    1.7152   -0.4218    1.3217 C   0  0  0  0  0  0  0  0  0  0  0  0
    2.6780   -0.9994    0.8211 O   0  0  0  0  0  0  0  0  0  0  0  0
    1.0271   -2.2239    2.9245 C   0  0  0  0  0  0  0  0  0  0  0  0
   -0.0459   -2.9126    3.7776 C   0  0  0  0  0  0  0  0  0  0  0  0
   -1.0574   -2.1909    4.0163 O   0  5  0  0  0  0  0  0  0  0  0  0
    0.1976   -4.0938    4.1469 O   0  0  0  0  0  0  0  0  0  0  0  0
   -0.0113   -2.6869    0.5854 H   0  0  0  0  0  0  0  0  0  0  0  0
   -0.1183   -0.4350    2.4448 H   0  0  0  0  0  0  0  0  0  0  0  0
    1.7696   -1.7858    3.6055 H   0  0  0  0  0  0  0  0  0  0  0  0
    1.5433   -3.0213    2.3741 H   0  0  0  0  0  0  0  0  0  0  0  0
    1.5402    0.9549    1.3430 N   0  0  0  0  0  0  0  0  0  0  0  0
    2.5031    1.8744    0.7830 C   0  0  2  0  0  0  0  0  0  0  0  0
    2.4471    3.1641    1.5912 C   0  0  0  0  0  0  0  0  0  0  0  0
    1.4683    3.4970    2.2561 O   0  0  0  0  0  0  0  0  0  0  0  0
    2.2224    2.1419   -0.6875 C   0  0  0  0  0  0  0  0  0  0  0  0
    0.6881    1.3439    1.7360 H   0  0  0  0  0  0  0  0  0  0  0  0
    3.4887    1.4111    0.9012 H   0  0  0  0  0  0  0  0  0  0  0  0
    1.2391    2.6060   -0.8259 H   0  0  0  0  0  0  0  0  0  0  0  0
    2.9698    2.8167   -1.1178 H   0  0  0  0  0  0  0  0  0  0  0  0
    2.2336    1.2095   -1.2623 H   0  0  0  0  0  0  0  0  0  0  0  0
    3.6020    3.9202    1.4481 N   0  0  0  0  0  0  0  0  0  0  0  0
    3.7871    5.1929    2.1053 C   0  0  0  0  0  0  0  0  0  0  0  0
    4.3709    3.5577    0.8920 H   0  0  0  0  0  0  0  0  0  0  0  0
    3.4590    6.0025    1.4368 H   0  0  0  0  0  0  0  0  0  0  0  0
    3.1923    5.2176    3.0303 H   0  0  0  0  0  0  0  0  0  0  0  0
    4.8510    5.3279    2.3498 H   0  0  0  0  0  0  0  0  0  0  0  0
  1  3  1  0  0  0  0
  1  7  1  0  0  0  0
  1  2  2  0  0  0  0
 30 31  1  0  0  0  0
 31 39  1  0  0  0  0
 31 32  2  0  0  0  0
  8  9  1  0  0  0  0
  9 17  1  0  0  0  0
  9 10  2  0  0  0  0
 18 19  1  0  0  0  0
 19 29  1  0  0  0  0
 19 20  2  0  0  0  0
 21 22  1  0  0  0  0
 22 23  1  0  0  0  0
 22 24  2  0  0  0  0
 30 33  1  0  0  0  0
  8 11  1  0  0  0  0
 39 40  1  0  0  0  0
 18 21  1  0  0  0  0
 29 30  1  0  0  0  0
  7  8  1  0  0  0  0
 17 18  1  0  0  0  0
  3  4  1  0  0  0  0
  3  5  1  0  0  0  0
  3  6  1  0  0  0  0
 33 36  1  0  0  0  0
 33 37  1  0  0  0  0
 33 38  1  0  0  0  0
 11 14  1  0  0  0  0
 11 15  1  0  0  0  0
 11 16  1  0  0  0  0
 40 42  1  0  0  0  0
 40 43  1  0  0  0  0
 40 44  1  0  0  0  0
 21 27  1  0  0  0  0
 21 28  1  0  0  0  0
 30 35  1  0  0  0  0
  8 13  1  0  0  0  0
 18 26  1  0  0  0  0
 39 41  1  0  0  0  0
  7 12  1  0  0  0  0
 29 34  1  0  0  0  0
 17 25  1  0  0  0  0
M  CHG  1  23  -1
M  END
$$$$

  -OEChem-05262214473D

 44 43  0     1  0  0  0  0  0999 V2000
   -4.0256   -1.8030   -2.1581 C   0  0  0  0  0  0  0  0  0  0  0  0
   -3.7513   -2.6782   -2.9709 O   0  0  0  0  0  0  0  0  0  0  0  0
   -5.3491   -1.1169   -2.2339 C   0  0  0  0  0  0  0  0  0  0  0  0
   -5.3223   -0.2211   -2.8750 H   0  0  0  0  0  0  0  0  0  0  0  0
   -6.1322   -1.7605   -2.6658 H   0  0  0  0  0  0  0  0  0  0  0  0
   -5.7568   -0.7715   -1.2704 H   0  0  0  0  0  0  0  0  0  0  0  0
   -3.2124   -1.3578   -1.1289 N   0  0  0  0  0  0  0  0  0  0  0  0
   -1.8971   -1.8843   -0.8752 C   0  0  2  0  0  0  0  0  0  0  0  0
   -1.2676   -1.0599    0.2399 C   0  0  0  0  0  0  0  0  0  0  0  0
   -1.6270    0.0833    0.5138 O   0  0  0  0  0  0  0  0  0  0  0  0
   -1.0364   -1.8506   -2.1285 C   0  0  0  0  0  0  0  0  0  0  0  0
   -3.5631   -0.6202   -0.5206 H   0  0  0  0  0  0  0  0  0  0  0  0
   -2.0301   -2.9174   -0.5360 H   0  0  0  0  0  0  0  0  0  0  0  0
   -0.8921   -0.8236   -2.4833 H   0  0  0  0  0  0  0  0  0  0  0  0
   -0.0457   -2.2777   -1.9410 H   0  0  0  0  0  0  0  0  0  0  0  0
   -1.5052   -2.4193   -2.9387 H   0  0  0  0  0  0  0  0  0  0  0  0
   -0.2267   -1.7335    0.8672 N   0  0  0  0  0  0  0  0  0  0  0  0
    0.5363   -1.1590    1.9465 C   0  0  2  0  0  0  0  0  0  0  0  0
    1.7152   -0.4218    1.3217 C   0  0  0  0  0  0  0  0  0  0  0  0
    2.5389   -0.9706    0.5926 O   0  0  0  0  0  0  0  0  0  0  0  0
    1.0271   -2.2239    2.9245 C   0  0  0  0  0  0  0  0  0  0  0  0
   -0.0459   -2.9126    3.7776 C   0  0  0  0  0  0  0  0  0  0  0  0
   -1.0574   -2.1909    4.0163 O   0  5  0  0  0  0  0  0  0  0  0  0
    0.1976   -4.0938    4.1469 O   0  0  0  0  0  0  0  0  0  0  0  0
   -0.0113   -2.6869    0.5854 H   0  0  0  0  0  0  0  0  0  0  0  0
   -0.1183   -0.4350    2.4448 H   0  0  0  0  0  0  0  0  0  0  0  0
    1.7696   -1.7858    3.6055 H   0  0  0  0  0  0  0  0  0  0  0  0
    1.5433   -3.0213    2.3741 H   0  0  0  0  0  0  0  0  0  0  0  0
    1.7086    0.9309    1.6325 N   0  0  0  0  0  0  0  0  0  0  0  0
    2.7035    1.8524    1.1352 C   0  0  2  0  0  0  0  0  0  0  0  0
    2.8939    2.9464    2.1776 C   0  0  0  0  0  0  0  0  0  0  0  0
    2.0441    3.2244    3.0211 O   0  0  0  0  0  0  0  0  0  0  0  0
    2.2903    2.4434   -0.2037 C   0  0  0  0  0  0  0  0  0  0  0  0
    0.9593    1.3079    2.2054 H   0  0  0  0  0  0  0  0  0  0  0  0
    3.6341    1.2848    1.0265 H   0  0  0  0  0  0  0  0  0  0  0  0
    1.3597    3.0158   -0.1146 H   0  0  0  0  0  0  0  0  0  0  0  0
    3.0584    3.1198   -0.5929 H   0  0  0  0  0  0  0  0  0  0  0  0
    2.1248    1.6533   -0.9440 H   0  0  0  0  0  0  0  0  0  0  0  0
    4.1066    3.6046    2.0277 N   0  0  0  0  0  0  0  0  0  0  0  0
    4.5155    4.6908    2.8873 C   0  0  0  0  0  0  0  0  0  0  0  0
    4.7582    3.2949    1.3128 H   0  0  0  0  0  0  0  0  0  0  0  0
    4.2116    5.6483    2.4390 H   0  0  0  0  0  0  0  0  0  0  0  0
    4.0376    4.5790    3.8718 H   0  0  0  0  0  0  0  0  0  0  0  0
    5.6089    4.6724    3.0063 H   0  0  0  0  0  0  0  0  0  0  0  0
  1  3  1  0  0  0  0
  1  7  1  0  0  0  0
  1  2  2  0  0  0  0
 30 31  1  0  0  0  0
 31 39  1  0  0  0  0
 31 32  2  0  0  0  0
  8  9  1  0  0  0  0
  9 17  1  0  0  0  0
  9 10  2  0  0  0  0
 18 19  1  0  0  0  0
 19 29  1  0  0  0  0
 19 20  2  0  0  0  0
 21 22  1  0  0  0  0
 22 23  1  0  0  0  0
 22 24  2  0  0  0  0
 30 33  1  0  0  0  0
  8 11  1  0  0  0  0
 39 40  1  0  0  0  0
 18 21  1  0  0  0  0
 29 30  1  0  0  0  0
  7  8  1  0  0  0  0
 17 18  1  0  0  0  0
  3  4  1  0  0  0  0
  3  5  1  0  0  0  0
  3  6  1  0  0  0  0
 33 36  1  0  0  0  0
 33 37  1  0  0  0  0
 33 38  1  0  0  0  0
 11 14  1  0  0  0  0
 11 15  1  0  0  0  0
 11 16  1  0  0  0  0
 40 42  1  0  0  0  0
 40 43  1  0  0  0  0
 40 44  1  0  0  0  0
 21 27  1  0  0  0  0
 21 28  1  0  0  0  0
 30 35  1  0  0  0  0
  8 13  1  0  0  0  0
 18 26  1  0  0  0  0
 39 41  1  0  0  0  0
  7 12  1  0  0  0  0
 29 34  1  0  0  0  0
 17 25  1  0  0  0  0
M  CHG  1  23  -1
M  END
$$$$

  -OEChem-05262214473D

 44 43  0     1  0  0  0  0  0999 V2000
   -4.0256   -1.8030   -2.1581 C   0  0  0  0  0  0  0  0  0  0  0  0
   -3.7513   -2.6782   -2.9709 O   0  0  0  0  0  0  0  0  0  0  0  0
   -5.3491   -1.1169   -2.2339 C   0  0  0  0  0  0  0  0  0  0  0  0
   -5.3223   -0.2211   -2.8750 H   0  0  0  0  0  0  0  0  0  0  0  0
   -6.1322   -1.7605   -2.6658 H   0  0  0  0  0  0  0  0  0  0  0  0
   -5.7568   -0.7715   -1.2704 H   0  0  0  0  0  0  0  0  0  0  0  0
   -3.2124   -1.3578   -1.1289 N   0  0  0  0  0  0  0  0  0  0  0  0
   -1.8971   -1.8843   -0.8752 C   0  0  2  0  0  0  0  0  0  0  0  0
   -1.2676   -1.0599    0.2399 C   0  0  0  0  0  0  0  0  0  0  0  0
   -1.6270    0.0833    0.5138 O   0  0  0  0  0  0  0  0  0  0  0  0
   -1.0364   -1.8506   -2.1285 C   0  0  0  0  0  0  0  0  0  0  0  0
   -3.5631   -0.6202   -0.5206 H   0  0  0  0  0  0  0  0  0  0  0  0
   -2.0301   -2.9174   -0.5360 H   0  0  0  0  0  0  0  0  0  0  0  0
   -0.8921   -0.8236   -2.4833 H   0  0  0  0  0  0  0  0  0  0  0  0
   -0.0457   -2.2777   -1.9410 H   0  0  0  0  0  0  0  0  0  0  0  0
   -1.5052   -2.4193   -2.9387 H   0  0  0  0  0  0  0  0  0  0  0  0
   -0.2267   -1.7335    0.8672 N   0  0  0  0  0  0  0  0  0  0  0  0
    0.5363   -1.1590    1.9465 C   0  0  2  0  0  0  0  0  0  0  0  0
    1.7152   -0.4218    1.3217 C   0  0  0  0  0  0  0  0  0  0  0  0
    2.3790   -0.8823    0.3951 O   0  0  0  0  0  0  0  0  0  0  0  0
    1.0271   -2.2239    2.9245 C   0  0  0  0  0  0  0  0  0  0  0  0
   -0.0459   -2.9126    3.7776 C   0  0  0  0  0  0  0  0  0  0  0  0
   -1.0574   -2.1909    4.0163 O   0  5  0  0  0  0  0  0  0  0  0  0
    0.1976   -4.0938    4.1469 O   0  0  0  0  0  0  0  0  0  0  0  0
   -0.0113   -2.6869    0.5854 H   0  0  0  0  0  0  0  0  0  0  0  0
   -0.1183   -0.4350    2.4448 H   0  0  0  0  0  0  0  0  0  0  0  0
    1.7696   -1.7858    3.6055 H   0  0  0  0  0  0  0  0  0  0  0  0
    1.5433   -3.0213    2.3741 H   0  0  0  0  0  0  0  0  0  0  0  0
    1.9049    0.8319    1.8862 N   0  0  0  0  0  0  0  0  0  0  0  0
    2.9389    1.7394    1.4460 C   0  0  2  0  0  0  0  0  0  0  0  0
    3.3759    2.5714    2.6445 C   0  0  0  0  0  0  0  0  0  0  0  0
    2.6672    2.7469    3.6334 O   0  0  0  0  0  0  0  0  0  0  0  0
    2.4484    2.6306    0.3155 C   0  0  0  0  0  0  0  0  0  0  0  0
    1.2763    1.1505    2.6177 H   0  0  0  0  0  0  0  0  0  0  0  0
    3.7768    1.1222    1.1040 H   0  0  0  0  0  0  0  0  0  0  0  0
    1.6088    3.2564    0.6393 H   0  0  0  0  0  0  0  0  0  0  0  0
    3.2418    3.2982   -0.0362 H   0  0  0  0  0  0  0  0  0  0  0  0
    2.1066    2.0297   -0.5342 H   0  0  0  0  0  0  0  0  0  0  0  0
    4.6330    3.1302    2.4613 N   0  0  0  0  0  0  0  0  0  0  0  0
    5.2637    3.9721    3.4510 C   0  0  0  0  0  0  0  0  0  0  0  0
    5.1572    2.9157    1.6181 H   0  0  0  0  0  0  0  0  0  0  0  0
    5.0265    5.0256    3.2419 H   0  0  0  0  0  0  0  0  0  0  0  0
    4.8917    3.7041    4.4509 H   0  0  0  0  0  0  0  0  0  0  0  0
    6.3535    3.8275    3.4144 H   0  0  0  0  0  0  0  0  0  0  0  0
  1  3  1  0  0  0  0
  1  7  1  0  0  0  0
  1  2  2  0  0  0  0
 30 31  1  0  0  0  0
 31 39  1  0  0  0  0
 31 32  2  0  0  0  0
  8  9  1  0  0  0  0
  9 17  1  0  0  0  0
  9 10  2  0  0  0  0
 18 19  1  0  0  0  0
 19 29  1  0  0  0  0
 19 20  2  0  0  0  0
 21 22  1  0  0  0  0
 22 23  1  0  0  0  0
 22 24  2  0  0  0  0
 30 33  1  0  0  0  0
  8 11  1  0  0  0  0
 39 40  1  0  0  0  0
 18 21  1  0  0  0  0
 29 30  1  0  0  0  0
  7  8  1  0  0  0  0
 17 18  1  0  0  0  0
  3  4  1  0  0  0  0
  3  5  1  0  0  0  0
  3  6  1  0  0  0  0
 33 36  1  0  0  0  0
 33 37  1  0  0  0  0
 33 38  1  0  0  0  0
 11 14  1  0  0  0  0
 11 15  1  0  0  0  0
 11 16  1  0  0  0  0
 40 42  1  0  0  0  0
 40 43  1  0  0  0  0
 40 44  1  0  0  0  0
 21 27  1  0  0  0  0
 21 28  1  0  0  0  0
 30 35  1  0  0  0  0
  8 13  1  0  0  0  0
 18 26  1  0  0  0  0
 39 41  1  0  0  0  0
  7 12  1  0  0  0  0
 29 34  1  0  0  0  0
 17 25  1  0  0  0  0
M  CHG  1  23  -1
M  END
$$$$

  -OEChem-05262214473D

 44 43  0     1  0  0  0  0  0999 V2000
   -4.0256   -1.8030   -2.1581 C   0  0  0  0  0  0  0  0  0  0  0  0
   -3.7513   -2.6782   -2.9709 O   0  0  0  0  0  0  0  0  0  0  0  0
   -5.3491   -1.1169   -2.2339 C   0  0  0  0  0  0  0  0  0  0  0  0
   -5.3223   -0.2211   -2.8750 H   0  0  0  0  0  0  0  0  0  0  0  0
   -6.1322   -1.7605   -2.6658 H   0  0  0  0  0  0  0  0  0  0  0  0
   -5.7568   -0.7715   -1.2704 H   0  0  0  0  0  0  0  0  0  0  0  0
   -3.2124   -1.3578   -1.1289 N   0  0  0  0  0  0  0  0  0  0  0  0
   -1.8971   -1.8843   -0.8752 C   0  0  2  0  0  0  0  0  0  0  0  0
   -1.2676   -1.0599    0.2399 C   0  0  0  0  0  0  0  0  0  0  0  0
   -1.6270    0.0833    0.5138 O   0  0  0  0  0  0  0  0  0  0  0  0
   -1.0364   -1.8506   -2.1285 C   0  0  0  0  0  0  0  0  0  0  0  0
   -3.5631   -0.6202   -0.5206 H   0  0  0  0  0  0  0  0  0  0  0  0
   -2.0301   -2.9174   -0.5360 H   0  0  0  0  0  0  0  0  0  0  0  0
   -0.8921   -0.8236   -2.4833 H   0  0  0  0  0  0  0  0  0  0  0  0
   -0.0457   -2.2777   -1.9410 H   0  0  0  0  0  0  0  0  0  0  0  0
   -1.5052   -2.4193   -2.9387 H   0  0  0  0  0  0  0  0  0  0  0  0
   -0.2267   -1.7335    0.8672 N   0  0  0  0  0  0  0  0  0  0  0  0
    0.5363   -1.1590    1.9465 C   0  0  2  0  0  0  0  0  0  0  0  0
    1.7152   -0.4218    1.3217 C   0  0  0  0  0  0  0  0  0  0  0  0
    2.2092   -0.7405    0.2421 O   0  0  0  0  0  0  0  0  0  0  0  0
    1.0271   -2.2239    2.9245 C   0  0  0  0  0  0  0  0  0  0  0  0
   -0.0459   -2.9126    3.7776 C   0  0  0  0  0  0  0  0  0  0  0  0
   -1.0574   -2.1909    4.0163 O   0  5  0  0  0  0  0  0  0  0  0  0
    0.1976   -4.0938    4.1469 O   0  0  0  0  0  0  0  0  0  0  0  0
   -0.0113   -2.6869    0.5854 H   0  0  0  0  0  0  0  0  0  0  0  0
   -0.1183   -0.4350    2.4448 H   0  0  0  0  0  0  0  0  0  0  0  0
    1.7696   -1.7858    3.6055 H   0  0  0  0  0  0  0  0  0  0  0  0
    1.5433   -3.0213    2.3741 H   0  0  0  0  0  0  0  0  0  0  0  0
    2.1159    0.6647    2.0869 N   0  0  0  0  0  0  0  0  0  0  0  0
    3.1931    1.5431    1.6941 C   0  0  2  0  0  0  0  0  0  0  0  0
    3.8601    2.0645    2.9601 C   0  0  0  0  0  0  0  0  0  0  0  0
    3.2951    2.0970    4.0513 O   0  0  0  0  0  0  0  0  0  0  0  0
    2.6859    2.6907    0.8347 C   0  0  0  0  0  0  0  0  0  0  0  0
    1.6173    0.8822    2.9447 H   0  0  0  0  0  0  0  0  0  0  0  0
    3.9071    0.9346    1.1285 H   0  0  0  0  0  0  0  0  0  0  0  0
    1.9692    3.3116    1.3845 H   0  0  0  0  0  0  0  0  0  0  0  0
    3.5076    3.3396    0.5142 H   0  0  0  0  0  0  0  0  0  0  0  0
    2.1803    2.3132   -0.0606 H   0  0  0  0  0  0  0  0  0  0  0  0
    5.1454    2.5294    2.7193 N   0  0  0  0  0  0  0  0  0  0  0  0
    5.9807    3.0856    3.7580 C   0  0  0  0  0  0  0  0  0  0  0  0
    5.5405    2.4460    1.7872 H   0  0  0  0  0  0  0  0  0  0  0  0
    5.8480    4.1770    3.7908 H   0  0  0  0  0  0  0  0  0  0  0  0
    5.6963    2.6524    4.7283 H   0  0  0  0  0  0  0  0  0  0  0  0
    7.0343    2.8506    3.5462 H   0  0  0  0  0  0  0  0  0  0  0  0
  1  3  1  0  0  0  0
  1  7  1  0  0  0  0
  1  2  2  0  0  0  0
 30 31  1  0  0  0  0
 31 39  1  0  0  0  0
 31 32  2  0  0  0  0
  8  9  1  0  0  0  0
  9 17  1  0  0  0  0
  9 10  2  0  0  0  0
 18 19  1  0  0  0  0
 19 29  1  0  0  0  0
 19 20  2  0  0  0  0
 21 22  1  0  0  0  0
 22 23  1  0  0  0  0
 22 24  2  0  0  0  0
 30 33  1  0  0  0  0
  8 11  1  0  0  0  0
 39 40  1  0  0  0  0
 18 21  1  0  0  0  0
 29 30  1  0  0  0  0
  7  8  1  0  0  0  0
 17 18  1  0  0  0  0
  3  4  1  0  0  0  0
  3  5  1  0  0  0  0
  3  6  1  0  0  0  0
 33 36  1  0  0  0  0
 33 37  1  0  0  0  0
 33 38  1  0  0  0  0
 11 14  1  0  0  0  0
 11 15  1  0  0  0  0
 11 16  1  0  0  0  0
 40 42  1  0  0  0  0
 40 43  1  0  0  0  0
 40 44  1  0  0  0  0
 21 27  1  0  0  0  0
 21 28  1  0  0  0  0
 30 35  1  0  0  0  0
  8 13  1  0  0  0  0
 18 26  1  0  0  0  0
 39 41  1  0  0  0  0
  7 12  1  0  0  0  0
 29 34  1  0  0  0  0
 17 25  1  0  0  0  0
M  CHG  1  23  -1
M  END
$$$$

  -OEChem-05262214473D

 44 43  0     1  0  0  0  0  0999 V2000
   -4.0256   -1.8030   -2.1581 C   0  0  0  0  0  0  0  0  0  0  0  0
   -3.7513   -2.6782   -2.9709 O   0  0  0  0  0  0  0  0  0  0  0  0
   -5.3491   -1.1169   -2.2339 C   0  0  0  0  0  0  0  0  0  0  0  0
   -5.3223   -0.2211   -2.8750 H   0  0  0  0  0  0  0  0  0  0  0  0
   -6.1322   -1.7605   -2.6658 H   0  0  0  0  0  0  0  0  0  0  0  0
   -5.7568   -0.7715   -1.2704 H   0  0  0  0  0  0  0  0  0  0  0  0
   -3.2124   -1.3578   -1.1289 N   0  0  0  0  0  0  0  0  0  0  0  0
   -1.8971   -1.8843   -0.8752 C   0  0  2  0  0  0  0  0  0  0  0  0
   -1.2676   -1.0599    0.2399 C   0  0  0  0  0  0  0  0  0  0  0  0
   -1.6270    0.0833    0.5138 O   0  0  0  0  0  0  0  0  0  0  0  0
   -1.0364   -1.8506   -2.1285 C   0  0  0  0  0  0  0  0  0  0  0  0
   -3.5631   -0.6202   -0.5206 H   0  0  0  0  0  0  0  0  0  0  0  0
   -2.0301   -2.9174   -0.5360 H   0  0  0  0  0  0  0  0  0  0  0  0
   -0.8921   -0.8236   -2.4833 H   0  0  0  0  0  0  0  0  0  0  0  0
   -0.0457   -2.2777   -1.9410 H   0  0  0  0  0  0  0  0  0  0  0  0
   -1.5052   -2.4193   -2.9387 H   0  0  0  0  0  0  0  0  0  0  0  0
   -0.2267   -1.7335    0.8672 N   0  0  0  0  0  0  0  0  0  0  0  0
    0.5363   -1.1590    1.9465 C   0  0  2  0  0  0  0  0  0  0  0  0
    1.7152   -0.4218    1.3217 C   0  0  0  0  0  0  0  0  0  0  0  0
    2.0411   -0.5549    0.1439 O   0  0  0  0  0  0  0  0  0  0  0  0
    1.0271   -2.2239    2.9245 C   0  0  0  0  0  0  0  0  0  0  0  0
   -0.0459   -2.9126    3.7776 C   0  0  0  0  0  0  0  0  0  0  0  0
   -1.0574   -2.1909    4.0163 O   0  5  0  0  0  0  0  0  0  0  0  0
    0.1976   -4.0938    4.1469 O   0  0  0  0  0  0  0  0  0  0  0  0
   -0.0113   -2.6869    0.5854 H   0  0  0  0  0  0  0  0  0  0  0  0
   -0.1183   -0.4350    2.4448 H   0  0  0  0  0  0  0  0  0  0  0  0
    1.7696   -1.7858    3.6055 H   0  0  0  0  0  0  0  0  0  0  0  0
    1.5433   -3.0213    2.3741 H   0  0  0  0  0  0  0  0  0  0  0  0
    2.3270    0.4406    2.2208 N   0  0  0  0  0  0  0  0  0  0  0  0
    3.4489    1.2768    1.8626 C   0  0  2  0  0  0  0  0  0  0  0  0
    4.3135    1.4604    3.1028 C   0  0  0  0  0  0  0  0  0  0  0  0
    3.8850    1.3190    4.2463 O   0  0  0  0  0  0  0  0  0  0  0  0
    2.9868    2.6196    1.3185 C   0  0  0  0  0  0  0  0  0  0  0  0
    1.9592    0.5215    3.1642 H   0  0  0  0  0  0  0  0  0  0  0  0
    4.0162    0.7346    1.0983 H   0  0  0  0  0  0  0  0  0  0  0  0
    2.4166    3.1774    2.0703 H   0  0  0  0  0  0  0  0  0  0  0  0
    3.8377    3.2412    1.0208 H   0  0  0  0  0  0  0  0  0  0  0  0
    2.3408    2.4844    0.4443 H   0  0  0  0  0  0  0  0  0  0  0  0
    5.6089    1.8430    2.7840 N   0  0  0  0  0  0  0  0  0  0  0  0
    6.6177    2.0918    3.7873 C   0  0  0  0  0  0  0  0  0  0  0  0
    5.8821    1.9178    1.8085 H   0  0  0  0  0  0  0  0  0  0  0  0
    6.6203    3.1604    4.0483 H   0  0  0  0  0  0  0  0  0  0  0  0
    6.3967    1.4957    4.6850 H   0  0  0  0  0  0  0  0  0  0  0  0
    7.6047    1.8085    3.3928 H   0  0  0  0  0  0  0  0  0  0  0  0
  1  3  1  0  0  0  0
  1  7  1  0  0  0  0
  1  2  2  0  0  0  0
 30 31  1  0  0  0  0
 31 39  1  0  0  0  0
 31 32  2  0  0  0  0
  8  9  1  0  0  0  0
  9 17  1  0  0  0  0
  9 10  2  0  0  0  0
 18 19  1  0  0  0  0
 19 29  1  0  0  0  0
 19 20  2  0  0  0  0
 21 22  1  0  0  0  0
 22 23  1  0  0  0  0
 22 24  2  0  0  0  0
 30 33  1  0  0  0  0
  8 11  1  0  0  0  0
 39 40  1  0  0  0  0
 18 21  1  0  0  0  0
 29 30  1  0  0  0  0
  7  8  1  0  0  0  0
 17 18  1  0  0  0  0
  3  4  1  0  0  0  0
  3  5  1  0  0  0  0
  3  6  1  0  0  0  0
 33 36  1  0  0  0  0
 33 37  1  0  0  0  0
 33 38  1  0  0  0  0
 11 14  1  0  0  0  0
 11 15  1  0  0  0  0
 11 16  1  0  0  0  0
 40 42  1  0  0  0  0
 40 43  1  0  0  0  0
 40 44  1  0  0  0  0
 21 27  1  0  0  0  0
 21 28  1  0  0  0  0
 30 35  1  0  0  0  0
  8 13  1  0  0  0  0
 18 26  1  0  0  0  0
 39 41  1  0  0  0  0
  7 12  1  0  0  0  0
 29 34  1  0  0  0  0
 17 25  1  0  0  0  0
M  CHG  1  23  -1
M  END
$$$$

  -OEChem-05262214473D

 44 43  0     1  0  0  0  0  0999 V2000
   -4.0256   -1.8030   -2.1581 C   0  0  0  0  0  0  0  0  0  0  0  0
   -3.7513   -2.6782   -2.9709 O   0  0  0  0  0  0  0  0  0  0  0  0
   -5.3491   -1.1169   -2.2339 C   0  0  0  0  0  0  0  0  0  0  0  0
   -5.3223   -0.2211   -2.8750 H   0  0  0  0  0  0  0  0  0  0  0  0
   -6.1322   -1.7605   -2.6658 H   0  0  0  0  0  0  0  0  0  0  0  0
   -5.7568   -0.7715   -1.2704 H   0  0  0  0  0  0  0  0  0  0  0  0
   -3.2124   -1.3578   -1.1289 N   0  0  0  0  0  0  0  0  0  0  0  0
   -1.8971   -1.8843   -0.8752 C   0  0  2  0  0  0  0  0  0  0  0  0
   -1.2676   -1.0599    0.2399 C   0  0  0  0  0  0  0  0  0  0  0  0
   -1.6270    0.0833    0.5138 O   0  0  0  0  0  0  0  0  0  0  0  0
   -1.0364   -1.8506   -2.1285 C   0  0  0  0  0  0  0  0  0  0  0  0
   -3.5631   -0.6202   -0.5206 H   0  0  0  0  0  0  0  0  0  0  0  0
   -2.0301   -2.9174   -0.5360 H   0  0  0  0  0  0  0  0  0  0  0  0
   -0.8921   -0.8236   -2.4833 H   0  0  0  0  0  0  0  0  0  0  0  0
   -0.0457   -2.2777   -1.9410 H   0  0  0  0  0  0  0  0  0  0  0  0
   -1.5052   -2.4193   -2.9387 H   0  0  0  0  0  0  0  0  0  0  0  0
   -0.2267   -1.7335    0.8672 N   0  0  0  0  0  0  0  0  0  0  0  0
    0.5363   -1.1590    1.9465 C   0  0  2  0  0  0  0  0  0  0  0  0
    1.4758   -0.1267    1.3339 C   0  0  0  0  0  0  0  0  0  0  0  0
    1.4852    0.1430    0.1345 O   0  0  0  0  0  0  0  0  0  0  0  0
    1.3279   -2.2188    2.7091 C   0  0  0  0  0  0  0  0  0  0  0  0
    0.5093   -3.2116    3.5443 C   0  0  0  0  0  0  0  0  0  0  0  0
   -0.5842   -2.7442    3.9763 O   0  5  0  0  0  0  0  0  0  0  0  0
    1.0104   -4.3569    3.7124 O   0  0  0  0  0  0  0  0  0  0  0  0
   -0.0113   -2.6869    0.5854 H   0  0  0  0  0  0  0  0  0  0  0  0
   -0.1792   -0.6505    2.6026 H   0  0  0  0  0  0  0  0  0  0  0  0
    2.0499   -1.7304    3.3778 H   0  0  0  0  0  0  0  0  0  0  0  0
    1.9161   -2.8197    2.0033 H   0  0  0  0  0  0  0  0  0  0  0  0
    2.2650    0.4941    2.2921 N   0  0  0  0  0  0  0  0  0  0  0  0
    3.2156    1.5326    1.9692 C   0  0  2  0  0  0  0  0  0  0  0  0
    4.3677    1.4405    2.9609 C   0  0  0  0  0  0  0  0  0  0  0  0
    4.2622    0.9088    4.0642 O   0  0  0  0  0  0  0  0  0  0  0  0
    2.5687    2.9082    2.0137 C   0  0  0  0  0  0  0  0  0  0  0  0
    2.1557    0.2405    3.2696 H   0  0  0  0  0  0  0  0  0  0  0  0
    3.5842    1.3211    0.9595 H   0  0  0  0  0  0  0  0  0  0  0  0
    2.1932    3.1378    3.0175 H   0  0  0  0  0  0  0  0  0  0  0  0
    3.2833    3.6917    1.7409 H   0  0  0  0  0  0  0  0  0  0  0  0
    1.7216    2.9631    1.3214 H   0  0  0  0  0  0  0  0  0  0  0  0
    5.5154    2.0600    2.4865 N   0  0  0  0  0  0  0  0  0  0  0  0
    6.7412    2.1189    3.2481 C   0  0  0  0  0  0  0  0  0  0  0  0
    5.5183    2.4586    1.5523 H   0  0  0  0  0  0  0  0  0  0  0  0
    6.7662    3.0507    3.8321 H   0  0  0  0  0  0  0  0  0  0  0  0
    6.7906    1.2573    3.9303 H   0  0  0  0  0  0  0  0  0  0  0  0
    7.6006    2.0931    2.5621 H   0  0  0  0  0  0  0  0  0  0  0  0
  1  3  1  0  0  0  0
  1  7  1  0  0  0  0
  1  2  2  0  0  0  0
 30 31  1  0  0  0  0
 31 39  1  0  0  0  0
 31 32  2  0  0  0  0
  8  9  1  0  0  0  0
  9 17  1  0  0  0  0
  9 10  2  0  0  0  0
 18 19  1  0  0  0  0
 19 29  1  0  0  0  0
 19 20  2  0  0  0  0
 21 22  1  0  0  0  0
 22 23  1  0  0  0  0
 22 24  2  0  0  0  0
 30 33  1  0  0  0  0
  8 11  1  0  0  0  0
 39 40  1  0  0  0  0
 18 21  1  0  0  0  0
 29 30  1  0  0  0  0
  7  8  1  0  0  0  0
 17 18  1  0  0  0  0
  3  4  1  0  0  0  0
  3  5  1  0  0  0  0
  3  6  1  0  0  0  0
 33 36  1  0  0  0  0
 33 37  1  0  0  0  0
 33 38  1  0  0  0  0
 11 14  1  0  0  0  0
 11 15  1  0  0  0  0
 11 16  1  0  0  0  0
 40 42  1  0  0  0  0
 40 43  1  0  0  0  0
 40 44  1  0  0  0  0
 21 27  1  0  0  0  0
 21 28  1  0  0  0  0
 30 35  1  0  0  0  0
  8 13  1  0  0  0  0
 18 26  1  0  0  0  0
 39 41  1  0  0  0  0
  7 12  1  0  0  0  0
 29 34  1  0  0  0  0
 17 25  1  0  0  0  0
M  CHG  1  23  -1
M  END
$$$$

  -OEChem-05262214473D

 44 43  0     1  0  0  0  0  0999 V2000
   -4.0256   -1.8030   -2.1581 C   0  0  0  0  0  0  0  0  0  0  0  0
   -3.7513   -2.6782   -2.9709 O   0  0  0  0  0  0  0  0  0  0  0  0
   -5.3491   -1.1169   -2.2339 C   0  0  0  0  0  0  0  0  0  0  0  0
   -5.3223   -0.2211   -2.8750 H   0  0  0  0  0  0  0  0  0  0  0  0
   -6.1322   -1.7605   -2.6658 H   0  0  0  0  0  0  0  0  0  0  0  0
   -5.7568   -0.7715   -1.2704 H   0  0  0  0  0  0  0  0  0  0  0  0
   -3.2124   -1.3578   -1.1289 N   0  0  0  0  0  0  0  0  0  0  0  0
   -1.8971   -1.8843   -0.8752 C   0  0  2  0  0  0  0  0  0  0  0  0
   -1.2676   -1.0599    0.2399 C   0  0  0  0  0  0  0  0  0  0  0  0
   -1.6270    0.0833    0.5138 O   0  0  0  0  0  0  0  0  0  0  0  0
   -1.0364   -1.8506   -2.1285 C   0  0  0  0  0  0  0  0  0  0  0  0
   -3.5631   -0.6202   -0.5206 H   0  0  0  0  0  0  0  0  0  0  0  0
   -2.0301   -2.9174   -0.5360 H   0  0  0  0  0  0  0  0  0  0  0  0
   -0.8921   -0.8236   -2.4833 H   0  0  0  0  0  0  0  0  0  0  0  0
   -0.0457   -2.2777   -1.9410 H   0  0  0  0  0  0  0  0  0  0  0  0
   -1.5052   -2.4193   -2.9387 H   0  0  0  0  0  0  0  0  0  0  0  0
   -0.2267   -1.7335    0.8672 N   0  0  0  0  0  0  0  0  0  0  0  0
    0.5363   -1.1590    1.9465 C   0  0  2  0  0  0  0  0  0  0  0  0
    1.4758   -0.1267    1.3339 C   0  0  0  0  0  0  0  0  0  0  0  0
    1.3168    0.3396    0.2076 O   0  0  0  0  0  0  0  0  0  0  0  0
    1.3279   -2.2188    2.7091 C   0  0  0  0  0  0  0  0  0  0  0  0
    0.5093   -3.2116    3.5443 C   0  0  0  0  0  0  0  0  0  0  0  0
   -0.5842   -2.7442    3.9763 O   0  5  0  0  0  0  0  0  0  0  0  0
    1.0104   -4.3569    3.7124 O   0  0  0  0  0  0  0  0  0  0  0  0
   -0.0113   -2.6869    0.5854 H   0  0  0  0  0  0  0  0  0  0  0  0
   -0.1792   -0.6505    2.6026 H   0  0  0  0  0  0  0  0  0  0  0  0
    2.0499   -1.7304    3.3778 H   0  0  0  0  0  0  0  0  0  0  0  0
    1.9161   -2.8197    2.0033 H   0  0  0  0  0  0  0  0  0  0  0  0
    2.4816    0.2500    2.2130 N   0  0  0  0  0  0  0  0  0  0  0  0
    3.4810    1.2385    1.8807 C   0  0  2  0  0  0  0  0  0  0  0  0
    4.7633    0.8773    2.6186 C   0  0  0  0  0  0  0  0  0  0  0  0
    4.7812    0.1786    3.6299 O   0  0  0  0  0  0  0  0  0  0  0  0
    3.0178    2.6393    2.2495 C   0  0  0  0  0  0  0  0  0  0  0  0
    2.5077   -0.1541    3.1445 H   0  0  0  0  0  0  0  0  0  0  0  0
    3.6484    1.1682    0.8004 H   0  0  0  0  0  0  0  0  0  0  0  0
    2.8449    2.7290    3.3281 H   0  0  0  0  0  0  0  0  0  0  0  0
    3.7645    3.3903    1.9709 H   0  0  0  0  0  0  0  0  0  0  0  0
    2.0796    2.8861    1.7408 H   0  0  0  0  0  0  0  0  0  0  0  0
    5.8809    1.4624    2.0400 N   0  0  0  0  0  0  0  0  0  0  0  0
    7.2148    1.2815    2.5635 C   0  0  0  0  0  0  0  0  0  0  0  0
    5.7750    2.0111    1.1918 H   0  0  0  0  0  0  0  0  0  0  0  0
    7.4469    2.0954    3.2662 H   0  0  0  0  0  0  0  0  0  0  0  0
    7.2751    0.3163    3.0876 H   0  0  0  0  0  0  0  0  0  0  0  0
    7.9386    1.2949    1.7352 H   0  0  0  0  0  0  0  0  0  0  0  0
  1  3  1  0  0  0  0
  1  7  1  0  0  0  0
  1  2  2  0  0  0  0
 30 31  1  0  0  0  0
 31 39  1  0  0  0  0
 31 32  2  0  0  0  0
  8  9  1  0  0  0  0
  9 17  1  0  0  0  0
  9 10  2  0  0  0  0
 18 19  1  0  0  0  0
 19 29  1  0  0  0  0
 19 20  2  0  0  0  0
 21 22  1  0  0  0  0
 22 23  1  0  0  0  0
 22 24  2  0  0  0  0
 30 33  1  0  0  0  0
  8 11  1  0  0  0  0
 39 40  1  0  0  0  0
 18 21  1  0  0  0  0
 29 30  1  0  0  0  0
  7  8  1  0  0  0  0
 17 18  1  0  0  0  0
  3  4  1  0  0  0  0
  3  5  1  0  0  0  0
  3  6  1  0  0  0  0
 33 36  1  0  0  0  0
 33 37  1  0  0  0  0
 33 38  1  0  0  0  0
 11 14  1  0  0  0  0
 11 15  1  0  0  0  0
 11 16  1  0  0  0  0
 40 42  1  0  0  0  0
 40 43  1  0  0  0  0
 40 44  1  0  0  0  0
 21 27  1  0  0  0  0
 21 28  1  0  0  0  0
 30 35  1  0  0  0  0
  8 13  1  0  0  0  0
 18 26  1  0  0  0  0
 39 41  1  0  0  0  0
  7 12  1  0  0  0  0
 29 34  1  0  0  0  0
 17 25  1  0  0  0  0
M  CHG  1  23  -1
M  END
$$$$

  -OEChem-05262214473D

 44 43  0     1  0  0  0  0  0999 V2000
   -4.0256   -1.8030   -2.1581 C   0  0  0  0  0  0  0  0  0  0  0  0
   -3.7513   -2.6782   -2.9709 O   0  0  0  0  0  0  0  0  0  0  0  0
   -5.3491   -1.1169   -2.2339 C   0  0  0  0  0  0  0  0  0  0  0  0
   -5.3223   -0.2211   -2.8750 H   0  0  0  0  0  0  0  0  0  0  0  0
   -6.1322   -1.7605   -2.6658 H   0  0  0  0  0  0  0  0  0  0  0  0
   -5.7568   -0.7715   -1.2704 H   0  0  0  0  0  0  0  0  0  0  0  0
   -3.2124   -1.3578   -1.1289 N   0  0  0  0  0  0  0  0  0  0  0  0
   -1.8971   -1.8843   -0.8752 C   0  0  2  0  0  0  0  0  0  0  0  0
   -1.2676   -1.0599    0.2399 C   0  0  0  0  0  0  0  0  0  0  0  0
   -1.6270    0.0833    0.5138 O   0  0  0  0  0  0  0  0  0  0  0  0
   -1.0364   -1.8506   -2.1285 C   0  0  0  0  0  0  0  0  0  0  0  0
   -3.5631   -0.6202   -0.5206 H   0  0  0  0  0  0  0  0  0  0  0  0
   -2.0301   -2.9174   -0.5360 H   0  0  0  0  0  0  0  0  0  0  0  0
   -0.8921   -0.8236   -2.4833 H   0  0  0  0  0  0  0  0  0  0  0  0
   -0.0457   -2.2777   -1.9410 H   0  0  0  0  0  0  0  0  0  0  0  0
   -1.5052   -2.4193   -2.9387 H   0  0  0  0  0  0  0  0  0  0  0  0
   -0.2267   -1.7335    0.8672 N   0  0  0  0  0  0  0  0  0  0  0  0
    0.5363   -1.1590    1.9465 C   0  0  2  0  0  0  0  0  0  0  0  0
    1.4758   -0.1267    1.3339 C   0  0  0  0  0  0  0  0  0  0  0  0
    1.1873    0.5354    0.3390 O   0  0  0  0  0  0  0  0  0  0  0  0
    1.3279   -2.2188    2.7091 C   0  0  0  0  0  0  0  0  0  0  0  0
    0.5093   -3.2116    3.5443 C   0  0  0  0  0  0  0  0  0  0  0  0
   -0.5842   -2.7442    3.9763 O   0  5  0  0  0  0  0  0  0  0  0  0
    1.0104   -4.3569    3.7124 O   0  0  0  0  0  0  0  0  0  0  0  0
   -0.0113   -2.6869    0.5854 H   0  0  0  0  0  0  0  0  0  0  0  0
   -0.1792   -0.6505    2.6026 H   0  0  0  0  0  0  0  0  0  0  0  0
    2.0499   -1.7304    3.3778 H   0  0  0  0  0  0  0  0  0  0  0  0
    1.9161   -2.8197    2.0033 H   0  0  0  0  0  0  0  0  0  0  0  0
    2.6515    0.0044    2.0597 N   0  0  0  0  0  0  0  0  0  0  0  0
    3.6912    0.9410    1.7018 C   0  0  2  0  0  0  0  0  0  0  0  0
    5.0269    0.3467    2.1288 C   0  0  0  0  0  0  0  0  0  0  0  0
    5.1306   -0.5113    3.0029 O   0  0  0  0  0  0  0  0  0  0  0  0
    3.4650    2.2953    2.3556 C   0  0  0  0  0  0  0  0  0  0  0  0
    2.7848   -0.5519    2.8991 H   0  0  0  0  0  0  0  0  0  0  0  0
    3.6666    1.0393    0.6110 H   0  0  0  0  0  0  0  0  0  0  0  0
    3.4863    2.2168    3.4487 H   0  0  0  0  0  0  0  0  0  0  0  0
    4.2382    3.0124    2.0606 H   0  0  0  0  0  0  0  0  0  0  0  0
    2.4910    2.7076    2.0709 H   0  0  0  0  0  0  0  0  0  0  0  0
    6.0935    0.9183    1.4492 N   0  0  0  0  0  0  0  0  0  0  0  0
    7.4652    0.5327    1.6856 C   0  0  0  0  0  0  0  0  0  0  0  0
    5.9132    1.6096    0.7272 H   0  0  0  0  0  0  0  0  0  0  0  0
    7.9059    1.1921    2.4478 H   0  0  0  0  0  0  0  0  0  0  0  0
    7.4976   -0.5086    2.0386 H   0  0  0  0  0  0  0  0  0  0  0  0
    8.0370    0.6206    0.7500 H   0  0  0  0  0  0  0  0  0  0  0  0
  1  3  1  0  0  0  0
  1  7  1  0  0  0  0
  1  2  2  0  0  0  0
 30 31  1  0  0  0  0
 31 39  1  0  0  0  0
 31 32  2  0  0  0  0
  8  9  1  0  0  0  0
  9 17  1  0  0  0  0
  9 10  2  0  0  0  0
 18 19  1  0  0  0  0
 19 29  1  0  0  0  0
 19 20  2  0  0  0  0
 21 22  1  0  0  0  0
 22 23  1  0  0  0  0
 22 24  2  0  0  0  0
 30 33  1  0  0  0  0
  8 11  1  0  0  0  0
 39 40  1  0  0  0  0
 18 21  1  0  0  0  0
 29 30  1  0  0  0  0
  7  8  1  0  0  0  0
 17 18  1  0  0  0  0
  3  4  1  0  0  0  0
  3  5  1  0  0  0  0
  3  6  1  0  0  0  0
 33 36  1  0  0  0  0
 33 37  1  0  0  0  0
 33 38  1  0  0  0  0
 11 14  1  0  0  0  0
 11 15  1  0  0  0  0
 11 16  1  0  0  0  0
 40 42  1  0  0  0  0
 40 43  1  0  0  0  0
 40 44  1  0  0  0  0
 21 27  1  0  0  0  0
 21 28  1  0  0  0  0
 30 35  1  0  0  0  0
  8 13  1  0  0  0  0
 18 26  1  0  0  0  0
 39 41  1  0  0  0  0
  7 12  1  0  0  0  0
 29 34  1  0  0  0  0
 17 25  1  0  0  0  0
M  CHG  1  23  -1
M  END
$$$$

  -OEChem-05262214473D

 44 43  0     1  0  0  0  0  0999 V2000
   -4.0256   -1.8030   -2.1581 C   0  0  0  0  0  0  0  0  0  0  0  0
   -3.7513   -2.6782   -2.9709 O   0  0  0  0  0  0  0  0  0  0  0  0
   -5.3491   -1.1169   -2.2339 C   0  0  0  0  0  0  0  0  0  0  0  0
   -5.3223   -0.2211   -2.8750 H   0  0  0  0  0  0  0  0  0  0  0  0
   -6.1322   -1.7605   -2.6658 H   0  0  0  0  0  0  0  0  0  0  0  0
   -5.7568   -0.7715   -1.2704 H   0  0  0  0  0  0  0  0  0  0  0  0
   -3.2124   -1.3578   -1.1289 N   0  0  0  0  0  0  0  0  0  0  0  0
   -1.8971   -1.8843   -0.8752 C   0  0  2  0  0  0  0  0  0  0  0  0
   -1.2676   -1.0599    0.2399 C   0  0  0  0  0  0  0  0  0  0  0  0
   -1.6270    0.0833    0.5138 O   0  0  0  0  0  0  0  0  0  0  0  0
   -1.0364   -1.8506   -2.1285 C   0  0  0  0  0  0  0  0  0  0  0  0
   -3.5631   -0.6202   -0.5206 H   0  0  0  0  0  0  0  0  0  0  0  0
   -2.0301   -2.9174   -0.5360 H   0  0  0  0  0  0  0  0  0  0  0  0
   -0.8921   -0.8236   -2.4833 H   0  0  0  0  0  0  0  0  0  0  0  0
   -0.0457   -2.2777   -1.9410 H   0  0  0  0  0  0  0  0  0  0  0  0
   -1.5052   -2.4193   -2.9387 H   0  0  0  0  0  0  0  0  0  0  0  0
   -0.2267   -1.7335    0.8672 N   0  0  0  0  0  0  0  0  0  0  0  0
    0.5363   -1.1590    1.9465 C   0  0  2  0  0  0  0  0  0  0  0  0
    1.4758   -0.1267    1.3339 C   0  0  0  0  0  0  0  0  0  0  0  0
    1.1058    0.7170    0.5199 O   0  0  0  0  0  0  0  0  0  0  0  0
    1.3279   -2.2188    2.7091 C   0  0  0  0  0  0  0  0  0  0  0  0
    0.5093   -3.2116    3.5443 C   0  0  0  0  0  0  0  0  0  0  0  0
   -0.5842   -2.7442    3.9763 O   0  5  0  0  0  0  0  0  0  0  0  0
    1.0104   -4.3569    3.7124 O   0  0  0  0  0  0  0  0  0  0  0  0
   -0.0113   -2.6869    0.5854 H   0  0  0  0  0  0  0  0  0  0  0  0
   -0.1792   -0.6505    2.6026 H   0  0  0  0  0  0  0  0  0  0  0  0
    2.0499   -1.7304    3.3778 H   0  0  0  0  0  0  0  0  0  0  0  0
    1.9161   -2.8197    2.0033 H   0  0  0  0  0  0  0  0  0  0  0  0
    2.7633   -0.2261    1.8426 N   0  0  0  0  0  0  0  0  0  0  0  0
    3.8321    0.6603    1.4447 C   0  0  2  0  0  0  0  0  0  0  0  0
    5.1405   -0.1150    1.5248 C   0  0  0  0  0  0  0  0  0  0  0  0
    5.2863   -1.1141    2.2260 O   0  0  0  0  0  0  0  0  0  0  0  0
    3.8798    1.8995    2.3248 C   0  0  0  0  0  0  0  0  0  0  0  0
    2.9680   -0.9258    2.5500 H   0  0  0  0  0  0  0  0  0  0  0  0
    3.6376    0.9431    0.4044 H   0  0  0  0  0  0  0  0  0  0  0  0
    4.0737    1.6361    3.3710 H   0  0  0  0  0  0  0  0  0  0  0  0
    4.6722    2.5838    2.0040 H   0  0  0  0  0  0  0  0  0  0  0  0
    2.9276    2.4398    2.2892 H   0  0  0  0  0  0  0  0  0  0  0  0
    6.1388    0.4649    0.7546 N   0  0  0  0  0  0  0  0  0  0  0  0
    7.4753   -0.0766    0.6742 C   0  0  0  0  0  0  0  0  0  0  0  0
    5.9236    1.2815    0.1901 H   0  0  0  0  0  0  0  0  0  0  0  0
    8.1118    0.4023    1.4328 H   0  0  0  0  0  0  0  0  0  0  0  0
    7.4427   -1.1612    0.8548 H   0  0  0  0  0  0  0  0  0  0  0  0
    7.8893    0.1162   -0.3264 H   0  0  0  0  0  0  0  0  0  0  0  0
  1  3  1  0  0  0  0
  1  7  1  0  0  0  0
  1  2  2  0  0  0  0
 30 31  1  0  0  0  0
 31 39  1  0  0  0  0
 31 32  2  0  0  0  0
  8  9  1  0  0  0  0
  9 17  1  0  0  0  0
  9 10  2  0  0  0  0
 18 19  1  0  0  0  0
 19 29  1  0  0  0  0
 19 20  2  0  0  0  0
 21 22  1  0  0  0  0
 22 23  1  0  0  0  0
 22 24  2  0  0  0  0
 30 33  1  0  0  0  0
  8 11  1  0  0  0  0
 39 40  1  0  0  0  0
 18 21  1  0  0  0  0
 29 30  1  0  0  0  0
  7  8  1  0  0  0  0
 17 18  1  0  0  0  0
  3  4  1  0  0  0  0
  3  5  1  0  0  0  0
  3  6  1  0  0  0  0
 33 36  1  0  0  0  0
 33 37  1  0  0  0  0
 33 38  1  0  0  0  0
 11 14  1  0  0  0  0
 11 15  1  0  0  0  0
 11 16  1  0  0  0  0
 40 42  1  0  0  0  0
 40 43  1  0  0  0  0
 40 44  1  0  0  0  0
 21 27  1  0  0  0  0
 21 28  1  0  0  0  0
 30 35  1  0  0  0  0
  8 13  1  0  0  0  0
 18 26  1  0  0  0  0
 39 41  1  0  0  0  0
  7 12  1  0  0  0  0
 29 34  1  0  0  0  0
 17 25  1  0  0  0  0
M  CHG  1  23  -1
M  END
$$$$

  -OEChem-05262214473D

 44 43  0     1  0  0  0  0  0999 V2000
   -4.0256   -1.8030   -2.1581 C   0  0  0  0  0  0  0  0  0  0  0  0
   -3.7513   -2.6782   -2.9709 O   0  0  0  0  0  0  0  0  0  0  0  0
   -5.3491   -1.1169   -2.2339 C   0  0  0  0  0  0  0  0  0  0  0  0
   -5.3223   -0.2211   -2.8750 H   0  0  0  0  0  0  0  0  0  0  0  0
   -6.1322   -1.7605   -2.6658 H   0  0  0  0  0  0  0  0  0  0  0  0
   -5.7568   -0.7715   -1.2704 H   0  0  0  0  0  0  0  0  0  0  0  0
   -3.2124   -1.3578   -1.1289 N   0  0  0  0  0  0  0  0  0  0  0  0
   -1.8971   -1.8843   -0.8752 C   0  0  2  0  0  0  0  0  0  0  0  0
   -1.2676   -1.0599    0.2399 C   0  0  0  0  0  0  0  0  0  0  0  0
   -1.6270    0.0833    0.5138 O   0  0  0  0  0  0  0  0  0  0  0  0
   -1.0364   -1.8506   -2.1285 C   0  0  0  0  0  0  0  0  0  0  0  0
   -3.5631   -0.6202   -0.5206 H   0  0  0  0  0  0  0  0  0  0  0  0
   -2.0301   -2.9174   -0.5360 H   0  0  0  0  0  0  0  0  0  0  0  0
   -0.8921   -0.8236   -2.4833 H   0  0  0  0  0  0  0  0  0  0  0  0
   -0.0457   -2.2777   -1.9410 H   0  0  0  0  0  0  0  0  0  0  0  0
   -1.5052   -2.4193   -2.9387 H   0  0  0  0  0  0  0  0  0  0  0  0
   -0.2267   -1.7335    0.8672 N   0  0  0  0  0  0  0  0  0  0  0  0
    0.5363   -1.1590    1.9465 C   0  0  2  0  0  0  0  0  0  0  0  0
    1.4758   -0.1267    1.3339 C   0  0  0  0  0  0  0  0  0  0  0  0
    1.0775    0.8721    0.7379 O   0  0  0  0  0  0  0  0  0  0  0  0
    1.3279   -2.2188    2.7091 C   0  0  0  0  0  0  0  0  0  0  0  0
    0.5093   -3.2116    3.5443 C   0  0  0  0  0  0  0  0  0  0  0  0
   -0.5842   -2.7442    3.9763 O   0  5  0  0  0  0  0  0  0  0  0  0
    1.0104   -4.3569    3.7124 O   0  0  0  0  0  0  0  0  0  0  0  0
   -0.0113   -2.6869    0.5854 H   0  0  0  0  0  0  0  0  0  0  0  0
   -0.1792   -0.6505    2.6026 H   0  0  0  0  0  0  0  0  0  0  0  0
    2.0499   -1.7304    3.3778 H   0  0  0  0  0  0  0  0  0  0  0  0
    1.9161   -2.8197    2.0033 H   0  0  0  0  0  0  0  0  0  0  0  0
    2.8092   -0.4258    1.5766 N   0  0  0  0  0  0  0  0  0  0  0  0
    3.8938    0.4155    1.1268 C   0  0  2  0  0  0  0  0  0  0  0  0
    5.0963   -0.4765    0.8478 C   0  0  0  0  0  0  0  0  0  0  0  0
    5.2379   -1.5886    1.3520 O   0  0  0  0  0  0  0  0  0  0  0  0
    4.2339    1.4790    2.1593 C   0  0  0  0  0  0  0  0  0  0  0  0
    3.0449   -1.2503    2.1211 H   0  0  0  0  0  0  0  0  0  0  0  0
    3.5633    0.8861    0.1945 H   0  0  0  0  0  0  0  0  0  0  0  0
    4.5671    1.0264    3.1003 H   0  0  0  0  0  0  0  0  0  0  0  0
    5.0370    2.1336    1.8048 H   0  0  0  0  0  0  0  0  0  0  0  0
    3.3598    2.1008    2.3807 H   0  0  0  0  0  0  0  0  0  0  0  0
    6.0135    0.1331    0.0033 N   0  0  0  0  0  0  0  0  0  0  0  0
    7.2444   -0.5049   -0.4016 C   0  0  0  0  0  0  0  0  0  0  0  0
    5.8053    1.0492   -0.3827 H   0  0  0  0  0  0  0  0  0  0  0  0
    8.0506   -0.2200    0.2903 H   0  0  0  0  0  0  0  0  0  0  0  0
    7.1144   -1.5971   -0.3832 H   0  0  0  0  0  0  0  0  0  0  0  0
    7.5055   -0.1839   -1.4208 H   0  0  0  0  0  0  0  0  0  0  0  0
  1  3  1  0  0  0  0
  1  7  1  0  0  0  0
  1  2  2  0  0  0  0
 30 31  1  0  0  0  0
 31 39  1  0  0  0  0
 31 32  2  0  0  0  0
  8  9  1  0  0  0  0
  9 17  1  0  0  0  0
  9 10  2  0  0  0  0
 18 19  1  0  0  0  0
 19 29  1  0  0  0  0
 19 20  2  0  0  0  0
 21 22  1  0  0  0  0
 22 23  1  0  0  0  0
 22 24  2  0  0  0  0
 30 33  1  0  0  0  0
  8 11  1  0  0  0  0
 39 40  1  0  0  0  0
 18 21  1  0  0  0  0
 29 30  1  0  0  0  0
  7  8  1  0  0  0  0
 17 18  1  0  0  0  0
  3  4  1  0  0  0  0
  3  5  1  0  0  0  0
  3  6  1  0  0  0  0
 33 36  1  0  0  0  0
 33 37  1  0  0  0  0
 33 38  1  0  0  0  0
 11 14  1  0  0  0  0
 11 15  1  0  0  0  0
 11 16  1  0  0  0  0
 40 42  1  0  0  0  0
 40 43  1  0  0  0  0
 40 44  1  0  0  0  0
 21 27  1  0  0  0  0
 21 28  1  0  0  0  0
 30 35  1  0  0  0  0
  8 13  1  0  0  0  0
 18 26  1  0  0  0  0
 39 41  1  0  0  0  0
  7 12  1  0  0  0  0
 29 34  1  0  0  0  0
 17 25  1  0  0  0  0
M  CHG  1  23  -1
M  END
$$$$

  -OEChem-05262214473D

 44 43  0     1  0  0  0  0  0999 V2000
   -4.0256   -1.8030   -2.1581 C   0  0  0  0  0  0  0  0  0  0  0  0
   -3.7513   -2.6782   -2.9709 O   0  0  0  0  0  0  0  0  0  0  0  0
   -5.3491   -1.1169   -2.2339 C   0  0  0  0  0  0  0  0  0  0  0  0
   -5.3223   -0.2211   -2.8750 H   0  0  0  0  0  0  0  0  0  0  0  0
   -6.1322   -1.7605   -2.6658 H   0  0  0  0  0  0  0  0  0  0  0  0
   -5.7568   -0.7715   -1.2704 H   0  0  0  0  0  0  0  0  0  0  0  0
   -3.2124   -1.3578   -1.1289 N   0  0  0  0  0  0  0  0  0  0  0  0
   -1.8971   -1.8843   -0.8752 C   0  0  2  0  0  0  0  0  0  0  0  0
   -1.2676   -1.0599    0.2399 C   0  0  0  0  0  0  0  0  0  0  0  0
   -1.6270    0.0833    0.5138 O   0  0  0  0  0  0  0  0  0  0  0  0
   -1.0364   -1.8506   -2.1285 C   0  0  0  0  0  0  0  0  0  0  0  0
   -3.5631   -0.6202   -0.5206 H   0  0  0  0  0  0  0  0  0  0  0  0
   -2.0301   -2.9174   -0.5360 H   0  0  0  0  0  0  0  0  0  0  0  0
   -0.8921   -0.8236   -2.4833 H   0  0  0  0  0  0  0  0  0  0  0  0
   -0.0457   -2.2777   -1.9410 H   0  0  0  0  0  0  0  0  0  0  0  0
   -1.5052   -2.4193   -2.9387 H   0  0  0  0  0  0  0  0  0  0  0  0
   -0.2267   -1.7335    0.8672 N   0  0  0  0  0  0  0  0  0  0  0  0
    0.5363   -1.1590    1.9465 C   0  0  2  0  0  0  0  0  0  0  0  0
    1.4758   -0.1267    1.3339 C   0  0  0  0  0  0  0  0  0  0  0  0
    1.1046    0.9900    0.9782 O   0  0  0  0  0  0  0  0  0  0  0  0
    1.3279   -2.2188    2.7091 C   0  0  0  0  0  0  0  0  0  0  0  0
    0.5093   -3.2116    3.5443 C   0  0  0  0  0  0  0  0  0  0  0  0
   -0.5842   -2.7442    3.9763 O   0  5  0  0  0  0  0  0  0  0  0  0
    1.0104   -4.3569    3.7124 O   0  0  0  0  0  0  0  0  0  0  0  0
   -0.0113   -2.6869    0.5854 H   0  0  0  0  0  0  0  0  0  0  0  0
   -0.1792   -0.6505    2.6026 H   0  0  0  0  0  0  0  0  0  0  0  0
    2.0499   -1.7304    3.3778 H   0  0  0  0  0  0  0  0  0  0  0  0
    1.9161   -2.8197    2.0033 H   0  0  0  0  0  0  0  0  0  0  0  0
    2.7861   -0.5809    1.2798 N   0  0  0  0  0  0  0  0  0  0  0  0
    3.8723    0.2233    0.7700 C   0  0  2  0  0  0  0  0  0  0  0  0
    4.8973   -0.7131    0.1440 C   0  0  0  0  0  0  0  0  0  0  0  0
    4.9885   -1.9025    0.4407 O   0  0  0  0  0  0  0  0  0  0  0  0
    4.5032    1.0624    1.8702 C   0  0  0  0  0  0  0  0  0  0  0  0
    3.0102   -1.5033    1.6415 H   0  0  0  0  0  0  0  0  0  0  0  0
    3.4488    0.8723   -0.0043 H   0  0  0  0  0  0  0  0  0  0  0  0
    4.9329    0.4294    2.6552 H   0  0  0  0  0  0  0  0  0  0  0  0
    5.3075    1.6927    1.4767 H   0  0  0  0  0  0  0  0  0  0  0  0
    3.7580    1.7139    2.3394 H   0  0  0  0  0  0  0  0  0  0  0  0
    5.7264   -0.0546   -0.7533 N   0  0  0  0  0  0  0  0  0  0  0  0
    6.7882   -0.7230   -1.4687 C   0  0  0  0  0  0  0  0  0  0  0  0
    5.5664    0.9285   -0.9524 H   0  0  0  0  0  0  0  0  0  0  0  0
    7.7265   -0.6325   -0.9018 H   0  0  0  0  0  0  0  0  0  0  0  0
    6.5349   -1.7864   -1.5909 H   0  0  0  0  0  0  0  0  0  0  0  0
    6.9118   -0.2593   -2.4585 H   0  0  0  0  0  0  0  0  0  0  0  0
  1  3  1  0  0  0  0
  1  7  1  0  0  0  0
  1  2  2  0  0  0  0
 30 31  1  0  0  0  0
 31 39  1  0  0  0  0
 31 32  2  0  0  0  0
  8  9  1  0  0  0  0
  9 17  1  0  0  0  0
  9 10  2  0  0  0  0
 18 19  1  0  0  0  0
 19 29  1  0  0  0  0
 19 20  2  0  0  0  0
 21 22  1  0  0  0  0
 22 23  1  0  0  0  0
 22 24  2  0  0  0  0
 30 33  1  0  0  0  0
  8 11  1  0  0  0  0
 39 40  1  0  0  0  0
 18 21  1  0  0  0  0
 29 30  1  0  0  0  0
  7  8  1  0  0  0  0
 17 18  1  0  0  0  0
  3  4  1  0  0  0  0
  3  5  1  0  0  0  0
  3  6  1  0  0  0  0
 33 36  1  0  0  0  0
 33 37  1  0  0  0  0
 33 38  1  0  0  0  0
 11 14  1  0  0  0  0
 11 15  1  0  0  0  0
 11 16  1  0  0  0  0
 40 42  1  0  0  0  0
 40 43  1  0  0  0  0
 40 44  1  0  0  0  0
 21 27  1  0  0  0  0
 21 28  1  0  0  0  0
 30 35  1  0  0  0  0
  8 13  1  0  0  0  0
 18 26  1  0  0  0  0
 39 41  1  0  0  0  0
  7 12  1  0  0  0  0
 29 34  1  0  0  0  0
 17 25  1  0  0  0  0
M  CHG  1  23  -1
M  END
$$$$

  -OEChem-05262214473D

 44 43  0     1  0  0  0  0  0999 V2000
   -4.0256   -1.8030   -2.1581 C   0  0  0  0  0  0  0  0  0  0  0  0
   -3.7513   -2.6782   -2.9709 O   0  0  0  0  0  0  0  0  0  0  0  0
   -5.3491   -1.1169   -2.2339 C   0  0  0  0  0  0  0  0  0  0  0  0
   -5.3223   -0.2211   -2.8750 H   0  0  0  0  0  0  0  0  0  0  0  0
   -6.1322   -1.7605   -2.6658 H   0  0  0  0  0  0  0  0  0  0  0  0
   -5.7568   -0.7715   -1.2704 H   0  0  0  0  0  0  0  0  0  0  0  0
   -3.2124   -1.3578   -1.1289 N   0  0  0  0  0  0  0  0  0  0  0  0
   -1.8971   -1.8843   -0.8752 C   0  0  2  0  0  0  0  0  0  0  0  0
   -1.2676   -1.0599    0.2399 C   0  0  0  0  0  0  0  0  0  0  0  0
   -1.6270    0.0833    0.5138 O   0  0  0  0  0  0  0  0  0  0  0  0
   -1.0364   -1.8506   -2.1285 C   0  0  0  0  0  0  0  0  0  0  0  0
   -3.5631   -0.6202   -0.5206 H   0  0  0  0  0  0  0  0  0  0  0  0
   -2.0301   -2.9174   -0.5360 H   0  0  0  0  0  0  0  0  0  0  0  0
   -0.8921   -0.8236   -2.4833 H   0  0  0  0  0  0  0  0  0  0  0  0
   -0.0457   -2.2777   -1.9410 H   0  0  0  0  0  0  0  0  0  0  0  0
   -1.5052   -2.4193   -2.9387 H   0  0  0  0  0  0  0  0  0  0  0  0
   -0.2267   -1.7335    0.8672 N   0  0  0  0  0  0  0  0  0  0  0  0
    0.5363   -1.1590    1.9465 C   0  0  2  0  0  0  0  0  0  0  0  0
    1.4758   -0.1267    1.3339 C   0  0  0  0  0  0  0  0  0  0  0  0
    1.1851    1.0628    1.2243 O   0  0  0  0  0  0  0  0  0  0  0  0
    1.3279   -2.2188    2.7091 C   0  0  0  0  0  0  0  0  0  0  0  0
    0.5093   -3.2116    3.5443 C   0  0  0  0  0  0  0  0  0  0  0  0
   -0.5842   -2.7442    3.9763 O   0  5  0  0  0  0  0  0  0  0  0  0
    1.0104   -4.3569    3.7124 O   0  0  0  0  0  0  0  0  0  0  0  0
   -0.0113   -2.6869    0.5854 H   0  0  0  0  0  0  0  0  0  0  0  0
   -0.1792   -0.6505    2.6026 H   0  0  0  0  0  0  0  0  0  0  0  0
    2.0499   -1.7304    3.3778 H   0  0  0  0  0  0  0  0  0  0  0  0
    1.9161   -2.8197    2.0033 H   0  0  0  0  0  0  0  0  0  0  0  0
    2.6957   -0.6811    0.9723 N   0  0  0  0  0  0  0  0  0  0  0  0
    3.7689    0.0968    0.3984 C   0  0  2  0  0  0  0  0  0  0  0  0
    4.5571   -0.8087   -0.5387 C   0  0  0  0  0  0  0  0  0  0  0  0
    4.5553   -2.0344   -0.4459 O   0  0  0  0  0  0  0  0  0  0  0  0
    4.6693    0.6781    1.4774 C   0  0  0  0  0  0  0  0  0  0  0  0
    2.8663   -1.6676    1.1440 H   0  0  0  0  0  0  0  0  0  0  0  0
    3.3020    0.9026   -0.1785 H   0  0  0  0  0  0  0  0  0  0  0  0
    5.1460   -0.1143    2.0658 H   0  0  0  0  0  0  0  0  0  0  0  0
    5.4655    1.2910    1.0420 H   0  0  0  0  0  0  0  0  0  0  0  0
    4.0952    1.3053    2.1679 H   0  0  0  0  0  0  0  0  0  0  0  0
    5.2969   -0.0853   -1.4637 N   0  0  0  0  0  0  0  0  0  0  0  0
    6.1379   -0.7160   -2.4542 C   0  0  0  0  0  0  0  0  0  0  0  0
    5.2233    0.9277   -1.4801 H   0  0  0  0  0  0  0  0  0  0  0  0
    7.1616   -0.8071   -2.0623 H   0  0  0  0  0  0  0  0  0  0  0  0
    5.7438   -1.7164   -2.6862 H   0  0  0  0  0  0  0  0  0  0  0  0
    6.1485   -0.1049   -3.3687 H   0  0  0  0  0  0  0  0  0  0  0  0
  1  3  1  0  0  0  0
  1  7  1  0  0  0  0
  1  2  2  0  0  0  0
 30 31  1  0  0  0  0
 31 39  1  0  0  0  0
 31 32  2  0  0  0  0
  8  9  1  0  0  0  0
  9 17  1  0  0  0  0
  9 10  2  0  0  0  0
 18 19  1  0  0  0  0
 19 29  1  0  0  0  0
 19 20  2  0  0  0  0
 21 22  1  0  0  0  0
 22 23  1  0  0  0  0
 22 24  2  0  0  0  0
 30 33  1  0  0  0  0
  8 11  1  0  0  0  0
 39 40  1  0  0  0  0
 18 21  1  0  0  0  0
 29 30  1  0  0  0  0
  7  8  1  0  0  0  0
 17 18  1  0  0  0  0
  3  4  1  0  0  0  0
  3  5  1  0  0  0  0
  3  6  1  0  0  0  0
 33 36  1  0  0  0  0
 33 37  1  0  0  0  0
 33 38  1  0  0  0  0
 11 14  1  0  0  0  0
 11 15  1  0  0  0  0
 11 16  1  0  0  0  0
 40 42  1  0  0  0  0
 40 43  1  0  0  0  0
 40 44  1  0  0  0  0
 21 27  1  0  0  0  0
 21 28  1  0  0  0  0
 30 35  1  0  0  0  0
  8 13  1  0  0  0  0
 18 26  1  0  0  0  0
 39 41  1  0  0  0  0
  7 12  1  0  0  0  0
 29 34  1  0  0  0  0
 17 25  1  0  0  0  0
M  CHG  1  23  -1
M  END
$$$$

  -OEChem-05262214473D

 44 43  0     1  0  0  0  0  0999 V2000
   -4.0256   -1.8030   -2.1581 C   0  0  0  0  0  0  0  0  0  0  0  0
   -3.7513   -2.6782   -2.9709 O   0  0  0  0  0  0  0  0  0  0  0  0
   -5.3491   -1.1169   -2.2339 C   0  0  0  0  0  0  0  0  0  0  0  0
   -5.3223   -0.2211   -2.8750 H   0  0  0  0  0  0  0  0  0  0  0  0
   -6.1322   -1.7605   -2.6658 H   0  0  0  0  0  0  0  0  0  0  0  0
   -5.7568   -0.7715   -1.2704 H   0  0  0  0  0  0  0  0  0  0  0  0
   -3.2124   -1.3578   -1.1289 N   0  0  0  0  0  0  0  0  0  0  0  0
   -1.8971   -1.8843   -0.8752 C   0  0  2  0  0  0  0  0  0  0  0  0
   -1.2676   -1.0599    0.2399 C   0  0  0  0  0  0  0  0  0  0  0  0
   -1.6270    0.0833    0.5138 O   0  0  0  0  0  0  0  0  0  0  0  0
   -1.0364   -1.8506   -2.1285 C   0  0  0  0  0  0  0  0  0  0  0  0
   -3.5631   -0.6202   -0.5206 H   0  0  0  0  0  0  0  0  0  0  0  0
   -2.0301   -2.9174   -0.5360 H   0  0  0  0  0  0  0  0  0  0  0  0
   -0.8921   -0.8236   -2.4833 H   0  0  0  0  0  0  0  0  0  0  0  0
   -0.0457   -2.2777   -1.9410 H   0  0  0  0  0  0  0  0  0  0  0  0
   -1.5052   -2.4193   -2.9387 H   0  0  0  0  0  0  0  0  0  0  0  0
   -0.2267   -1.7335    0.8672 N   0  0  0  0  0  0  0  0  0  0  0  0
    0.5363   -1.1590    1.9465 C   0  0  2  0  0  0  0  0  0  0  0  0
    1.4758   -0.1267    1.3339 C   0  0  0  0  0  0  0  0  0  0  0  0
    1.3136    1.0854    1.4595 O   0  0  0  0  0  0  0  0  0  0  0  0
    1.3279   -2.2188    2.7091 C   0  0  0  0  0  0  0  0  0  0  0  0
    0.5093   -3.2116    3.5443 C   0  0  0  0  0  0  0  0  0  0  0  0
   -0.5842   -2.7442    3.9763 O   0  5  0  0  0  0  0  0  0  0  0  0
    1.0104   -4.3569    3.7124 O   0  0  0  0  0  0  0  0  0  0  0  0
   -0.0113   -2.6869    0.5854 H   0  0  0  0  0  0  0  0  0  0  0  0
   -0.1792   -0.6505    2.6026 H   0  0  0  0  0  0  0  0  0  0  0  0
    2.0499   -1.7304    3.3778 H   0  0  0  0  0  0  0  0  0  0  0  0
    1.9161   -2.8197    2.0033 H   0  0  0  0  0  0  0  0  0  0  0  0
    2.5441   -0.7194    0.6753 N   0  0  0  0  0  0  0  0  0  0  0  0
    3.5908    0.0447    0.0374 C   0  0  2  0  0  0  0  0  0  0  0  0
    4.0990   -0.7567   -1.1538 C   0  0  0  0  0  0  0  0  0  0  0  0
    3.9678   -1.9754   -1.2475 O   0  0  0  0  0  0  0  0  0  0  0  0
    4.7209    0.3523    1.0075 C   0  0  0  0  0  0  0  0  0  0  0  0
    2.6231   -1.7320    0.6624 H   0  0  0  0  0  0  0  0  0  0  0  0
    3.1328    0.9749   -0.3161 H   0  0  0  0  0  0  0  0  0  0  0  0
    5.1920   -0.5676    1.3725 H   0  0  0  0  0  0  0  0  0  0  0  0
    5.5001    0.9558    0.5304 H   0  0  0  0  0  0  0  0  0  0  0  0
    4.3483    0.9029    1.8780 H   0  0  0  0  0  0  0  0  0  0  0  0
    4.7543    0.0431   -2.0796 N   0  0  0  0  0  0  0  0  0  0  0  0
    5.3377   -0.4843   -3.2910 C   0  0  0  0  0  0  0  0  0  0  0  0
    4.7993    1.0467   -1.9298 H   0  0  0  0  0  0  0  0  0  0  0  0
    6.3944   -0.7318   -3.1121 H   0  0  0  0  0  0  0  0  0  0  0  0
    4.7950   -1.3918   -3.5943 H   0  0  0  0  0  0  0  0  0  0  0  0
    5.2678    0.2689   -4.0896 H   0  0  0  0  0  0  0  0  0  0  0  0
  1  3  1  0  0  0  0
  1  7  1  0  0  0  0
  1  2  2  0  0  0  0
 30 31  1  0  0  0  0
 31 39  1  0  0  0  0
 31 32  2  0  0  0  0
  8  9  1  0  0  0  0
  9 17  1  0  0  0  0
  9 10  2  0  0  0  0
 18 19  1  0  0  0  0
 19 29  1  0  0  0  0
 19 20  2  0  0  0  0
 21 22  1  0  0  0  0
 22 23  1  0  0  0  0
 22 24  2  0  0  0  0
 30 33  1  0  0  0  0
  8 11  1  0  0  0  0
 39 40  1  0  0  0  0
 18 21  1  0  0  0  0
 29 30  1  0  0  0  0
  7  8  1  0  0  0  0
 17 18  1  0  0  0  0
  3  4  1  0  0  0  0
  3  5  1  0  0  0  0
  3  6  1  0  0  0  0
 33 36  1  0  0  0  0
 33 37  1  0  0  0  0
 33 38  1  0  0  0  0
 11 14  1  0  0  0  0
 11 15  1  0  0  0  0
 11 16  1  0  0  0  0
 40 42  1  0  0  0  0
 40 43  1  0  0  0  0
 40 44  1  0  0  0  0
 21 27  1  0  0  0  0
 21 28  1  0  0  0  0
 30 35  1  0  0  0  0
  8 13  1  0  0  0  0
 18 26  1  0  0  0  0
 39 41  1  0  0  0  0
  7 12  1  0  0  0  0
 29 34  1  0  0  0  0
 17 25  1  0  0  0  0
M  CHG  1  23  -1
M  END
$$$$

  -OEChem-05262214473D

 44 43  0     1  0  0  0  0  0999 V2000
   -4.0256   -1.8030   -2.1581 C   0  0  0  0  0  0  0  0  0  0  0  0
   -3.7513   -2.6782   -2.9709 O   0  0  0  0  0  0  0  0  0  0  0  0
   -5.3491   -1.1169   -2.2339 C   0  0  0  0  0  0  0  0  0  0  0  0
   -5.3223   -0.2211   -2.8750 H   0  0  0  0  0  0  0  0  0  0  0  0
   -6.1322   -1.7605   -2.6658 H   0  0  0  0  0  0  0  0  0  0  0  0
   -5.7568   -0.7715   -1.2704 H   0  0  0  0  0  0  0  0  0  0  0  0
   -3.2124   -1.3578   -1.1289 N   0  0  0  0  0  0  0  0  0  0  0  0
   -1.8971   -1.8843   -0.8752 C   0  0  2  0  0  0  0  0  0  0  0  0
   -1.2676   -1.0599    0.2399 C   0  0  0  0  0  0  0  0  0  0  0  0
   -1.6270    0.0833    0.5138 O   0  0  0  0  0  0  0  0  0  0  0  0
   -1.0364   -1.8506   -2.1285 C   0  0  0  0  0  0  0  0  0  0  0  0
   -3.5631   -0.6202   -0.5206 H   0  0  0  0  0  0  0  0  0  0  0  0
   -2.0301   -2.9174   -0.5360 H   0  0  0  0  0  0  0  0  0  0  0  0
   -0.8921   -0.8236   -2.4833 H   0  0  0  0  0  0  0  0  0  0  0  0
   -0.0457   -2.2777   -1.9410 H   0  0  0  0  0  0  0  0  0  0  0  0
   -1.5052   -2.4193   -2.9387 H   0  0  0  0  0  0  0  0  0  0  0  0
   -0.2267   -1.7335    0.8672 N   0  0  0  0  0  0  0  0  0  0  0  0
    0.5363   -1.1590    1.9465 C   0  0  2  0  0  0  0  0  0  0  0  0
    1.4758   -0.1267    1.3339 C   0  0  0  0  0  0  0  0  0  0  0  0
    1.4814    1.0564    1.6679 O   0  0  0  0  0  0  0  0  0  0  0  0
    1.3279   -2.2188    2.7091 C   0  0  0  0  0  0  0  0  0  0  0  0
    0.5093   -3.2116    3.5443 C   0  0  0  0  0  0  0  0  0  0  0  0
   -0.5842   -2.7442    3.9763 O   0  5  0  0  0  0  0  0  0  0  0  0
    1.0104   -4.3569    3.7124 O   0  0  0  0  0  0  0  0  0  0  0  0
   -0.0113   -2.6869    0.5854 H   0  0  0  0  0  0  0  0  0  0  0  0
   -0.1792   -0.6505    2.6026 H   0  0  0  0  0  0  0  0  0  0  0  0
    2.0499   -1.7304    3.3778 H   0  0  0  0  0  0  0  0  0  0  0  0
    1.9161   -2.8197    2.0033 H   0  0  0  0  0  0  0  0  0  0  0  0
    2.3415   -0.6932    0.4088 N   0  0  0  0  0  0  0  0  0  0  0  0
    3.3501    0.0705   -0.2884 C   0  0  2  0  0  0  0  0  0  0  0  0
    3.5540   -0.5607   -1.6593 C   0  0  0  0  0  0  0  0  0  0  0  0
    3.2658   -1.7293   -1.9093 O   0  0  0  0  0  0  0  0  0  0  0  0
    4.6545    0.1072    0.4926 C   0  0  0  0  0  0  0  0  0  0  0  0
    2.2970   -1.6921    0.2297 H   0  0  0  0  0  0  0  0  0  0  0  0
    2.9528    1.0843   -0.4079 H   0  0  0  0  0  0  0  0  0  0  0  0
    5.0678   -0.8997    0.6224 H   0  0  0  0  0  0  0  0  0  0  0  0
    5.4090    0.7101   -0.0234 H   0  0  0  0  0  0  0  0  0  0  0  0
    4.5001    0.5341    1.4894 H   0  0  0  0  0  0  0  0  0  0  0  0
    4.1356    0.3217   -2.5589 N   0  0  0  0  0  0  0  0  0  0  0  0
    4.4422   -0.0439   -3.9221 C   0  0  0  0  0  0  0  0  0  0  0  0
    4.3233    1.2775   -2.2708 H   0  0  0  0  0  0  0  0  0  0  0  0
    5.4772   -0.4119   -3.9796 H   0  0  0  0  0  0  0  0  0  0  0  0
    3.7531   -0.8346   -4.2534 H   0  0  0  0  0  0  0  0  0  0  0  0
    4.3296    0.8366   -4.5718 H   0  0  0  0  0  0  0  0  0  0  0  0
  1  3  1  0  0  0  0
  1  7  1  0  0  0  0
  1  2  2  0  0  0  0
 30 31  1  0  0  0  0
 31 39  1  0  0  0  0
 31 32  2  0  0  0  0
  8  9  1  0  0  0  0
  9 17  1  0  0  0  0
  9 10  2  0  0  0  0
 18 19  1  0  0  0  0
 19 29  1  0  0  0  0
 19 20  2  0  0  0  0
 21 22  1  0  0  0  0
 22 23  1  0  0  0  0
 22 24  2  0  0  0  0
 30 33  1  0  0  0  0
  8 11  1  0  0  0  0
 39 40  1  0  0  0  0
 18 21  1  0  0  0  0
 29 30  1  0  0  0  0
  7  8  1  0  0  0  0
 17 18  1  0  0  0  0
  3  4  1  0  0  0  0
  3  5  1  0  0  0  0
  3  6  1  0  0  0  0
 33 36  1  0  0  0  0
 33 37  1  0  0  0  0
 33 38  1  0  0  0  0
 11 14  1  0  0  0  0
 11 15  1  0  0  0  0
 11 16  1  0  0  0  0
 40 42  1  0  0  0  0
 40 43  1  0  0  0  0
 40 44  1  0  0  0  0
 21 27  1  0  0  0  0
 21 28  1  0  0  0  0
 30 35  1  0  0  0  0
  8 13  1  0  0  0  0
 18 26  1  0  0  0  0
 39 41  1  0  0  0  0
  7 12  1  0  0  0  0
 29 34  1  0  0  0  0
 17 25  1  0  0  0  0
M  CHG  1  23  -1
M  END
$$$$

  -OEChem-05262214473D

 44 43  0     1  0  0  0  0  0999 V2000
   -4.0256   -1.8030   -2.1581 C   0  0  0  0  0  0  0  0  0  0  0  0
   -3.7513   -2.6782   -2.9709 O   0  0  0  0  0  0  0  0  0  0  0  0
   -5.3491   -1.1169   -2.2339 C   0  0  0  0  0  0  0  0  0  0  0  0
   -5.3223   -0.2211   -2.8750 H   0  0  0  0  0  0  0  0  0  0  0  0
   -6.1322   -1.7605   -2.6658 H   0  0  0  0  0  0  0  0  0  0  0  0
   -5.7568   -0.7715   -1.2704 H   0  0  0  0  0  0  0  0  0  0  0  0
   -3.2124   -1.3578   -1.1289 N   0  0  0  0  0  0  0  0  0  0  0  0
   -1.8971   -1.8843   -0.8752 C   0  0  2  0  0  0  0  0  0  0  0  0
   -1.2676   -1.0599    0.2399 C   0  0  0  0  0  0  0  0  0  0  0  0
   -1.6270    0.0833    0.5138 O   0  0  0  0  0  0  0  0  0  0  0  0
   -1.0364   -1.8506   -2.1285 C   0  0  0  0  0  0  0  0  0  0  0  0
   -3.5631   -0.6202   -0.5206 H   0  0  0  0  0  0  0  0  0  0  0  0
   -2.0301   -2.9174   -0.5360 H   0  0  0  0  0  0  0  0  0  0  0  0
   -0.8921   -0.8236   -2.4833 H   0  0  0  0  0  0  0  0  0  0  0  0
   -0.0457   -2.2777   -1.9410 H   0  0  0  0  0  0  0  0  0  0  0  0
   -1.5052   -2.4193   -2.9387 H   0  0  0  0  0  0  0  0  0  0  0  0
   -0.2267   -1.7335    0.8672 N   0  0  0  0  0  0  0  0  0  0  0  0
    0.5363   -1.1590    1.9465 C   0  0  2  0  0  0  0  0  0  0  0  0
    1.4758   -0.1267    1.3339 C   0  0  0  0  0  0  0  0  0  0  0  0
    1.6768    0.9777    1.8350 O   0  0  0  0  0  0  0  0  0  0  0  0
    1.3279   -2.2188    2.7091 C   0  0  0  0  0  0  0  0  0  0  0  0
    0.5093   -3.2116    3.5443 C   0  0  0  0  0  0  0  0  0  0  0  0
   -0.5842   -2.7442    3.9763 O   0  5  0  0  0  0  0  0  0  0  0  0
    1.0104   -4.3569    3.7124 O   0  0  0  0  0  0  0  0  0  0  0  0
   -0.0113   -2.6869    0.5854 H   0  0  0  0  0  0  0  0  0  0  0  0
   -0.1792   -0.6505    2.6026 H   0  0  0  0  0  0  0  0  0  0  0  0
    2.0499   -1.7304    3.3778 H   0  0  0  0  0  0  0  0  0  0  0  0
    1.9161   -2.8197    2.0033 H   0  0  0  0  0  0  0  0  0  0  0  0
    2.1019   -0.6043    0.1910 N   0  0  0  0  0  0  0  0  0  0  0  0
    3.0632    0.1724   -0.5567 C   0  0  2  0  0  0  0  0  0  0  0  0
    2.9594   -0.2341   -2.0208 C   0  0  0  0  0  0  0  0  0  0  0  0
    2.4975   -1.3131   -2.3863 O   0  0  0  0  0  0  0  0  0  0  0  0
    4.4746   -0.0405   -0.0322 C   0  0  0  0  0  0  0  0  0  0  0  0
    1.9103   -1.5505   -0.1249 H   0  0  0  0  0  0  0  0  0  0  0  0
    2.7741    1.2233   -0.4475 H   0  0  0  0  0  0  0  0  0  0  0  0
    4.7818   -1.0879   -0.1333 H   0  0  0  0  0  0  0  0  0  0  0  0
    5.1984    0.5706   -0.5815 H   0  0  0  0  0  0  0  0  0  0  0  0
    4.5403    0.2241    1.0286 H   0  0  0  0  0  0  0  0  0  0  0  0
    3.4829    0.7317   -2.8689 N   0  0  0  0  0  0  0  0  0  0  0  0
    3.5124    0.5754   -4.3044 C   0  0  0  0  0  0  0  0  0  0  0  0
    3.8278    1.6043   -2.4800 H   0  0  0  0  0  0  0  0  0  0  0  0
    4.4724    0.1309   -4.6058 H   0  0  0  0  0  0  0  0  0  0  0  0
    2.6891   -0.0830   -4.6185 H   0  0  0  0  0  0  0  0  0  0  0  0
    3.3979    1.5594   -4.7827 H   0  0  0  0  0  0  0  0  0  0  0  0
  1  3  1  0  0  0  0
  1  7  1  0  0  0  0
  1  2  2  0  0  0  0
 30 31  1  0  0  0  0
 31 39  1  0  0  0  0
 31 32  2  0  0  0  0
  8  9  1  0  0  0  0
  9 17  1  0  0  0  0
  9 10  2  0  0  0  0
 18 19  1  0  0  0  0
 19 29  1  0  0  0  0
 19 20  2  0  0  0  0
 21 22  1  0  0  0  0
 22 23  1  0  0  0  0
 22 24  2  0  0  0  0
 30 33  1  0  0  0  0
  8 11  1  0  0  0  0
 39 40  1  0  0  0  0
 18 21  1  0  0  0  0
 29 30  1  0  0  0  0
  7  8  1  0  0  0  0
 17 18  1  0  0  0  0
  3  4  1  0  0  0  0
  3  5  1  0  0  0  0
  3  6  1  0  0  0  0
 33 36  1  0  0  0  0
 33 37  1  0  0  0  0
 33 38  1  0  0  0  0
 11 14  1  0  0  0  0
 11 15  1  0  0  0  0
 11 16  1  0  0  0  0
 40 42  1  0  0  0  0
 40 43  1  0  0  0  0
 40 44  1  0  0  0  0
 21 27  1  0  0  0  0
 21 28  1  0  0  0  0
 30 35  1  0  0  0  0
  8 13  1  0  0  0  0
 18 26  1  0  0  0  0
 39 41  1  0  0  0  0
  7 12  1  0  0  0  0
 29 34  1  0  0  0  0
 17 25  1  0  0  0  0
M  CHG  1  23  -1
M  END
$$$$

  -OEChem-05262214473D

 44 43  0     1  0  0  0  0  0999 V2000
   -4.0256   -1.8030   -2.1581 C   0  0  0  0  0  0  0  0  0  0  0  0
   -3.7513   -2.6782   -2.9709 O   0  0  0  0  0  0  0  0  0  0  0  0
   -5.3491   -1.1169   -2.2339 C   0  0  0  0  0  0  0  0  0  0  0  0
   -5.3223   -0.2211   -2.8750 H   0  0  0  0  0  0  0  0  0  0  0  0
   -6.1322   -1.7605   -2.6658 H   0  0  0  0  0  0  0  0  0  0  0  0
   -5.7568   -0.7715   -1.2704 H   0  0  0  0  0  0  0  0  0  0  0  0
   -3.2124   -1.3578   -1.1289 N   0  0  0  0  0  0  0  0  0  0  0  0
   -1.8971   -1.8843   -0.8752 C   0  0  2  0  0  0  0  0  0  0  0  0
   -1.2676   -1.0599    0.2399 C   0  0  0  0  0  0  0  0  0  0  0  0
   -1.6270    0.0833    0.5138 O   0  0  0  0  0  0  0  0  0  0  0  0
   -1.0364   -1.8506   -2.1285 C   0  0  0  0  0  0  0  0  0  0  0  0
   -3.5631   -0.6202   -0.5206 H   0  0  0  0  0  0  0  0  0  0  0  0
   -2.0301   -2.9174   -0.5360 H   0  0  0  0  0  0  0  0  0  0  0  0
   -0.8921   -0.8236   -2.4833 H   0  0  0  0  0  0  0  0  0  0  0  0
   -0.0457   -2.2777   -1.9410 H   0  0  0  0  0  0  0  0  0  0  0  0
   -1.5052   -2.4193   -2.9387 H   0  0  0  0  0  0  0  0  0  0  0  0
   -0.2267   -1.7335    0.8672 N   0  0  0  0  0  0  0  0  0  0  0  0
    0.5363   -1.1590    1.9465 C   0  0  2  0  0  0  0  0  0  0  0  0
    1.4758   -0.1267    1.3339 C   0  0  0  0  0  0  0  0  0  0  0  0
    1.8868    0.8547    1.9497 O   0  0  0  0  0  0  0  0  0  0  0  0
    1.3279   -2.2188    2.7091 C   0  0  0  0  0  0  0  0  0  0  0  0
    0.5093   -3.2116    3.5443 C   0  0  0  0  0  0  0  0  0  0  0  0
   -0.5842   -2.7442    3.9763 O   0  5  0  0  0  0  0  0  0  0  0  0
    1.0104   -4.3569    3.7124 O   0  0  0  0  0  0  0  0  0  0  0  0
   -0.0113   -2.6869    0.5854 H   0  0  0  0  0  0  0  0  0  0  0  0
   -0.1792   -0.6505    2.6026 H   0  0  0  0  0  0  0  0  0  0  0  0
    2.0499   -1.7304    3.3778 H   0  0  0  0  0  0  0  0  0  0  0  0
    1.9161   -2.8197    2.0033 H   0  0  0  0  0  0  0  0  0  0  0  0
    1.8415   -0.4588    0.0369 N   0  0  0  0  0  0  0  0  0  0  0  0
    2.7496    0.3434   -0.7494 C   0  0  2  0  0  0  0  0  0  0  0  0
    2.3557    0.2009   -2.2137 C   0  0  0  0  0  0  0  0  0  0  0  0
    1.7149   -0.7550   -2.6459 O   0  0  0  0  0  0  0  0  0  0  0  0
    4.1935   -0.0808   -0.5312 C   0  0  0  0  0  0  0  0  0  0  0  0
    1.4894   -1.3171   -0.3769 H   0  0  0  0  0  0  0  0  0  0  0  0
    2.6091    1.3825   -0.4323 H   0  0  0  0  0  0  0  0  0  0  0  0
    4.3535   -1.1194   -0.8432 H   0  0  0  0  0  0  0  0  0  0  0  0
    4.8826    0.5468   -1.1059 H   0  0  0  0  0  0  0  0  0  0  0  0
    4.4661   -0.0060    0.5271 H   0  0  0  0  0  0  0  0  0  0  0  0
    2.8408    1.2450   -2.9886 N   0  0  0  0  0  0  0  0  0  0  0  0
    2.6117    1.3313   -4.4120 C   0  0  0  0  0  0  0  0  0  0  0  0
    3.3464    2.0050   -2.5430 H   0  0  0  0  0  0  0  0  0  0  0  0
    3.4486    0.8597   -4.9479 H   0  0  0  0  0  0  0  0  0  0  0  0
    1.6755    0.8120   -4.6647 H   0  0  0  0  0  0  0  0  0  0  0  0
    2.5361    2.3881   -4.7077 H   0  0  0  0  0  0  0  0  0  0  0  0
  1  3  1  0  0  0  0
  1  7  1  0  0  0  0
  1  2  2  0  0  0  0
 30 31  1  0  0  0  0
 31 39  1  0  0  0  0
 31 32  2  0  0  0  0
  8  9  1  0  0  0  0
  9 17  1  0  0  0  0
  9 10  2  0  0  0  0
 18 19  1  0  0  0  0
 19 29  1  0  0  0  0
 19 20  2  0  0  0  0
 21 22  1  0  0  0  0
 22 23  1  0  0  0  0
 22 24  2  0  0  0  0
 30 33  1  0  0  0  0
  8 11  1  0  0  0  0
 39 40  1  0  0  0  0
 18 21  1  0  0  0  0
 29 30  1  0  0  0  0
  7  8  1  0  0  0  0
 17 18  1  0  0  0  0
  3  4  1  0  0  0  0
  3  5  1  0  0  0  0
  3  6  1  0  0  0  0
 33 36  1  0  0  0  0
 33 37  1  0  0  0  0
 33 38  1  0  0  0  0
 11 14  1  0  0  0  0
 11 15  1  0  0  0  0
 11 16  1  0  0  0  0
 40 42  1  0  0  0  0
 40 43  1  0  0  0  0
 40 44  1  0  0  0  0
 21 27  1  0  0  0  0
 21 28  1  0  0  0  0
 30 35  1  0  0  0  0
  8 13  1  0  0  0  0
 18 26  1  0  0  0  0
 39 41  1  0  0  0  0
  7 12  1  0  0  0  0
 29 34  1  0  0  0  0
 17 25  1  0  0  0  0
M  CHG  1  23  -1
M  END
$$$$

  -OEChem-05262214473D

 44 43  0     1  0  0  0  0  0999 V2000
   -4.0256   -1.8030   -2.1581 C   0  0  0  0  0  0  0  0  0  0  0  0
   -3.7513   -2.6782   -2.9709 O   0  0  0  0  0  0  0  0  0  0  0  0
   -5.3491   -1.1169   -2.2339 C   0  0  0  0  0  0  0  0  0  0  0  0
   -5.3223   -0.2211   -2.8750 H   0  0  0  0  0  0  0  0  0  0  0  0
   -6.1322   -1.7605   -2.6658 H   0  0  0  0  0  0  0  0  0  0  0  0
   -5.7568   -0.7715   -1.2704 H   0  0  0  0  0  0  0  0  0  0  0  0
   -3.2124   -1.3578   -1.1289 N   0  0  0  0  0  0  0  0  0  0  0  0
   -1.8971   -1.8843   -0.8752 C   0  0  2  0  0  0  0  0  0  0  0  0
   -1.2676   -1.0599    0.2399 C   0  0  0  0  0  0  0  0  0  0  0  0
   -1.6270    0.0833    0.5138 O   0  0  0  0  0  0  0  0  0  0  0  0
   -1.0364   -1.8506   -2.1285 C   0  0  0  0  0  0  0  0  0  0  0  0
   -3.5631   -0.6202   -0.5206 H   0  0  0  0  0  0  0  0  0  0  0  0
   -2.0301   -2.9174   -0.5360 H   0  0  0  0  0  0  0  0  0  0  0  0
   -0.8921   -0.8236   -2.4833 H   0  0  0  0  0  0  0  0  0  0  0  0
   -0.0457   -2.2777   -1.9410 H   0  0  0  0  0  0  0  0  0  0  0  0
   -1.5052   -2.4193   -2.9387 H   0  0  0  0  0  0  0  0  0  0  0  0
   -0.2267   -1.7335    0.8672 N   0  0  0  0  0  0  0  0  0  0  0  0
    0.5363   -1.1590    1.9465 C   0  0  2  0  0  0  0  0  0  0  0  0
    1.4758   -0.1267    1.3339 C   0  0  0  0  0  0  0  0  0  0  0  0
    2.0969    0.6957    2.0041 O   0  0  0  0  0  0  0  0  0  0  0  0
    1.3279   -2.2188    2.7091 C   0  0  0  0  0  0  0  0  0  0  0  0
    0.5093   -3.2116    3.5443 C   0  0  0  0  0  0  0  0  0  0  0  0
   -0.5842   -2.7442    3.9763 O   0  5  0  0  0  0  0  0  0  0  0  0
    1.0104   -4.3569    3.7124 O   0  0  0  0  0  0  0  0  0  0  0  0
   -0.0113   -2.6869    0.5854 H   0  0  0  0  0  0  0  0  0  0  0  0
   -0.1792   -0.6505    2.6026 H   0  0  0  0  0  0  0  0  0  0  0  0
    2.0499   -1.7304    3.3778 H   0  0  0  0  0  0  0  0  0  0  0  0
    1.9161   -2.8197    2.0033 H   0  0  0  0  0  0  0  0  0  0  0  0
    1.5781   -0.2666   -0.0432 N   0  0  0  0  0  0  0  0  0  0  0  0
    2.4307    0.5720   -0.8533 C   0  0  2  0  0  0  0  0  0  0  0  0
    1.7839    0.7146   -2.2247 C   0  0  0  0  0  0  0  0  0  0  0  0
    0.9716   -0.0931   -2.6706 O   0  0  0  0  0  0  0  0  0  0  0  0
    3.8304   -0.0109   -0.9703 C   0  0  0  0  0  0  0  0  0  0  0  0
    1.0630   -1.0076   -0.5094 H   0  0  0  0  0  0  0  0  0  0  0  0
    2.4690    1.5511   -0.3633 H   0  0  0  0  0  0  0  0  0  0  0  0
    3.8121   -0.9920   -1.4588 H   0  0  0  0  0  0  0  0  0  0  0  0
    4.4832    0.6403   -1.5609 H   0  0  0  0  0  0  0  0  0  0  0  0
    4.2825   -0.1405    0.0189 H   0  0  0  0  0  0  0  0  0  0  0  0
    2.2530    1.8267   -2.9098 N   0  0  0  0  0  0  0  0  0  0  0  0
    1.8015    2.1723   -4.2375 C   0  0  0  0  0  0  0  0  0  0  0  0
    2.9121    2.4521   -2.4557 H   0  0  0  0  0  0  0  0  0  0  0  0
    2.4755    1.7246   -4.9827 H   0  0  0  0  0  0  0  0  0  0  0  0
    0.7815    1.7892   -4.3890 H   0  0  0  0  0  0  0  0  0  0  0  0
    1.8031    3.2663   -4.3521 H   0  0  0  0  0  0  0  0  0  0  0  0
  1  3  1  0  0  0  0
  1  7  1  0  0  0  0
  1  2  2  0  0  0  0
 30 31  1  0  0  0  0
 31 39  1  0  0  0  0
 31 32  2  0  0  0  0
  8  9  1  0  0  0  0
  9 17  1  0  0  0  0
  9 10  2  0  0  0  0
 18 19  1  0  0  0  0
 19 29  1  0  0  0  0
 19 20  2  0  0  0  0
 21 22  1  0  0  0  0
 22 23  1  0  0  0  0
 22 24  2  0  0  0  0
 30 33  1  0  0  0  0
  8 11  1  0  0  0  0
 39 40  1  0  0  0  0
 18 21  1  0  0  0  0
 29 30  1  0  0  0  0
  7  8  1  0  0  0  0
 17 18  1  0  0  0  0
  3  4  1  0  0  0  0
  3  5  1  0  0  0  0
  3  6  1  0  0  0  0
 33 36  1  0  0  0  0
 33 37  1  0  0  0  0
 33 38  1  0  0  0  0
 11 14  1  0  0  0  0
 11 15  1  0  0  0  0
 11 16  1  0  0  0  0
 40 42  1  0  0  0  0
 40 43  1  0  0  0  0
 40 44  1  0  0  0  0
 21 27  1  0  0  0  0
 21 28  1  0  0  0  0
 30 35  1  0  0  0  0
  8 13  1  0  0  0  0
 18 26  1  0  0  0  0
 39 41  1  0  0  0  0
  7 12  1  0  0  0  0
 29 34  1  0  0  0  0
 17 25  1  0  0  0  0
M  CHG  1  23  -1
M  END
$$$$

  -OEChem-05262214473D

 44 43  0     1  0  0  0  0  0999 V2000
   -4.0256   -1.8030   -2.1581 C   0  0  0  0  0  0  0  0  0  0  0  0
   -3.7513   -2.6782   -2.9709 O   0  0  0  0  0  0  0  0  0  0  0  0
   -5.3491   -1.1169   -2.2339 C   0  0  0  0  0  0  0  0  0  0  0  0
   -5.3223   -0.2211   -2.8750 H   0  0  0  0  0  0  0  0  0  0  0  0
   -6.1322   -1.7605   -2.6658 H   0  0  0  0  0  0  0  0  0  0  0  0
   -5.7568   -0.7715   -1.2704 H   0  0  0  0  0  0  0  0  0  0  0  0
   -3.2124   -1.3578   -1.1289 N   0  0  0  0  0  0  0  0  0  0  0  0
   -1.8971   -1.8843   -0.8752 C   0  0  2  0  0  0  0  0  0  0  0  0
   -1.2676   -1.0599    0.2399 C   0  0  0  0  0  0  0  0  0  0  0  0
   -1.6270    0.0833    0.5138 O   0  0  0  0  0  0  0  0  0  0  0  0
   -1.0364   -1.8506   -2.1285 C   0  0  0  0  0  0  0  0  0  0  0  0
   -3.5631   -0.6202   -0.5206 H   0  0  0  0  0  0  0  0  0  0  0  0
   -2.0301   -2.9174   -0.5360 H   0  0  0  0  0  0  0  0  0  0  0  0
   -0.8921   -0.8236   -2.4833 H   0  0  0  0  0  0  0  0  0  0  0  0
   -0.0457   -2.2777   -1.9410 H   0  0  0  0  0  0  0  0  0  0  0  0
   -1.5052   -2.4193   -2.9387 H   0  0  0  0  0  0  0  0  0  0  0  0
   -0.2267   -1.7335    0.8672 N   0  0  0  0  0  0  0  0  0  0  0  0
    0.5363   -1.1590    1.9465 C   0  0  2  0  0  0  0  0  0  0  0  0
    1.4758   -0.1267    1.3339 C   0  0  0  0  0  0  0  0  0  0  0  0
    2.2928    0.5117    1.9944 O   0  0  0  0  0  0  0  0  0  0  0  0
    1.3279   -2.2188    2.7091 C   0  0  0  0  0  0  0  0  0  0  0  0
    0.5093   -3.2116    3.5443 C   0  0  0  0  0  0  0  0  0  0  0  0
   -0.5842   -2.7442    3.9763 O   0  5  0  0  0  0  0  0  0  0  0  0
    1.0104   -4.3569    3.7124 O   0  0  0  0  0  0  0  0  0  0  0  0
   -0.0113   -2.6869    0.5854 H   0  0  0  0  0  0  0  0  0  0  0  0
   -0.1792   -0.6505    2.6026 H   0  0  0  0  0  0  0  0  0  0  0  0
    2.0499   -1.7304    3.3778 H   0  0  0  0  0  0  0  0  0  0  0  0
    1.9161   -2.8197    2.0033 H   0  0  0  0  0  0  0  0  0  0  0  0
    1.3297   -0.0408   -0.0437 N   0  0  0  0  0  0  0  0  0  0  0  0
    2.1282    0.8426   -0.8612 C   0  0  2  0  0  0  0  0  0  0  0  0
    1.2832    1.2721   -2.0533 C   0  0  0  0  0  0  0  0  0  0  0  0
    0.3181    0.6275   -2.4585 O   0  0  0  0  0  0  0  0  0  0  0  0
    3.4099    0.1645   -1.3197 C   0  0  0  0  0  0  0  0  0  0  0  0
    0.6600   -0.6431   -0.5132 H   0  0  0  0  0  0  0  0  0  0  0  0
    2.3632    1.7174   -0.2452 H   0  0  0  0  0  0  0  0  0  0  0  0
    3.1945   -0.7144   -1.9383 H   0  0  0  0  0  0  0  0  0  0  0  0
    4.0274    0.8447   -1.9155 H   0  0  0  0  0  0  0  0  0  0  0  0
    4.0022   -0.1703   -0.4613 H   0  0  0  0  0  0  0  0  0  0  0  0
    1.7595    2.4372   -2.6379 N   0  0  0  0  0  0  0  0  0  0  0  0
    1.1369    3.0410   -3.7928 C   0  0  0  0  0  0  0  0  0  0  0  0
    2.5544    2.9152   -2.2239 H   0  0  0  0  0  0  0  0  0  0  0  0
    1.6195    2.6669   -4.7077 H   0  0  0  0  0  0  0  0  0  0  0  0
    0.0679    2.7822   -3.8101 H   0  0  0  0  0  0  0  0  0  0  0  0
    1.2487    4.1340   -3.7400 H   0  0  0  0  0  0  0  0  0  0  0  0
  1  3  1  0  0  0  0
  1  7  1  0  0  0  0
  1  2  2  0  0  0  0
 30 31  1  0  0  0  0
 31 39  1  0  0  0  0
 31 32  2  0  0  0  0
  8  9  1  0  0  0  0
  9 17  1  0  0  0  0
  9 10  2  0  0  0  0
 18 19  1  0  0  0  0
 19 29  1  0  0  0  0
 19 20  2  0  0  0  0
 21 22  1  0  0  0  0
 22 23  1  0  0  0  0
 22 24  2  0  0  0  0
 30 33  1  0  0  0  0
  8 11  1  0  0  0  0
 39 40  1  0  0  0  0
 18 21  1  0  0  0  0
 29 30  1  0  0  0  0
  7  8  1  0  0  0  0
 17 18  1  0  0  0  0
  3  4  1  0  0  0  0
  3  5  1  0  0  0  0
  3  6  1  0  0  0  0
 33 36  1  0  0  0  0
 33 37  1  0  0  0  0
 33 38  1  0  0  0  0
 11 14  1  0  0  0  0
 11 15  1  0  0  0  0
 11 16  1  0  0  0  0
 40 42  1  0  0  0  0
 40 43  1  0  0  0  0
 40 44  1  0  0  0  0
 21 27  1  0  0  0  0
 21 28  1  0  0  0  0
 30 35  1  0  0  0  0
  8 13  1  0  0  0  0
 18 26  1  0  0  0  0
 39 41  1  0  0  0  0
  7 12  1  0  0  0  0
 29 34  1  0  0  0  0
 17 25  1  0  0  0  0
M  CHG  1  23  -1
M  END
$$$$

  -OEChem-05262214473D

 44 43  0     1  0  0  0  0  0999 V2000
   -4.0256   -1.8030   -2.1581 C   0  0  0  0  0  0  0  0  0  0  0  0
   -3.7513   -2.6782   -2.9709 O   0  0  0  0  0  0  0  0  0  0  0  0
   -5.3491   -1.1169   -2.2339 C   0  0  0  0  0  0  0  0  0  0  0  0
   -5.3223   -0.2211   -2.8750 H   0  0  0  0  0  0  0  0  0  0  0  0
   -6.1322   -1.7605   -2.6658 H   0  0  0  0  0  0  0  0  0  0  0  0
   -5.7568   -0.7715   -1.2704 H   0  0  0  0  0  0  0  0  0  0  0  0
   -3.2124   -1.3578   -1.1289 N   0  0  0  0  0  0  0  0  0  0  0  0
   -1.8971   -1.8843   -0.8752 C   0  0  2  0  0  0  0  0  0  0  0  0
   -1.2676   -1.0599    0.2399 C   0  0  0  0  0  0  0  0  0  0  0  0
   -1.6270    0.0833    0.5138 O   0  0  0  0  0  0  0  0  0  0  0  0
   -1.0364   -1.8506   -2.1285 C   0  0  0  0  0  0  0  0  0  0  0  0
   -3.5631   -0.6202   -0.5206 H   0  0  0  0  0  0  0  0  0  0  0  0
   -2.0301   -2.9174   -0.5360 H   0  0  0  0  0  0  0  0  0  0  0  0
   -0.8921   -0.8236   -2.4833 H   0  0  0  0  0  0  0  0  0  0  0  0
   -0.0457   -2.2777   -1.9410 H   0  0  0  0  0  0  0  0  0  0  0  0
   -1.5052   -2.4193   -2.9387 H   0  0  0  0  0  0  0  0  0  0  0  0
   -0.2267   -1.7335    0.8672 N   0  0  0  0  0  0  0  0  0  0  0  0
    0.5363   -1.1590    1.9465 C   0  0  2  0  0  0  0  0  0  0  0  0
    1.4758   -0.1267    1.3339 C   0  0  0  0  0  0  0  0  0  0  0  0
    2.4612    0.3150    1.9213 O   0  0  0  0  0  0  0  0  0  0  0  0
    1.3279   -2.2188    2.7091 C   0  0  0  0  0  0  0  0  0  0  0  0
    0.5093   -3.2116    3.5443 C   0  0  0  0  0  0  0  0  0  0  0  0
   -0.5842   -2.7442    3.9763 O   0  5  0  0  0  0  0  0  0  0  0  0
    1.0104   -4.3569    3.7124 O   0  0  0  0  0  0  0  0  0  0  0  0
   -0.0113   -2.6869    0.5854 H   0  0  0  0  0  0  0  0  0  0  0  0
   -0.1792   -0.6505    2.6026 H   0  0  0  0  0  0  0  0  0  0  0  0
    2.0499   -1.7304    3.3778 H   0  0  0  0  0  0  0  0  0  0  0  0
    1.9161   -2.8197    2.0033 H   0  0  0  0  0  0  0  0  0  0  0  0
    1.1131    0.2032    0.0354 N   0  0  0  0  0  0  0  0  0  0  0  0
    1.8628    1.1366   -0.7728 C   0  0  2  0  0  0  0  0  0  0  0  0
    0.8875    1.8353   -1.7109 C   0  0  0  0  0  0  0  0  0  0  0  0
   -0.2009    1.3576   -2.0241 O   0  0  0  0  0  0  0  0  0  0  0  0
    2.9607    0.4333   -1.5555 C   0  0  0  0  0  0  0  0  0  0  0  0
    0.3080   -0.2486   -0.3882 H   0  0  0  0  0  0  0  0  0  0  0  0
    2.2990    1.8702   -0.0861 H   0  0  0  0  0  0  0  0  0  0  0  0
    2.5428   -0.3056   -2.2488 H   0  0  0  0  0  0  0  0  0  0  0  0
    3.5462    1.1461   -2.1455 H   0  0  0  0  0  0  0  0  0  0  0  0
    3.6442   -0.0934   -0.8807 H   0  0  0  0  0  0  0  0  0  0  0  0
    1.3940    3.0348   -2.1913 N   0  0  0  0  0  0  0  0  0  0  0  0
    0.6633    3.8783   -3.1081 C   0  0  0  0  0  0  0  0  0  0  0  0
    2.2977    3.3627   -1.8634 H   0  0  0  0  0  0  0  0  0  0  0  0
    0.9388    3.6222   -4.1418 H   0  0  0  0  0  0  0  0  0  0  0  0
   -0.4166    3.7232   -2.9674 H   0  0  0  0  0  0  0  0  0  0  0  0
    0.9108    4.9322   -2.9132 H   0  0  0  0  0  0  0  0  0  0  0  0
  1  3  1  0  0  0  0
  1  7  1  0  0  0  0
  1  2  2  0  0  0  0
 30 31  1  0  0  0  0
 31 39  1  0  0  0  0
 31 32  2  0  0  0  0
  8  9  1  0  0  0  0
  9 17  1  0  0  0  0
  9 10  2  0  0  0  0
 18 19  1  0  0  0  0
 19 29  1  0  0  0  0
 19 20  2  0  0  0  0
 21 22  1  0  0  0  0
 22 23  1  0  0  0  0
 22 24  2  0  0  0  0
 30 33  1  0  0  0  0
  8 11  1  0  0  0  0
 39 40  1  0  0  0  0
 18 21  1  0  0  0  0
 29 30  1  0  0  0  0
  7  8  1  0  0  0  0
 17 18  1  0  0  0  0
  3  4  1  0  0  0  0
  3  5  1  0  0  0  0
  3  6  1  0  0  0  0
 33 36  1  0  0  0  0
 33 37  1  0  0  0  0
 33 38  1  0  0  0  0
 11 14  1  0  0  0  0
 11 15  1  0  0  0  0
 11 16  1  0  0  0  0
 40 42  1  0  0  0  0
 40 43  1  0  0  0  0
 40 44  1  0  0  0  0
 21 27  1  0  0  0  0
 21 28  1  0  0  0  0
 30 35  1  0  0  0  0
  8 13  1  0  0  0  0
 18 26  1  0  0  0  0
 39 41  1  0  0  0  0
  7 12  1  0  0  0  0
 29 34  1  0  0  0  0
 17 25  1  0  0  0  0
M  CHG  1  23  -1
M  END
$$$$

  -OEChem-05262214473D

 44 43  0     1  0  0  0  0  0999 V2000
   -4.0256   -1.8030   -2.1581 C   0  0  0  0  0  0  0  0  0  0  0  0
   -3.7513   -2.6782   -2.9709 O   0  0  0  0  0  0  0  0  0  0  0  0
   -5.3491   -1.1169   -2.2339 C   0  0  0  0  0  0  0  0  0  0  0  0
   -5.3223   -0.2211   -2.8750 H   0  0  0  0  0  0  0  0  0  0  0  0
   -6.1322   -1.7605   -2.6658 H   0  0  0  0  0  0  0  0  0  0  0  0
   -5.7568   -0.7715   -1.2704 H   0  0  0  0  0  0  0  0  0  0  0  0
   -3.2124   -1.3578   -1.1289 N   0  0  0  0  0  0  0  0  0  0  0  0
   -1.8971   -1.8843   -0.8752 C   0  0  2  0  0  0  0  0  0  0  0  0
   -1.2676   -1.0599    0.2399 C   0  0  0  0  0  0  0  0  0  0  0  0
   -1.6270    0.0833    0.5138 O   0  0  0  0  0  0  0  0  0  0  0  0
   -1.0364   -1.8506   -2.1285 C   0  0  0  0  0  0  0  0  0  0  0  0
   -3.5631   -0.6202   -0.5206 H   0  0  0  0  0  0  0  0  0  0  0  0
   -2.0301   -2.9174   -0.5360 H   0  0  0  0  0  0  0  0  0  0  0  0
   -0.8921   -0.8236   -2.4833 H   0  0  0  0  0  0  0  0  0  0  0  0
   -0.0457   -2.2777   -1.9410 H   0  0  0  0  0  0  0  0  0  0  0  0
   -1.5052   -2.4193   -2.9387 H   0  0  0  0  0  0  0  0  0  0  0  0
   -0.2267   -1.7335    0.8672 N   0  0  0  0  0  0  0  0  0  0  0  0
    0.5363   -1.1590    1.9465 C   0  0  2  0  0  0  0  0  0  0  0  0
    1.4758   -0.1267    1.3339 C   0  0  0  0  0  0  0  0  0  0  0  0
    2.5906    0.1193    1.7898 O   0  0  0  0  0  0  0  0  0  0  0  0
    1.3279   -2.2188    2.7091 C   0  0  0  0  0  0  0  0  0  0  0  0
    0.5093   -3.2116    3.5443 C   0  0  0  0  0  0  0  0  0  0  0  0
   -0.5842   -2.7442    3.9763 O   0  5  0  0  0  0  0  0  0  0  0  0
    1.0104   -4.3569    3.7124 O   0  0  0  0  0  0  0  0  0  0  0  0
   -0.0113   -2.6869    0.5854 H   0  0  0  0  0  0  0  0  0  0  0  0
   -0.1792   -0.6505    2.6026 H   0  0  0  0  0  0  0  0  0  0  0  0
    2.0499   -1.7304    3.3778 H   0  0  0  0  0  0  0  0  0  0  0  0
    1.9161   -2.8197    2.0033 H   0  0  0  0  0  0  0  0  0  0  0  0
    0.9432    0.4489    0.1887 N   0  0  0  0  0  0  0  0  0  0  0  0
    1.6525    1.4341   -0.5939 C   0  0  2  0  0  0  0  0  0  0  0  0
    0.6240    2.3659   -1.2211 C   0  0  0  0  0  0  0  0  0  0  0  0
   -0.5503    2.0476   -1.3971 O   0  0  0  0  0  0  0  0  0  0  0  0
    2.5135    0.7774   -1.6616 C   0  0  0  0  0  0  0  0  0  0  0  0
    0.0310    0.1492   -0.1428 H   0  0  0  0  0  0  0  0  0  0  0  0
    2.2808    1.9992    0.1033 H   0  0  0  0  0  0  0  0  0  0  0  0
    1.9014    0.2066   -2.3694 H   0  0  0  0  0  0  0  0  0  0  0  0
    3.0725    1.5240   -2.2352 H   0  0  0  0  0  0  0  0  0  0  0  0
    3.2328    0.0851   -1.2108 H   0  0  0  0  0  0  0  0  0  0  0  0
    1.1814    3.5789   -1.6006 N   0  0  0  0  0  0  0  0  0  0  0  0
    0.4129    4.6272   -2.2302 C   0  0  0  0  0  0  0  0  0  0  0  0
    2.1595    3.7642   -1.3988 H   0  0  0  0  0  0  0  0  0  0  0  0
    0.4798    4.5256   -3.3234 H   0  0  0  0  0  0  0  0  0  0  0  0
   -0.6391    4.5482   -1.9184 H   0  0  0  0  0  0  0  0  0  0  0  0
    0.8123    5.6065   -1.9280 H   0  0  0  0  0  0  0  0  0  0  0  0
  1  3  1  0  0  0  0
  1  7  1  0  0  0  0
  1  2  2  0  0  0  0
 30 31  1  0  0  0  0
 31 39  1  0  0  0  0
 31 32  2  0  0  0  0
  8  9  1  0  0  0  0
  9 17  1  0  0  0  0
  9 10  2  0  0  0  0
 18 19  1  0  0  0  0
 19 29  1  0  0  0  0
 19 20  2  0  0  0  0
 21 22  1  0  0  0  0
 22 23  1  0  0  0  0
 22 24  2  0  0  0  0
 30 33  1  0  0  0  0
  8 11  1  0  0  0  0
 39 40  1  0  0  0  0
 18 21  1  0  0  0  0
 29 30  1  0  0  0  0
  7  8  1  0  0  0  0
 17 18  1  0  0  0  0
  3  4  1  0  0  0  0
  3  5  1  0  0  0  0
  3  6  1  0  0  0  0
 33 36  1  0  0  0  0
 33 37  1  0  0  0  0
 33 38  1  0  0  0  0
 11 14  1  0  0  0  0
 11 15  1  0  0  0  0
 11 16  1  0  0  0  0
 40 42  1  0  0  0  0
 40 43  1  0  0  0  0
 40 44  1  0  0  0  0
 21 27  1  0  0  0  0
 21 28  1  0  0  0  0
 30 35  1  0  0  0  0
  8 13  1  0  0  0  0
 18 26  1  0  0  0  0
 39 41  1  0  0  0  0
  7 12  1  0  0  0  0
 29 34  1  0  0  0  0
 17 25  1  0  0  0  0
M  CHG  1  23  -1
M  END
$$$$

  -OEChem-05262214473D

 44 43  0     1  0  0  0  0  0999 V2000
   -4.0256   -1.8030   -2.1581 C   0  0  0  0  0  0  0  0  0  0  0  0
   -3.7513   -2.6782   -2.9709 O   0  0  0  0  0  0  0  0  0  0  0  0
   -5.3491   -1.1169   -2.2339 C   0  0  0  0  0  0  0  0  0  0  0  0
   -5.3223   -0.2211   -2.8750 H   0  0  0  0  0  0  0  0  0  0  0  0
   -6.1322   -1.7605   -2.6658 H   0  0  0  0  0  0  0  0  0  0  0  0
   -5.7568   -0.7715   -1.2704 H   0  0  0  0  0  0  0  0  0  0  0  0
   -3.2124   -1.3578   -1.1289 N   0  0  0  0  0  0  0  0  0  0  0  0
   -1.8971   -1.8843   -0.8752 C   0  0  2  0  0  0  0  0  0  0  0  0
   -1.2676   -1.0599    0.2399 C   0  0  0  0  0  0  0  0  0  0  0  0
   -1.6270    0.0833    0.5138 O   0  0  0  0  0  0  0  0  0  0  0  0
   -1.0364   -1.8506   -2.1285 C   0  0  0  0  0  0  0  0  0  0  0  0
   -3.5631   -0.6202   -0.5206 H   0  0  0  0  0  0  0  0  0  0  0  0
   -2.0301   -2.9174   -0.5360 H   0  0  0  0  0  0  0  0  0  0  0  0
   -0.8921   -0.8236   -2.4833 H   0  0  0  0  0  0  0  0  0  0  0  0
   -0.0457   -2.2777   -1.9410 H   0  0  0  0  0  0  0  0  0  0  0  0
   -1.5052   -2.4193   -2.9387 H   0  0  0  0  0  0  0  0  0  0  0  0
   -0.2267   -1.7335    0.8672 N   0  0  0  0  0  0  0  0  0  0  0  0
    0.5363   -1.1590    1.9465 C   0  0  2  0  0  0  0  0  0  0  0  0
    1.4758   -0.1267    1.3339 C   0  0  0  0  0  0  0  0  0  0  0  0
    2.6722   -0.0623    1.6090 O   0  0  0  0  0  0  0  0  0  0  0  0
    1.3279   -2.2188    2.7091 C   0  0  0  0  0  0  0  0  0  0  0  0
    0.5093   -3.2116    3.5443 C   0  0  0  0  0  0  0  0  0  0  0  0
   -0.5842   -2.7442    3.9763 O   0  5  0  0  0  0  0  0  0  0  0  0
    1.0104   -4.3569    3.7124 O   0  0  0  0  0  0  0  0  0  0  0  0
   -0.0113   -2.6869    0.5854 H   0  0  0  0  0  0  0  0  0  0  0  0
   -0.1792   -0.6505    2.6026 H   0  0  0  0  0  0  0  0  0  0  0  0
    2.0499   -1.7304    3.3778 H   0  0  0  0  0  0  0  0  0  0  0  0
    1.9161   -2.8197    2.0033 H   0  0  0  0  0  0  0  0  0  0  0  0
    0.8314    0.6794    0.4058 N   0  0  0  0  0  0  0  0  0  0  0  0
    1.5117    1.7149   -0.3367 C   0  0  2  0  0  0  0  0  0  0  0  0
    0.5104    2.8277   -0.6171 C   0  0  0  0  0  0  0  0  0  0  0  0
   -0.7060    2.6504   -0.6202 O   0  0  0  0  0  0  0  0  0  0  0  0
    2.0987    1.1731   -1.6308 C   0  0  0  0  0  0  0  0  0  0  0  0
   -0.1523    0.5231    0.2063 H   0  0  0  0  0  0  0  0  0  0  0  0
    2.3099    2.0954    0.3099 H   0  0  0  0  0  0  0  0  0  0  0  0
    1.3139    0.7874   -2.2917 H   0  0  0  0  0  0  0  0  0  0  0  0
    2.6384    1.9526   -2.1786 H   0  0  0  0  0  0  0  0  0  0  0  0
    2.7962    0.3529   -1.4291 H   0  0  0  0  0  0  0  0  0  0  0  0
    1.1362    4.0323   -0.9059 N   0  0  0  0  0  0  0  0  0  0  0  0
    0.4028    5.2365   -1.2188 C   0  0  0  0  0  0  0  0  0  0  0  0
    2.1492    4.0923   -0.8617 H   0  0  0  0  0  0  0  0  0  0  0  0
    0.2739    5.3153   -2.3084 H   0  0  0  0  0  0  0  0  0  0  0  0
   -0.5842    5.2008   -0.7346 H   0  0  0  0  0  0  0  0  0  0  0  0
    0.9600    6.1109   -0.8515 H   0  0  0  0  0  0  0  0  0  0  0  0
  1  3  1  0  0  0  0
  1  7  1  0  0  0  0
  1  2  2  0  0  0  0
 30 31  1  0  0  0  0
 31 39  1  0  0  0  0
 31 32  2  0  0  0  0
  8  9  1  0  0  0  0
  9 17  1  0  0  0  0
  9 10  2  0  0  0  0
 18 19  1  0  0  0  0
 19 29  1  0  0  0  0
 19 20  2  0  0  0  0
 21 22  1  0  0  0  0
 22 23  1  0  0  0  0
 22 24  2  0  0  0  0
 30 33  1  0  0  0  0
  8 11  1  0  0  0  0
 39 40  1  0  0  0  0
 18 21  1  0  0  0  0
 29 30  1  0  0  0  0
  7  8  1  0  0  0  0
 17 18  1  0  0  0  0
  3  4  1  0  0  0  0
  3  5  1  0  0  0  0
  3  6  1  0  0  0  0
 33 36  1  0  0  0  0
 33 37  1  0  0  0  0
 33 38  1  0  0  0  0
 11 14  1  0  0  0  0
 11 15  1  0  0  0  0
 11 16  1  0  0  0  0
 40 42  1  0  0  0  0
 40 43  1  0  0  0  0
 40 44  1  0  0  0  0
 21 27  1  0  0  0  0
 21 28  1  0  0  0  0
 30 35  1  0  0  0  0
  8 13  1  0  0  0  0
 18 26  1  0  0  0  0
 39 41  1  0  0  0  0
  7 12  1  0  0  0  0
 29 34  1  0  0  0  0
 17 25  1  0  0  0  0
M  CHG  1  23  -1
M  END
$$$$

  -OEChem-05262214473D

 44 43  0     1  0  0  0  0  0999 V2000
   -4.0256   -1.8030   -2.1581 C   0  0  0  0  0  0  0  0  0  0  0  0
   -3.7513   -2.6782   -2.9709 O   0  0  0  0  0  0  0  0  0  0  0  0
   -5.3491   -1.1169   -2.2339 C   0  0  0  0  0  0  0  0  0  0  0  0
   -5.3223   -0.2211   -2.8750 H   0  0  0  0  0  0  0  0  0  0  0  0
   -6.1322   -1.7605   -2.6658 H   0  0  0  0  0  0  0  0  0  0  0  0
   -5.7568   -0.7715   -1.2704 H   0  0  0  0  0  0  0  0  0  0  0  0
   -3.2124   -1.3578   -1.1289 N   0  0  0  0  0  0  0  0  0  0  0  0
   -1.8971   -1.8843   -0.8752 C   0  0  2  0  0  0  0  0  0  0  0  0
   -1.2676   -1.0599    0.2399 C   0  0  0  0  0  0  0  0  0  0  0  0
   -1.6270    0.0833    0.5138 O   0  0  0  0  0  0  0  0  0  0  0  0
   -1.0364   -1.8506   -2.1285 C   0  0  0  0  0  0  0  0  0  0  0  0
   -3.5631   -0.6202   -0.5206 H   0  0  0  0  0  0  0  0  0  0  0  0
   -2.0301   -2.9174   -0.5360 H   0  0  0  0  0  0  0  0  0  0  0  0
   -0.8921   -0.8236   -2.4833 H   0  0  0  0  0  0  0  0  0  0  0  0
   -0.0457   -2.2777   -1.9410 H   0  0  0  0  0  0  0  0  0  0  0  0
   -1.5052   -2.4193   -2.9387 H   0  0  0  0  0  0  0  0  0  0  0  0
   -0.2267   -1.7335    0.8672 N   0  0  0  0  0  0  0  0  0  0  0  0
    0.5363   -1.1590    1.9465 C   0  0  2  0  0  0  0  0  0  0  0  0
    1.4758   -0.1267    1.3339 C   0  0  0  0  0  0  0  0  0  0  0  0
    2.7004   -0.2174    1.3910 O   0  0  0  0  0  0  0  0  0  0  0  0
    1.3279   -2.2188    2.7091 C   0  0  0  0  0  0  0  0  0  0  0  0
    0.5093   -3.2116    3.5443 C   0  0  0  0  0  0  0  0  0  0  0  0
   -0.5842   -2.7442    3.9763 O   0  5  0  0  0  0  0  0  0  0  0  0
    1.0104   -4.3569    3.7124 O   0  0  0  0  0  0  0  0  0  0  0  0
   -0.0113   -2.6869    0.5854 H   0  0  0  0  0  0  0  0  0  0  0  0
   -0.1792   -0.6505    2.6026 H   0  0  0  0  0  0  0  0  0  0  0  0
    2.0499   -1.7304    3.3778 H   0  0  0  0  0  0  0  0  0  0  0  0
    1.9161   -2.8197    2.0033 H   0  0  0  0  0  0  0  0  0  0  0  0
    0.7855    0.8790    0.6718 N   0  0  0  0  0  0  0  0  0  0  0  0
    1.4500    1.9597   -0.0189 C   0  0  2  0  0  0  0  0  0  0  0  0
    0.5546    3.1892    0.0599 C   0  0  0  0  0  0  0  0  0  0  0  0
   -0.6576    3.1249    0.2537 O   0  0  0  0  0  0  0  0  0  0  0  0
    1.7446    1.5936   -1.4653 C   0  0  0  0  0  0  0  0  0  0  0  0
   -0.2291    0.8476    0.6353 H   0  0  0  0  0  0  0  0  0  0  0  0
    2.3841    2.1523    0.5198 H   0  0  0  0  0  0  0  0  0  0  0  0
    0.8205    1.3970   -2.0210 H   0  0  0  0  0  0  0  0  0  0  0  0
    2.2737    2.4028   -1.9794 H   0  0  0  0  0  0  0  0  0  0  0  0
    2.3640    0.6919   -1.5206 H   0  0  0  0  0  0  0  0  0  0  0  0
    1.2615    4.3641   -0.1547 N   0  0  0  0  0  0  0  0  0  0  0  0
    0.6337    5.6648   -0.1430 C   0  0  0  0  0  0  0  0  0  0  0  0
    2.2675    4.3246   -0.2888 H   0  0  0  0  0  0  0  0  0  0  0  0
    0.3351    5.9376   -1.1659 H   0  0  0  0  0  0  0  0  0  0  0  0
   -0.2559    5.6366    0.5034 H   0  0  0  0  0  0  0  0  0  0  0  0
    1.3438    6.4110    0.2429 H   0  0  0  0  0  0  0  0  0  0  0  0
  1  3  1  0  0  0  0
  1  7  1  0  0  0  0
  1  2  2  0  0  0  0
 30 31  1  0  0  0  0
 31 39  1  0  0  0  0
 31 32  2  0  0  0  0
  8  9  1  0  0  0  0
  9 17  1  0  0  0  0
  9 10  2  0  0  0  0
 18 19  1  0  0  0  0
 19 29  1  0  0  0  0
 19 20  2  0  0  0  0
 21 22  1  0  0  0  0
 22 23  1  0  0  0  0
 22 24  2  0  0  0  0
 30 33  1  0  0  0  0
  8 11  1  0  0  0  0
 39 40  1  0  0  0  0
 18 21  1  0  0  0  0
 29 30  1  0  0  0  0
  7  8  1  0  0  0  0
 17 18  1  0  0  0  0
  3  4  1  0  0  0  0
  3  5  1  0  0  0  0
  3  6  1  0  0  0  0
 33 36  1  0  0  0  0
 33 37  1  0  0  0  0
 33 38  1  0  0  0  0
 11 14  1  0  0  0  0
 11 15  1  0  0  0  0
 11 16  1  0  0  0  0
 40 42  1  0  0  0  0
 40 43  1  0  0  0  0
 40 44  1  0  0  0  0
 21 27  1  0  0  0  0
 21 28  1  0  0  0  0
 30 35  1  0  0  0  0
  8 13  1  0  0  0  0
 18 26  1  0  0  0  0
 39 41  1  0  0  0  0
  7 12  1  0  0  0  0
 29 34  1  0  0  0  0
 17 25  1  0  0  0  0
M  CHG  1  23  -1
M  END
$$$$

  -OEChem-05262214473D

 44 43  0     1  0  0  0  0  0999 V2000
   -4.0256   -1.8030   -2.1581 C   0  0  0  0  0  0  0  0  0  0  0  0
   -3.7513   -2.6782   -2.9709 O   0  0  0  0  0  0  0  0  0  0  0  0
   -5.3491   -1.1169   -2.2339 C   0  0  0  0  0  0  0  0  0  0  0  0
   -5.3223   -0.2211   -2.8750 H   0  0  0  0  0  0  0  0  0  0  0  0
   -6.1322   -1.7605   -2.6658 H   0  0  0  0  0  0  0  0  0  0  0  0
   -5.7568   -0.7715   -1.2704 H   0  0  0  0  0  0  0  0  0  0  0  0
   -3.2124   -1.3578   -1.1289 N   0  0  0  0  0  0  0  0  0  0  0  0
   -1.8971   -1.8843   -0.8752 C   0  0  2  0  0  0  0  0  0  0  0  0
   -1.2676   -1.0599    0.2399 C   0  0  0  0  0  0  0  0  0  0  0  0
   -1.6270    0.0833    0.5138 O   0  0  0  0  0  0  0  0  0  0  0  0
   -1.0364   -1.8506   -2.1285 C   0  0  0  0  0  0  0  0  0  0  0  0
   -3.5631   -0.6202   -0.5206 H   0  0  0  0  0  0  0  0  0  0  0  0
   -2.0301   -2.9174   -0.5360 H   0  0  0  0  0  0  0  0  0  0  0  0
   -0.8921   -0.8236   -2.4833 H   0  0  0  0  0  0  0  0  0  0  0  0
   -0.0457   -2.2777   -1.9410 H   0  0  0  0  0  0  0  0  0  0  0  0
   -1.5052   -2.4193   -2.9387 H   0  0  0  0  0  0  0  0  0  0  0  0
   -0.2267   -1.7335    0.8672 N   0  0  0  0  0  0  0  0  0  0  0  0
    0.5363   -1.1590    1.9465 C   0  0  2  0  0  0  0  0  0  0  0  0
    1.4758   -0.1267    1.3339 C   0  0  0  0  0  0  0  0  0  0  0  0
    2.6734   -0.3353    1.1507 O   0  0  0  0  0  0  0  0  0  0  0  0
    1.3279   -2.2188    2.7091 C   0  0  0  0  0  0  0  0  0  0  0  0
    0.5093   -3.2116    3.5443 C   0  0  0  0  0  0  0  0  0  0  0  0
   -0.5842   -2.7442    3.9763 O   0  5  0  0  0  0  0  0  0  0  0  0
    1.0104   -4.3569    3.7124 O   0  0  0  0  0  0  0  0  0  0  0  0
   -0.0113   -2.6869    0.5854 H   0  0  0  0  0  0  0  0  0  0  0  0
   -0.1792   -0.6505    2.6026 H   0  0  0  0  0  0  0  0  0  0  0  0
    2.0499   -1.7304    3.3778 H   0  0  0  0  0  0  0  0  0  0  0  0
    1.9161   -2.8197    2.0033 H   0  0  0  0  0  0  0  0  0  0  0  0
    0.8085    1.0342    0.9686 N   0  0  0  0  0  0  0  0  0  0  0  0
    1.4715    2.1518    0.3379 C   0  0  2  0  0  0  0  0  0  0  0  0
    0.7536    3.4257    0.7637 C   0  0  0  0  0  0  0  0  0  0  0  0
   -0.4082    3.4388    1.1650 O   0  0  0  0  0  0  0  0  0  0  0  0
    1.4753    2.0102   -1.1762 C   0  0  0  0  0  0  0  0  0  0  0  0
   -0.1945    1.1007    1.1148 H   0  0  0  0  0  0  0  0  0  0  0  0
    2.4986    2.1661    0.7186 H   0  0  0  0  0  0  0  0  0  0  0  0
    0.4548    1.9940   -1.5759 H   0  0  0  0  0  0  0  0  0  0  0  0
    2.0031    2.8437   -1.6513 H   0  0  0  0  0  0  0  0  0  0  0  0
    1.9658    1.0789   -1.4793 H   0  0  0  0  0  0  0  0  0  0  0  0
    1.5486    4.5518    0.6019 N   0  0  0  0  0  0  0  0  0  0  0  0
    1.0899    5.8829    0.9240 C   0  0  0  0  0  0  0  0  0  0  0  0
    2.5064    4.4453    0.2809 H   0  0  0  0  0  0  0  0  0  0  0  0
    0.6591    6.3501    0.0262 H   0  0  0  0  0  0  0  0  0  0  0  0
    0.3236    5.8260    1.7111 H   0  0  0  0  0  0  0  0  0  0  0  0
    1.9376    6.4864    1.2805 H   0  0  0  0  0  0  0  0  0  0  0  0
  1  3  1  0  0  0  0
  1  7  1  0  0  0  0
  1  2  2  0  0  0  0
 30 31  1  0  0  0  0
 31 39  1  0  0  0  0
 31 32  2  0  0  0  0
  8  9  1  0  0  0  0
  9 17  1  0  0  0  0
  9 10  2  0  0  0  0
 18 19  1  0  0  0  0
 19 29  1  0  0  0  0
 19 20  2  0  0  0  0
 21 22  1  0  0  0  0
 22 23  1  0  0  0  0
 22 24  2  0  0  0  0
 30 33  1  0  0  0  0
  8 11  1  0  0  0  0
 39 40  1  0  0  0  0
 18 21  1  0  0  0  0
 29 30  1  0  0  0  0
  7  8  1  0  0  0  0
 17 18  1  0  0  0  0
  3  4  1  0  0  0  0
  3  5  1  0  0  0  0
  3  6  1  0  0  0  0
 33 36  1  0  0  0  0
 33 37  1  0  0  0  0
 33 38  1  0  0  0  0
 11 14  1  0  0  0  0
 11 15  1  0  0  0  0
 11 16  1  0  0  0  0
 40 42  1  0  0  0  0
 40 43  1  0  0  0  0
 40 44  1  0  0  0  0
 21 27  1  0  0  0  0
 21 28  1  0  0  0  0
 30 35  1  0  0  0  0
  8 13  1  0  0  0  0
 18 26  1  0  0  0  0
 39 41  1  0  0  0  0
  7 12  1  0  0  0  0
 29 34  1  0  0  0  0
 17 25  1  0  0  0  0
M  CHG  1  23  -1
M  END
$$$$

  -OEChem-05262214473D

 44 43  0     1  0  0  0  0  0999 V2000
   -4.0256   -1.8030   -2.1581 C   0  0  0  0  0  0  0  0  0  0  0  0
   -3.7513   -2.6782   -2.9709 O   0  0  0  0  0  0  0  0  0  0  0  0
   -5.3491   -1.1169   -2.2339 C   0  0  0  0  0  0  0  0  0  0  0  0
   -5.3223   -0.2211   -2.8750 H   0  0  0  0  0  0  0  0  0  0  0  0
   -6.1322   -1.7605   -2.6658 H   0  0  0  0  0  0  0  0  0  0  0  0
   -5.7568   -0.7715   -1.2704 H   0  0  0  0  0  0  0  0  0  0  0  0
   -3.2124   -1.3578   -1.1289 N   0  0  0  0  0  0  0  0  0  0  0  0
   -1.8971   -1.8843   -0.8752 C   0  0  2  0  0  0  0  0  0  0  0  0
   -1.2676   -1.0599    0.2399 C   0  0  0  0  0  0  0  0  0  0  0  0
   -1.6270    0.0833    0.5138 O   0  0  0  0  0  0  0  0  0  0  0  0
   -1.0364   -1.8506   -2.1285 C   0  0  0  0  0  0  0  0  0  0  0  0
   -3.5631   -0.6202   -0.5206 H   0  0  0  0  0  0  0  0  0  0  0  0
   -2.0301   -2.9174   -0.5360 H   0  0  0  0  0  0  0  0  0  0  0  0
   -0.8921   -0.8236   -2.4833 H   0  0  0  0  0  0  0  0  0  0  0  0
   -0.0457   -2.2777   -1.9410 H   0  0  0  0  0  0  0  0  0  0  0  0
   -1.5052   -2.4193   -2.9387 H   0  0  0  0  0  0  0  0  0  0  0  0
   -0.2267   -1.7335    0.8672 N   0  0  0  0  0  0  0  0  0  0  0  0
    0.5363   -1.1590    1.9465 C   0  0  2  0  0  0  0  0  0  0  0  0
    1.4758   -0.1267    1.3339 C   0  0  0  0  0  0  0  0  0  0  0  0
    2.5928   -0.4081    0.9046 O   0  0  0  0  0  0  0  0  0  0  0  0
    1.3279   -2.2188    2.7091 C   0  0  0  0  0  0  0  0  0  0  0  0
    0.5093   -3.2116    3.5443 C   0  0  0  0  0  0  0  0  0  0  0  0
   -0.5842   -2.7442    3.9763 O   0  5  0  0  0  0  0  0  0  0  0  0
    1.0104   -4.3569    3.7124 O   0  0  0  0  0  0  0  0  0  0  0  0
   -0.0113   -2.6869    0.5854 H   0  0  0  0  0  0  0  0  0  0  0  0
   -0.1792   -0.6505    2.6026 H   0  0  0  0  0  0  0  0  0  0  0  0
    2.0499   -1.7304    3.3778 H   0  0  0  0  0  0  0  0  0  0  0  0
    1.9161   -2.8197    2.0033 H   0  0  0  0  0  0  0  0  0  0  0  0
    0.8990    1.1344    1.2761 N   0  0  0  0  0  0  0  0  0  0  0  0
    1.5748    2.2783    0.7095 C   0  0  2  0  0  0  0  0  0  0  0  0
    1.0937    3.5213    1.4464 C   0  0  0  0  0  0  0  0  0  0  0  0
    0.0250    3.5707    2.0517 O   0  0  0  0  0  0  0  0  0  0  0  0
    1.3092    2.3945   -0.7834 C   0  0  0  0  0  0  0  0  0  0  0  0
   -0.0506    1.2650    1.6123 H   0  0  0  0  0  0  0  0  0  0  0  0
    2.6454    2.1359    0.8927 H   0  0  0  0  0  0  0  0  0  0  0  0
    0.2417    2.5377   -0.9866 H   0  0  0  0  0  0  0  0  0  0  0  0
    1.8452    3.2454   -1.2166 H   0  0  0  0  0  0  0  0  0  0  0  0
    1.6286    1.4875   -1.3078 H   0  0  0  0  0  0  0  0  0  0  0  0
    1.9781    4.5825    1.3124 N   0  0  0  0  0  0  0  0  0  0  0  0
    1.7402    5.8758    1.9096 C   0  0  0  0  0  0  0  0  0  0  0  0
    2.8495    4.4461    0.8085 H   0  0  0  0  0  0  0  0  0  0  0  0
    1.2240    6.5247    1.1867 H   0  0  0  0  0  0  0  0  0  0  0  0
    1.1147    5.7560    2.8064 H   0  0  0  0  0  0  0  0  0  0  0  0
    2.7008    6.3320    2.1908 H   0  0  0  0  0  0  0  0  0  0  0  0
  1  3  1  0  0  0  0
  1  7  1  0  0  0  0
  1  2  2  0  0  0  0
 30 31  1  0  0  0  0
 31 39  1  0  0  0  0
 31 32  2  0  0  0  0
  8  9  1  0  0  0  0
  9 17  1  0  0  0  0
  9 10  2  0  0  0  0
 18 19  1  0  0  0  0
 19 29  1  0  0  0  0
 19 20  2  0  0  0  0
 21 22  1  0  0  0  0
 22 23  1  0  0  0  0
 22 24  2  0  0  0  0
 30 33  1  0  0  0  0
  8 11  1  0  0  0  0
 39 40  1  0  0  0  0
 18 21  1  0  0  0  0
 29 30  1  0  0  0  0
  7  8  1  0  0  0  0
 17 18  1  0  0  0  0
  3  4  1  0  0  0  0
  3  5  1  0  0  0  0
  3  6  1  0  0  0  0
 33 36  1  0  0  0  0
 33 37  1  0  0  0  0
 33 38  1  0  0  0  0
 11 14  1  0  0  0  0
 11 15  1  0  0  0  0
 11 16  1  0  0  0  0
 40 42  1  0  0  0  0
 40 43  1  0  0  0  0
 40 44  1  0  0  0  0
 21 27  1  0  0  0  0
 21 28  1  0  0  0  0
 30 35  1  0  0  0  0
  8 13  1  0  0  0  0
 18 26  1  0  0  0  0
 39 41  1  0  0  0  0
  7 12  1  0  0  0  0
 29 34  1  0  0  0  0
 17 25  1  0  0  0  0
M  CHG  1  23  -1
M  END
$$$$

  -OEChem-05262214473D

 44 43  0     1  0  0  0  0  0999 V2000
   -4.0256   -1.8030   -2.1581 C   0  0  0  0  0  0  0  0  0  0  0  0
   -3.7513   -2.6782   -2.9709 O   0  0  0  0  0  0  0  0  0  0  0  0
   -5.3491   -1.1169   -2.2339 C   0  0  0  0  0  0  0  0  0  0  0  0
   -5.3223   -0.2211   -2.8750 H   0  0  0  0  0  0  0  0  0  0  0  0
   -6.1322   -1.7605   -2.6658 H   0  0  0  0  0  0  0  0  0  0  0  0
   -5.7568   -0.7715   -1.2704 H   0  0  0  0  0  0  0  0  0  0  0  0
   -3.2124   -1.3578   -1.1289 N   0  0  0  0  0  0  0  0  0  0  0  0
   -1.8971   -1.8843   -0.8752 C   0  0  2  0  0  0  0  0  0  0  0  0
   -1.2676   -1.0599    0.2399 C   0  0  0  0  0  0  0  0  0  0  0  0
   -1.6270    0.0833    0.5138 O   0  0  0  0  0  0  0  0  0  0  0  0
   -1.0364   -1.8506   -2.1285 C   0  0  0  0  0  0  0  0  0  0  0  0
   -3.5631   -0.6202   -0.5206 H   0  0  0  0  0  0  0  0  0  0  0  0
   -2.0301   -2.9174   -0.5360 H   0  0  0  0  0  0  0  0  0  0  0  0
   -0.8921   -0.8236   -2.4833 H   0  0  0  0  0  0  0  0  0  0  0  0
   -0.0457   -2.2777   -1.9410 H   0  0  0  0  0  0  0  0  0  0  0  0
   -1.5052   -2.4193   -2.9387 H   0  0  0  0  0  0  0  0  0  0  0  0
   -0.2267   -1.7335    0.8672 N   0  0  0  0  0  0  0  0  0  0  0  0
    0.5363   -1.1590    1.9465 C   0  0  2  0  0  0  0  0  0  0  0  0
    1.4758   -0.1267    1.3339 C   0  0  0  0  0  0  0  0  0  0  0  0
    2.4643   -0.4307    0.6693 O   0  0  0  0  0  0  0  0  0  0  0  0
    1.3279   -2.2188    2.7091 C   0  0  0  0  0  0  0  0  0  0  0  0
    0.5093   -3.2116    3.5443 C   0  0  0  0  0  0  0  0  0  0  0  0
   -0.5842   -2.7442    3.9763 O   0  5  0  0  0  0  0  0  0  0  0  0
    1.0104   -4.3569    3.7124 O   0  0  0  0  0  0  0  0  0  0  0  0
   -0.0113   -2.6869    0.5854 H   0  0  0  0  0  0  0  0  0  0  0  0
   -0.1792   -0.6505    2.6026 H   0  0  0  0  0  0  0  0  0  0  0  0
    2.0499   -1.7304    3.3778 H   0  0  0  0  0  0  0  0  0  0  0  0
    1.9161   -2.8197    2.0033 H   0  0  0  0  0  0  0  0  0  0  0  0
    1.0506    1.1726    1.5732 N   0  0  0  0  0  0  0  0  0  0  0  0
    1.7529    2.3304    1.0705 C   0  0  2  0  0  0  0  0  0  0  0  0
    1.5519    3.4693    2.0614 C   0  0  0  0  0  0  0  0  0  0  0  0
    0.6125    3.5116    2.8532 O   0  0  0  0  0  0  0  0  0  0  0  0
    1.2576    2.7203   -0.3135 C   0  0  0  0  0  0  0  0  0  0  0  0
    0.1927    1.3293    2.0939 H   0  0  0  0  0  0  0  0  0  0  0  0
    2.8146    2.0636    1.0304 H   0  0  0  0  0  0  0  0  0  0  0  0
    0.1956    2.9910   -0.2932 H   0  0  0  0  0  0  0  0  0  0  0  0
    1.8105    3.5806   -0.7050 H   0  0  0  0  0  0  0  0  0  0  0  0
    1.3755    1.8899   -1.0179 H   0  0  0  0  0  0  0  0  0  0  0  0
    2.5207    4.4541    1.9282 N   0  0  0  0  0  0  0  0  0  0  0  0
    2.5404    5.6442    2.7464 C   0  0  0  0  0  0  0  0  0  0  0  0
    3.2735    4.3271    1.2582 H   0  0  0  0  0  0  0  0  0  0  0  0
    1.9912    6.4494    2.2365 H   0  0  0  0  0  0  0  0  0  0  0  0
    2.0635    5.4313    3.7145 H   0  0  0  0  0  0  0  0  0  0  0  0
    3.5816    5.9582    2.9116 H   0  0  0  0  0  0  0  0  0  0  0  0
  1  3  1  0  0  0  0
  1  7  1  0  0  0  0
  1  2  2  0  0  0  0
 30 31  1  0  0  0  0
 31 39  1  0  0  0  0
 31 32  2  0  0  0  0
  8  9  1  0  0  0  0
  9 17  1  0  0  0  0
  9 10  2  0  0  0  0
 18 19  1  0  0  0  0
 19 29  1  0  0  0  0
 19 20  2  0  0  0  0
 21 22  1  0  0  0  0
 22 23  1  0  0  0  0
 22 24  2  0  0  0  0
 30 33  1  0  0  0  0
  8 11  1  0  0  0  0
 39 40  1  0  0  0  0
 18 21  1  0  0  0  0
 29 30  1  0  0  0  0
  7  8  1  0  0  0  0
 17 18  1  0  0  0  0
  3  4  1  0  0  0  0
  3  5  1  0  0  0  0
  3  6  1  0  0  0  0
 33 36  1  0  0  0  0
 33 37  1  0  0  0  0
 33 38  1  0  0  0  0
 11 14  1  0  0  0  0
 11 15  1  0  0  0  0
 11 16  1  0  0  0  0
 40 42  1  0  0  0  0
 40 43  1  0  0  0  0
 40 44  1  0  0  0  0
 21 27  1  0  0  0  0
 21 28  1  0  0  0  0
 30 35  1  0  0  0  0
  8 13  1  0  0  0  0
 18 26  1  0  0  0  0
 39 41  1  0  0  0  0
  7 12  1  0  0  0  0
 29 34  1  0  0  0  0
 17 25  1  0  0  0  0
M  CHG  1  23  -1
M  END
$$$$

  -OEChem-05262214473D

 44 43  0     1  0  0  0  0  0999 V2000
   -4.0256   -1.8030   -2.1581 C   0  0  0  0  0  0  0  0  0  0  0  0
   -3.7513   -2.6782   -2.9709 O   0  0  0  0  0  0  0  0  0  0  0  0
   -5.3491   -1.1169   -2.2339 C   0  0  0  0  0  0  0  0  0  0  0  0
   -5.3223   -0.2211   -2.8750 H   0  0  0  0  0  0  0  0  0  0  0  0
   -6.1322   -1.7605   -2.6658 H   0  0  0  0  0  0  0  0  0  0  0  0
   -5.7568   -0.7715   -1.2704 H   0  0  0  0  0  0  0  0  0  0  0  0
   -3.2124   -1.3578   -1.1289 N   0  0  0  0  0  0  0  0  0  0  0  0
   -1.8971   -1.8843   -0.8752 C   0  0  2  0  0  0  0  0  0  0  0  0
   -1.2676   -1.0599    0.2399 C   0  0  0  0  0  0  0  0  0  0  0  0
   -1.6270    0.0833    0.5138 O   0  0  0  0  0  0  0  0  0  0  0  0
   -1.0364   -1.8506   -2.1285 C   0  0  0  0  0  0  0  0  0  0  0  0
   -3.5631   -0.6202   -0.5206 H   0  0  0  0  0  0  0  0  0  0  0  0
   -2.0301   -2.9174   -0.5360 H   0  0  0  0  0  0  0  0  0  0  0  0
   -0.8921   -0.8236   -2.4833 H   0  0  0  0  0  0  0  0  0  0  0  0
   -0.0457   -2.2777   -1.9410 H   0  0  0  0  0  0  0  0  0  0  0  0
   -1.5052   -2.4193   -2.9387 H   0  0  0  0  0  0  0  0  0  0  0  0
   -0.2267   -1.7335    0.8672 N   0  0  0  0  0  0  0  0  0  0  0  0
    0.5363   -1.1590    1.9465 C   0  0  2  0  0  0  0  0  0  0  0  0
    1.4758   -0.1267    1.3339 C   0  0  0  0  0  0  0  0  0  0  0  0
    2.2966   -0.4017    0.4610 O   0  0  0  0  0  0  0  0  0  0  0  0
    1.3279   -2.2188    2.7091 C   0  0  0  0  0  0  0  0  0  0  0  0
    0.5093   -3.2116    3.5443 C   0  0  0  0  0  0  0  0  0  0  0  0
   -0.5842   -2.7442    3.9763 O   0  5  0  0  0  0  0  0  0  0  0  0
    1.0104   -4.3569    3.7124 O   0  0  0  0  0  0  0  0  0  0  0  0
   -0.0113   -2.6869    0.5854 H   0  0  0  0  0  0  0  0  0  0  0  0
   -0.1792   -0.6505    2.6026 H   0  0  0  0  0  0  0  0  0  0  0  0
    2.0499   -1.7304    3.3778 H   0  0  0  0  0  0  0  0  0  0  0  0
    1.9161   -2.8197    2.0033 H   0  0  0  0  0  0  0  0  0  0  0  0
    1.2531    1.1465    1.8397 N   0  0  0  0  0  0  0  0  0  0  0  0
    1.9936    2.3047    1.3963 C   0  0  2  0  0  0  0  0  0  0  0  0
    2.0969    3.2733    2.5670 C   0  0  0  0  0  0  0  0  0  0  0  0
    1.3145    3.2656    3.5150 O   0  0  0  0  0  0  0  0  0  0  0  0
    1.3240    2.9655    0.2014 C   0  0  0  0  0  0  0  0  0  0  0  0
    0.5187    1.2894    2.5267 H   0  0  0  0  0  0  0  0  0  0  0  0
    2.9947    1.9542    1.1222 H   0  0  0  0  0  0  0  0  0  0  0  0
    0.3199    3.3231    0.4569 H   0  0  0  0  0  0  0  0  0  0  0  0
    1.9016    3.8263   -0.1512 H   0  0  0  0  0  0  0  0  0  0  0  0
    1.2237    2.2586   -0.6293 H   0  0  0  0  0  0  0  0  0  0  0  0
    3.1394    4.1755    2.4075 N   0  0  0  0  0  0  0  0  0  0  0  0
    3.4359    5.2037    3.3775 C   0  0  0  0  0  0  0  0  0  0  0  0
    3.7495    4.0963    1.5992 H   0  0  0  0  0  0  0  0  0  0  0  0
    2.9085    6.1295    3.1040 H   0  0  0  0  0  0  0  0  0  0  0  0
    3.1055    4.8742    4.3736 H   0  0  0  0  0  0  0  0  0  0  0  0
    4.5198    5.3906    3.3939 H   0  0  0  0  0  0  0  0  0  0  0  0
  1  3  1  0  0  0  0
  1  7  1  0  0  0  0
  1  2  2  0  0  0  0
 30 31  1  0  0  0  0
 31 39  1  0  0  0  0
 31 32  2  0  0  0  0
  8  9  1  0  0  0  0
  9 17  1  0  0  0  0
  9 10  2  0  0  0  0
 18 19  1  0  0  0  0
 19 29  1  0  0  0  0
 19 20  2  0  0  0  0
 21 22  1  0  0  0  0
 22 23  1  0  0  0  0
 22 24  2  0  0  0  0
 30 33  1  0  0  0  0
  8 11  1  0  0  0  0
 39 40  1  0  0  0  0
 18 21  1  0  0  0  0
 29 30  1  0  0  0  0
  7  8  1  0  0  0  0
 17 18  1  0  0  0  0
  3  4  1  0  0  0  0
  3  5  1  0  0  0  0
  3  6  1  0  0  0  0
 33 36  1  0  0  0  0
 33 37  1  0  0  0  0
 33 38  1  0  0  0  0
 11 14  1  0  0  0  0
 11 15  1  0  0  0  0
 11 16  1  0  0  0  0
 40 42  1  0  0  0  0
 40 43  1  0  0  0  0
 40 44  1  0  0  0  0
 21 27  1  0  0  0  0
 21 28  1  0  0  0  0
 30 35  1  0  0  0  0
  8 13  1  0  0  0  0
 18 26  1  0  0  0  0
 39 41  1  0  0  0  0
  7 12  1  0  0  0  0
 29 34  1  0  0  0  0
 17 25  1  0  0  0  0
M  CHG  1  23  -1
M  END
$$$$

  -OEChem-05262214473D

 44 43  0     1  0  0  0  0  0999 V2000
   -4.0256   -1.8030   -2.1581 C   0  0  0  0  0  0  0  0  0  0  0  0
   -3.7513   -2.6782   -2.9709 O   0  0  0  0  0  0  0  0  0  0  0  0
   -5.3491   -1.1169   -2.2339 C   0  0  0  0  0  0  0  0  0  0  0  0
   -5.3223   -0.2211   -2.8750 H   0  0  0  0  0  0  0  0  0  0  0  0
   -6.1322   -1.7605   -2.6658 H   0  0  0  0  0  0  0  0  0  0  0  0
   -5.7568   -0.7715   -1.2704 H   0  0  0  0  0  0  0  0  0  0  0  0
   -3.2124   -1.3578   -1.1289 N   0  0  0  0  0  0  0  0  0  0  0  0
   -1.8971   -1.8843   -0.8752 C   0  0  2  0  0  0  0  0  0  0  0  0
   -1.2676   -1.0599    0.2399 C   0  0  0  0  0  0  0  0  0  0  0  0
   -1.6270    0.0833    0.5138 O   0  0  0  0  0  0  0  0  0  0  0  0
   -1.0364   -1.8506   -2.1285 C   0  0  0  0  0  0  0  0  0  0  0  0
   -3.5631   -0.6202   -0.5206 H   0  0  0  0  0  0  0  0  0  0  0  0
   -2.0301   -2.9174   -0.5360 H   0  0  0  0  0  0  0  0  0  0  0  0
   -0.8921   -0.8236   -2.4833 H   0  0  0  0  0  0  0  0  0  0  0  0
   -0.0457   -2.2777   -1.9410 H   0  0  0  0  0  0  0  0  0  0  0  0
   -1.5052   -2.4193   -2.9387 H   0  0  0  0  0  0  0  0  0  0  0  0
   -0.2267   -1.7335    0.8672 N   0  0  0  0  0  0  0  0  0  0  0  0
    0.5363   -1.1590    1.9465 C   0  0  2  0  0  0  0  0  0  0  0  0
    1.4758   -0.1267    1.3339 C   0  0  0  0  0  0  0  0  0  0  0  0
    2.1011   -0.3230    0.2938 O   0  0  0  0  0  0  0  0  0  0  0  0
    1.3279   -2.2188    2.7091 C   0  0  0  0  0  0  0  0  0  0  0  0
    0.5093   -3.2116    3.5443 C   0  0  0  0  0  0  0  0  0  0  0  0
   -0.5842   -2.7442    3.9763 O   0  5  0  0  0  0  0  0  0  0  0  0
    1.0104   -4.3569    3.7124 O   0  0  0  0  0  0  0  0  0  0  0  0
   -0.0113   -2.6869    0.5854 H   0  0  0  0  0  0  0  0  0  0  0  0
   -0.1792   -0.6505    2.6026 H   0  0  0  0  0  0  0  0  0  0  0  0
    2.0499   -1.7304    3.3778 H   0  0  0  0  0  0  0  0  0  0  0  0
    1.9161   -2.8197    2.0033 H   0  0  0  0  0  0  0  0  0  0  0  0
    1.4928    1.0576    2.0574 N   0  0  0  0  0  0  0  0  0  0  0  0
    2.2806    2.2028    1.6646 C   0  0  2  0  0  0  0  0  0  0  0  0
    2.6915    2.9467    2.9285 C   0  0  0  0  0  0  0  0  0  0  0  0
    2.0828    2.8493    3.9920 O   0  0  0  0  0  0  0  0  0  0  0  0
    1.5039    3.1132    0.7262 C   0  0  0  0  0  0  0  0  0  0  0  0
    0.9054    1.1479    2.8812 H   0  0  0  0  0  0  0  0  0  0  0  0
    3.1733    1.8151    1.1618 H   0  0  0  0  0  0  0  0  0  0  0  0
    0.6059    3.5113    1.2126 H   0  0  0  0  0  0  0  0  0  0  0  0
    2.1123    3.9658    0.4069 H   0  0  0  0  0  0  0  0  0  0  0  0
    1.1835    2.5686   -0.1685 H   0  0  0  0  0  0  0  0  0  0  0  0
    3.7920    3.7655    2.7176 N   0  0  0  0  0  0  0  0  0  0  0  0
    4.3657    4.5845    3.7598 C   0  0  0  0  0  0  0  0  0  0  0  0
    4.2450    3.7695    1.8084 H   0  0  0  0  0  0  0  0  0  0  0  0
    3.9132    5.5867    3.7302 H   0  0  0  0  0  0  0  0  0  0  0  0
    4.1694    4.1225    4.7387 H   0  0  0  0  0  0  0  0  0  0  0  0
    5.4515    4.6677    3.6047 H   0  0  0  0  0  0  0  0  0  0  0  0
  1  3  1  0  0  0  0
  1  7  1  0  0  0  0
  1  2  2  0  0  0  0
 30 31  1  0  0  0  0
 31 39  1  0  0  0  0
 31 32  2  0  0  0  0
  8  9  1  0  0  0  0
  9 17  1  0  0  0  0
  9 10  2  0  0  0  0
 18 19  1  0  0  0  0
 19 29  1  0  0  0  0
 19 20  2  0  0  0  0
 21 22  1  0  0  0  0
 22 23  1  0  0  0  0
 22 24  2  0  0  0  0
 30 33  1  0  0  0  0
  8 11  1  0  0  0  0
 39 40  1  0  0  0  0
 18 21  1  0  0  0  0
 29 30  1  0  0  0  0
  7  8  1  0  0  0  0
 17 18  1  0  0  0  0
  3  4  1  0  0  0  0
  3  5  1  0  0  0  0
  3  6  1  0  0  0  0
 33 36  1  0  0  0  0
 33 37  1  0  0  0  0
 33 38  1  0  0  0  0
 11 14  1  0  0  0  0
 11 15  1  0  0  0  0
 11 16  1  0  0  0  0
 40 42  1  0  0  0  0
 40 43  1  0  0  0  0
 40 44  1  0  0  0  0
 21 27  1  0  0  0  0
 21 28  1  0  0  0  0
 30 35  1  0  0  0  0
  8 13  1  0  0  0  0
 18 26  1  0  0  0  0
 39 41  1  0  0  0  0
  7 12  1  0  0  0  0
 29 34  1  0  0  0  0
 17 25  1  0  0  0  0
M  CHG  1  23  -1
M  END
$$$$

  -OEChem-05262214473D

 44 43  0     1  0  0  0  0  0999 V2000
   -4.0256   -1.8030   -2.1581 C   0  0  0  0  0  0  0  0  0  0  0  0
   -3.7513   -2.6782   -2.9709 O   0  0  0  0  0  0  0  0  0  0  0  0
   -5.3491   -1.1169   -2.2339 C   0  0  0  0  0  0  0  0  0  0  0  0
   -5.3223   -0.2211   -2.8750 H   0  0  0  0  0  0  0  0  0  0  0  0
   -6.1322   -1.7605   -2.6658 H   0  0  0  0  0  0  0  0  0  0  0  0
   -5.7568   -0.7715   -1.2704 H   0  0  0  0  0  0  0  0  0  0  0  0
   -3.2124   -1.3578   -1.1289 N   0  0  0  0  0  0  0  0  0  0  0  0
   -1.8971   -1.8843   -0.8752 C   0  0  2  0  0  0  0  0  0  0  0  0
   -1.2676   -1.0599    0.2399 C   0  0  0  0  0  0  0  0  0  0  0  0
   -1.6270    0.0833    0.5138 O   0  0  0  0  0  0  0  0  0  0  0  0
   -1.0364   -1.8506   -2.1285 C   0  0  0  0  0  0  0  0  0  0  0  0
   -3.5631   -0.6202   -0.5206 H   0  0  0  0  0  0  0  0  0  0  0  0
   -2.0301   -2.9174   -0.5360 H   0  0  0  0  0  0  0  0  0  0  0  0
   -0.8921   -0.8236   -2.4833 H   0  0  0  0  0  0  0  0  0  0  0  0
   -0.0457   -2.2777   -1.9410 H   0  0  0  0  0  0  0  0  0  0  0  0
   -1.5052   -2.4193   -2.9387 H   0  0  0  0  0  0  0  0  0  0  0  0
   -0.2267   -1.7335    0.8672 N   0  0  0  0  0  0  0  0  0  0  0  0
    0.5363   -1.1590    1.9465 C   0  0  2  0  0  0  0  0  0  0  0  0
    1.4758   -0.1267    1.3339 C   0  0  0  0  0  0  0  0  0  0  0  0
    1.8912   -0.2000    0.1792 O   0  0  0  0  0  0  0  0  0  0  0  0
    1.3279   -2.2188    2.7091 C   0  0  0  0  0  0  0  0  0  0  0  0
    0.5093   -3.2116    3.5443 C   0  0  0  0  0  0  0  0  0  0  0  0
   -0.5842   -2.7442    3.9763 O   0  5  0  0  0  0  0  0  0  0  0  0
    1.0104   -4.3569    3.7124 O   0  0  0  0  0  0  0  0  0  0  0  0
   -0.0113   -2.6869    0.5854 H   0  0  0  0  0  0  0  0  0  0  0  0
   -0.1792   -0.6505    2.6026 H   0  0  0  0  0  0  0  0  0  0  0  0
    2.0499   -1.7304    3.3778 H   0  0  0  0  0  0  0  0  0  0  0  0
    1.9161   -2.8197    2.0033 H   0  0  0  0  0  0  0  0  0  0  0  0
    1.7531    0.9121    2.2115 N   0  0  0  0  0  0  0  0  0  0  0  0
    2.5942    2.0317    1.8573 C   0  0  2  0  0  0  0  0  0  0  0  0
    3.2952    2.5117    3.1213 C   0  0  0  0  0  0  0  0  0  0  0  0
    2.8654    2.2912    4.2517 O   0  0  0  0  0  0  0  0  0  0  0  0
    1.7850    3.1535    1.2252 C   0  0  0  0  0  0  0  0  0  0  0  0
    1.3263    0.9144    3.1333 H   0  0  0  0  0  0  0  0  0  0  0  0
    3.3383    1.6559    1.1466 H   0  0  0  0  0  0  0  0  0  0  0  0
    1.0342    3.5428    1.9225 H   0  0  0  0  0  0  0  0  0  0  0  0
    2.4280    3.9896    0.9313 H   0  0  0  0  0  0  0  0  0  0  0  0
    1.2577    2.7987    0.3330 H   0  0  0  0  0  0  0  0  0  0  0  0
    4.4342    3.2522    2.8373 N   0  0  0  0  0  0  0  0  0  0  0  0
    5.2664    3.8286    3.8674 C   0  0  0  0  0  0  0  0  0  0  0  0
    4.7263    3.3688    1.8715 H   0  0  0  0  0  0  0  0  0  0  0  0
    4.9370    4.8579    4.0723 H   0  0  0  0  0  0  0  0  0  0  0  0
    5.1830    3.2276    4.7849 H   0  0  0  0  0  0  0  0  0  0  0  0
    6.3132    3.8390    3.5298 H   0  0  0  0  0  0  0  0  0  0  0  0
  1  3  1  0  0  0  0
  1  7  1  0  0  0  0
  1  2  2  0  0  0  0
 30 31  1  0  0  0  0
 31 39  1  0  0  0  0
 31 32  2  0  0  0  0
  8  9  1  0  0  0  0
  9 17  1  0  0  0  0
  9 10  2  0  0  0  0
 18 19  1  0  0  0  0
 19 29  1  0  0  0  0
 19 20  2  0  0  0  0
 21 22  1  0  0  0  0
 22 23  1  0  0  0  0
 22 24  2  0  0  0  0
 30 33  1  0  0  0  0
  8 11  1  0  0  0  0
 39 40  1  0  0  0  0
 18 21  1  0  0  0  0
 29 30  1  0  0  0  0
  7  8  1  0  0  0  0
 17 18  1  0  0  0  0
  3  4  1  0  0  0  0
  3  5  1  0  0  0  0
  3  6  1  0  0  0  0
 33 36  1  0  0  0  0
 33 37  1  0  0  0  0
 33 38  1  0  0  0  0
 11 14  1  0  0  0  0
 11 15  1  0  0  0  0
 11 16  1  0  0  0  0
 40 42  1  0  0  0  0
 40 43  1  0  0  0  0
 40 44  1  0  0  0  0
 21 27  1  0  0  0  0
 21 28  1  0  0  0  0
 30 35  1  0  0  0  0
  8 13  1  0  0  0  0
 18 26  1  0  0  0  0
 39 41  1  0  0  0  0
  7 12  1  0  0  0  0
 29 34  1  0  0  0  0
 17 25  1  0  0  0  0
M  CHG  1  23  -1
M  END
$$$$

  -OEChem-05262214473D

 44 43  0     1  0  0  0  0  0999 V2000
   -4.0256   -1.8030   -2.1581 C   0  0  0  0  0  0  0  0  0  0  0  0
   -3.7513   -2.6782   -2.9709 O   0  0  0  0  0  0  0  0  0  0  0  0
   -5.3491   -1.1169   -2.2339 C   0  0  0  0  0  0  0  0  0  0  0  0
   -5.3223   -0.2211   -2.8750 H   0  0  0  0  0  0  0  0  0  0  0  0
   -6.1322   -1.7605   -2.6658 H   0  0  0  0  0  0  0  0  0  0  0  0
   -5.7568   -0.7715   -1.2704 H   0  0  0  0  0  0  0  0  0  0  0  0
   -3.2124   -1.3578   -1.1289 N   0  0  0  0  0  0  0  0  0  0  0  0
   -1.8971   -1.8843   -0.8752 C   0  0  2  0  0  0  0  0  0  0  0  0
   -1.2676   -1.0599    0.2399 C   0  0  0  0  0  0  0  0  0  0  0  0
   -1.6270    0.0833    0.5138 O   0  0  0  0  0  0  0  0  0  0  0  0
   -1.0364   -1.8506   -2.1285 C   0  0  0  0  0  0  0  0  0  0  0  0
   -3.5631   -0.6202   -0.5206 H   0  0  0  0  0  0  0  0  0  0  0  0
   -2.0301   -2.9174   -0.5360 H   0  0  0  0  0  0  0  0  0  0  0  0
   -0.8921   -0.8236   -2.4833 H   0  0  0  0  0  0  0  0  0  0  0  0
   -0.0457   -2.2777   -1.9410 H   0  0  0  0  0  0  0  0  0  0  0  0
   -1.5052   -2.4193   -2.9387 H   0  0  0  0  0  0  0  0  0  0  0  0
   -0.2267   -1.7335    0.8672 N   0  0  0  0  0  0  0  0  0  0  0  0
    0.5363   -1.1590    1.9465 C   0  0  2  0  0  0  0  0  0  0  0  0
    1.4758   -0.1267    1.3339 C   0  0  0  0  0  0  0  0  0  0  0  0
    1.6811   -0.0410    0.1248 O   0  0  0  0  0  0  0  0  0  0  0  0
    1.3279   -2.2188    2.7091 C   0  0  0  0  0  0  0  0  0  0  0  0
    0.5093   -3.2116    3.5443 C   0  0  0  0  0  0  0  0  0  0  0  0
   -0.5842   -2.7442    3.9763 O   0  5  0  0  0  0  0  0  0  0  0  0
    1.0104   -4.3569    3.7124 O   0  0  0  0  0  0  0  0  0  0  0  0
   -0.0113   -2.6869    0.5854 H   0  0  0  0  0  0  0  0  0  0  0  0
   -0.1792   -0.6505    2.6026 H   0  0  0  0  0  0  0  0  0  0  0  0
    2.0499   -1.7304    3.3778 H   0  0  0  0  0  0  0  0  0  0  0  0
    1.9161   -2.8197    2.0033 H   0  0  0  0  0  0  0  0  0  0  0  0
    2.0165    0.7199    2.2916 N   0  0  0  0  0  0  0  0  0  0  0  0
    2.9131    1.8031    1.9612 C   0  0  2  0  0  0  0  0  0  0  0  0
    3.8669    1.9980    3.1324 C   0  0  0  0  0  0  0  0  0  0  0  0
    3.6087    1.6294    4.2763 O   0  0  0  0  0  0  0  0  0  0  0  0
    2.1482    3.0835    1.6643 C   0  0  0  0  0  0  0  0  0  0  0  0
    1.7528    0.6049    3.2657 H   0  0  0  0  0  0  0  0  0  0  0  0
    3.4785    1.4874    1.0776 H   0  0  0  0  0  0  0  0  0  0  0  0
    1.5756    3.4154    2.5381 H   0  0  0  0  0  0  0  0  0  0  0  0
    2.8274    3.8961    1.3863 H   0  0  0  0  0  0  0  0  0  0  0  0
    1.4413    2.9333    0.8412 H   0  0  0  0  0  0  0  0  0  0  0  0
    5.0220    2.6705    2.7585 N   0  0  0  0  0  0  0  0  0  0  0  0
    6.0766    2.9876    3.6929 C   0  0  0  0  0  0  0  0  0  0  0  0
    5.1606    2.9217    1.7841 H   0  0  0  0  0  0  0  0  0  0  0  0
    5.9101    3.9930    4.1071 H   0  0  0  0  0  0  0  0  0  0  0  0
    6.0770    2.2503    4.5092 H   0  0  0  0  0  0  0  0  0  0  0  0
    7.0462    2.9608    3.1742 H   0  0  0  0  0  0  0  0  0  0  0  0
  1  3  1  0  0  0  0
  1  7  1  0  0  0  0
  1  2  2  0  0  0  0
 30 31  1  0  0  0  0
 31 39  1  0  0  0  0
 31 32  2  0  0  0  0
  8  9  1  0  0  0  0
  9 17  1  0  0  0  0
  9 10  2  0  0  0  0
 18 19  1  0  0  0  0
 19 29  1  0  0  0  0
 19 20  2  0  0  0  0
 21 22  1  0  0  0  0
 22 23  1  0  0  0  0
 22 24  2  0  0  0  0
 30 33  1  0  0  0  0
  8 11  1  0  0  0  0
 39 40  1  0  0  0  0
 18 21  1  0  0  0  0
 29 30  1  0  0  0  0
  7  8  1  0  0  0  0
 17 18  1  0  0  0  0
  3  4  1  0  0  0  0
  3  5  1  0  0  0  0
  3  6  1  0  0  0  0
 33 36  1  0  0  0  0
 33 37  1  0  0  0  0
 33 38  1  0  0  0  0
 11 14  1  0  0  0  0
 11 15  1  0  0  0  0
 11 16  1  0  0  0  0
 40 42  1  0  0  0  0
 40 43  1  0  0  0  0
 40 44  1  0  0  0  0
 21 27  1  0  0  0  0
 21 28  1  0  0  0  0
 30 35  1  0  0  0  0
  8 13  1  0  0  0  0
 18 26  1  0  0  0  0
 39 41  1  0  0  0  0
  7 12  1  0  0  0  0
 29 34  1  0  0  0  0
 17 25  1  0  0  0  0
M  CHG  1  23  -1
M  END
$$$$

  -OEChem-05262214473D

 44 43  0     1  0  0  0  0  0999 V2000
   -4.0256   -1.8030   -2.1581 C   0  0  0  0  0  0  0  0  0  0  0  0
   -3.7513   -2.6782   -2.9709 O   0  0  0  0  0  0  0  0  0  0  0  0
   -5.3491   -1.1169   -2.2339 C   0  0  0  0  0  0  0  0  0  0  0  0
   -5.3223   -0.2211   -2.8750 H   0  0  0  0  0  0  0  0  0  0  0  0
   -6.1322   -1.7605   -2.6658 H   0  0  0  0  0  0  0  0  0  0  0  0
   -5.7568   -0.7715   -1.2704 H   0  0  0  0  0  0  0  0  0  0  0  0
   -3.2124   -1.3578   -1.1289 N   0  0  0  0  0  0  0  0  0  0  0  0
   -1.8971   -1.8843   -0.8752 C   0  0  2  0  0  0  0  0  0  0  0  0
   -1.2676   -1.0599    0.2399 C   0  0  0  0  0  0  0  0  0  0  0  0
   -1.6270    0.0833    0.5138 O   0  0  0  0  0  0  0  0  0  0  0  0
   -1.0364   -1.8506   -2.1285 C   0  0  0  0  0  0  0  0  0  0  0  0
   -3.5631   -0.6202   -0.5206 H   0  0  0  0  0  0  0  0  0  0  0  0
   -2.0301   -2.9174   -0.5360 H   0  0  0  0  0  0  0  0  0  0  0  0
   -0.8921   -0.8236   -2.4833 H   0  0  0  0  0  0  0  0  0  0  0  0
   -0.0457   -2.2777   -1.9410 H   0  0  0  0  0  0  0  0  0  0  0  0
   -1.5052   -2.4193   -2.9387 H   0  0  0  0  0  0  0  0  0  0  0  0
   -0.2267   -1.7335    0.8672 N   0  0  0  0  0  0  0  0  0  0  0  0
    0.5363   -1.1590    1.9465 C   0  0  2  0  0  0  0  0  0  0  0  0
    1.1886    0.1103    1.4107 C   0  0  0  0  0  0  0  0  0  0  0  0
    1.0075    0.5263    0.2682 O   0  0  0  0  0  0  0  0  0  0  0  0
    1.5953   -2.1261    2.4708 C   0  0  0  0  0  0  0  0  0  0  0  0
    1.0795   -3.3609    3.2207 C   0  0  0  0  0  0  0  0  0  0  0  0
   -0.0240   -3.1815    3.8131 O   0  5  0  0  0  0  0  0  0  0  0  0
    1.8016   -4.3939    3.1727 O   0  0  0  0  0  0  0  0  0  0  0  0
   -0.0113   -2.6869    0.5854 H   0  0  0  0  0  0  0  0  0  0  0  0
   -0.1800   -0.8922    2.7318 H   0  0  0  0  0  0  0  0  0  0  0  0
    2.2864   -1.5913    3.1366 H   0  0  0  0  0  0  0  0  0  0  0  0
    2.1988   -2.5020    1.6343 H   0  0  0  0  0  0  0  0  0  0  0  0
    1.9544    0.7504    2.3752 N   0  0  0  0  0  0  0  0  0  0  0  0
    2.6501    1.9912    2.1247 C   0  0  2  0  0  0  0  0  0  0  0  0
    3.9069    2.0075    2.9848 C   0  0  0  0  0  0  0  0  0  0  0  0
    4.0320    1.3299    4.0028 O   0  0  0  0  0  0  0  0  0  0  0  0
    1.7676    3.1916    2.4291 C   0  0  0  0  0  0  0  0  0  0  0  0
    2.0092    0.3581    3.3106 H   0  0  0  0  0  0  0  0  0  0  0  0
    2.9314    1.9879    1.0660 H   0  0  0  0  0  0  0  0  0  0  0  0
    1.4756    3.2119    3.4854 H   0  0  0  0  0  0  0  0  0  0  0  0
    2.2866    4.1310    2.2116 H   0  0  0  0  0  0  0  0  0  0  0  0
    0.8503    3.1625    1.8312 H   0  0  0  0  0  0  0  0  0  0  0  0
    4.8556    2.9001    2.5058 N   0  0  0  0  0  0  0  0  0  0  0  0
    6.1291    3.1071    3.1547 C   0  0  0  0  0  0  0  0  0  0  0  0
    4.6750    3.4064    1.6439 H   0  0  0  0  0  0  0  0  0  0  0  0
    6.0478    3.9432    3.8649 H   0  0  0  0  0  0  0  0  0  0  0  0
    6.4177    2.1937    3.6955 H   0  0  0  0  0  0  0  0  0  0  0  0
    6.8922    3.3419    2.3981 H   0  0  0  0  0  0  0  0  0  0  0  0
  1  3  1  0  0  0  0
  1  7  1  0  0  0  0
  1  2  2  0  0  0  0
 30 31  1  0  0  0  0
 31 39  1  0  0  0  0
 31 32  2  0  0  0  0
  8  9  1  0  0  0  0
  9 17  1  0  0  0  0
  9 10  2  0  0  0  0
 18 19  1  0  0  0  0
 19 29  1  0  0  0  0
 19 20  2  0  0  0  0
 21 22  1  0  0  0  0
 22 23  1  0  0  0  0
 22 24  2  0  0  0  0
 30 33  1  0  0  0  0
  8 11  1  0  0  0  0
 39 40  1  0  0  0  0
 18 21  1  0  0  0  0
 29 30  1  0  0  0  0
  7  8  1  0  0  0  0
 17 18  1  0  0  0  0
  3  4  1  0  0  0  0
  3  5  1  0  0  0  0
  3  6  1  0  0  0  0
 33 36  1  0  0  0  0
 33 37  1  0  0  0  0
 33 38  1  0  0  0  0
 11 14  1  0  0  0  0
 11 15  1  0  0  0  0
 11 16  1  0  0  0  0
 40 42  1  0  0  0  0
 40 43  1  0  0  0  0
 40 44  1  0  0  0  0
 21 27  1  0  0  0  0
 21 28  1  0  0  0  0
 30 35  1  0  0  0  0
  8 13  1  0  0  0  0
 18 26  1  0  0  0  0
 39 41  1  0  0  0  0
  7 12  1  0  0  0  0
 29 34  1  0  0  0  0
 17 25  1  0  0  0  0
M  CHG  1  23  -1
M  END
$$$$

  -OEChem-05262214473D

 44 43  0     1  0  0  0  0  0999 V2000
   -4.0256   -1.8030   -2.1581 C   0  0  0  0  0  0  0  0  0  0  0  0
   -3.7513   -2.6782   -2.9709 O   0  0  0  0  0  0  0  0  0  0  0  0
   -5.3491   -1.1169   -2.2339 C   0  0  0  0  0  0  0  0  0  0  0  0
   -5.3223   -0.2211   -2.8750 H   0  0  0  0  0  0  0  0  0  0  0  0
   -6.1322   -1.7605   -2.6658 H   0  0  0  0  0  0  0  0  0  0  0  0
   -5.7568   -0.7715   -1.2704 H   0  0  0  0  0  0  0  0  0  0  0  0
   -3.2124   -1.3578   -1.1289 N   0  0  0  0  0  0  0  0  0  0  0  0
   -1.8971   -1.8843   -0.8752 C   0  0  2  0  0  0  0  0  0  0  0  0
   -1.2676   -1.0599    0.2399 C   0  0  0  0  0  0  0  0  0  0  0  0
   -1.6270    0.0833    0.5138 O   0  0  0  0  0  0  0  0  0  0  0  0
   -1.0364   -1.8506   -2.1285 C   0  0  0  0  0  0  0  0  0  0  0  0
   -3.5631   -0.6202   -0.5206 H   0  0  0  0  0  0  0  0  0  0  0  0
   -2.0301   -2.9174   -0.5360 H   0  0  0  0  0  0  0  0  0  0  0  0
   -0.8921   -0.8236   -2.4833 H   0  0  0  0  0  0  0  0  0  0  0  0
   -0.0457   -2.2777   -1.9410 H   0  0  0  0  0  0  0  0  0  0  0  0
   -1.5052   -2.4193   -2.9387 H   0  0  0  0  0  0  0  0  0  0  0  0
   -0.2267   -1.7335    0.8672 N   0  0  0  0  0  0  0  0  0  0  0  0
    0.5363   -1.1590    1.9465 C   0  0  2  0  0  0  0  0  0  0  0  0
    1.1886    0.1103    1.4107 C   0  0  0  0  0  0  0  0  0  0  0  0
    0.8150    0.6741    0.3842 O   0  0  0  0  0  0  0  0  0  0  0  0
    1.5953   -2.1261    2.4708 C   0  0  0  0  0  0  0  0  0  0  0  0
    1.0795   -3.3609    3.2207 C   0  0  0  0  0  0  0  0  0  0  0  0
   -0.0240   -3.1815    3.8131 O   0  5  0  0  0  0  0  0  0  0  0  0
    1.8016   -4.3939    3.1727 O   0  0  0  0  0  0  0  0  0  0  0  0
   -0.0113   -2.6869    0.5854 H   0  0  0  0  0  0  0  0  0  0  0  0
   -0.1800   -0.8922    2.7318 H   0  0  0  0  0  0  0  0  0  0  0  0
    2.2864   -1.5913    3.1366 H   0  0  0  0  0  0  0  0  0  0  0  0
    2.1988   -2.5020    1.6343 H   0  0  0  0  0  0  0  0  0  0  0  0
    2.2020    0.5669    2.2419 N   0  0  0  0  0  0  0  0  0  0  0  0
    2.9536    1.7701    1.9705 C   0  0  2  0  0  0  0  0  0  0  0  0
    4.3580    1.5834    2.5292 C   0  0  0  0  0  0  0  0  0  0  0  0
    4.6239    0.7801    3.4209 O   0  0  0  0  0  0  0  0  0  0  0  0
    2.2834    2.9909    2.5815 C   0  0  0  0  0  0  0  0  0  0  0  0
    2.4116    0.0614    3.0977 H   0  0  0  0  0  0  0  0  0  0  0  0
    3.0040    1.8725    0.8810 H   0  0  0  0  0  0  0  0  0  0  0  0
    2.2238    2.9064    3.6727 H   0  0  0  0  0  0  0  0  0  0  0  0
    2.8391    3.9057    2.3506 H   0  0  0  0  0  0  0  0  0  0  0  0
    1.2628    3.1065    2.2009 H   0  0  0  0  0  0  0  0  0  0  0  0
    5.2715    2.4497    1.9452 N   0  0  0  0  0  0  0  0  0  0  0  0
    6.6675    2.4758    2.3146 C   0  0  0  0  0  0  0  0  0  0  0  0
    4.9668    3.0691    1.1999 H   0  0  0  0  0  0  0  0  0  0  0  0
    6.8240    3.2239    3.1058 H   0  0  0  0  0  0  0  0  0  0  0  0
    6.9677    1.4839    2.6834 H   0  0  0  0  0  0  0  0  0  0  0  0
    7.2744    2.7393    1.4358 H   0  0  0  0  0  0  0  0  0  0  0  0
  1  3  1  0  0  0  0
  1  7  1  0  0  0  0
  1  2  2  0  0  0  0
 30 31  1  0  0  0  0
 31 39  1  0  0  0  0
 31 32  2  0  0  0  0
  8  9  1  0  0  0  0
  9 17  1  0  0  0  0
  9 10  2  0  0  0  0
 18 19  1  0  0  0  0
 19 29  1  0  0  0  0
 19 20  2  0  0  0  0
 21 22  1  0  0  0  0
 22 23  1  0  0  0  0
 22 24  2  0  0  0  0
 30 33  1  0  0  0  0
  8 11  1  0  0  0  0
 39 40  1  0  0  0  0
 18 21  1  0  0  0  0
 29 30  1  0  0  0  0
  7  8  1  0  0  0  0
 17 18  1  0  0  0  0
  3  4  1  0  0  0  0
  3  5  1  0  0  0  0
  3  6  1  0  0  0  0
 33 36  1  0  0  0  0
 33 37  1  0  0  0  0
 33 38  1  0  0  0  0
 11 14  1  0  0  0  0
 11 15  1  0  0  0  0
 11 16  1  0  0  0  0
 40 42  1  0  0  0  0
 40 43  1  0  0  0  0
 40 44  1  0  0  0  0
 21 27  1  0  0  0  0
 21 28  1  0  0  0  0
 30 35  1  0  0  0  0
  8 13  1  0  0  0  0
 18 26  1  0  0  0  0
 39 41  1  0  0  0  0
  7 12  1  0  0  0  0
 29 34  1  0  0  0  0
 17 25  1  0  0  0  0
M  CHG  1  23  -1
M  END
$$$$

  -OEChem-05262214473D

 44 43  0     1  0  0  0  0  0999 V2000
   -4.0256   -1.8030   -2.1581 C   0  0  0  0  0  0  0  0  0  0  0  0
   -3.7513   -2.6782   -2.9709 O   0  0  0  0  0  0  0  0  0  0  0  0
   -5.3491   -1.1169   -2.2339 C   0  0  0  0  0  0  0  0  0  0  0  0
   -5.3223   -0.2211   -2.8750 H   0  0  0  0  0  0  0  0  0  0  0  0
   -6.1322   -1.7605   -2.6658 H   0  0  0  0  0  0  0  0  0  0  0  0
   -5.7568   -0.7715   -1.2704 H   0  0  0  0  0  0  0  0  0  0  0  0
   -3.2124   -1.3578   -1.1289 N   0  0  0  0  0  0  0  0  0  0  0  0
   -1.8971   -1.8843   -0.8752 C   0  0  2  0  0  0  0  0  0  0  0  0
   -1.2676   -1.0599    0.2399 C   0  0  0  0  0  0  0  0  0  0  0  0
   -1.6270    0.0833    0.5138 O   0  0  0  0  0  0  0  0  0  0  0  0
   -1.0364   -1.8506   -2.1285 C   0  0  0  0  0  0  0  0  0  0  0  0
   -3.5631   -0.6202   -0.5206 H   0  0  0  0  0  0  0  0  0  0  0  0
   -2.0301   -2.9174   -0.5360 H   0  0  0  0  0  0  0  0  0  0  0  0
   -0.8921   -0.8236   -2.4833 H   0  0  0  0  0  0  0  0  0  0  0  0
   -0.0457   -2.2777   -1.9410 H   0  0  0  0  0  0  0  0  0  0  0  0
   -1.5052   -2.4193   -2.9387 H   0  0  0  0  0  0  0  0  0  0  0  0
   -0.2267   -1.7335    0.8672 N   0  0  0  0  0  0  0  0  0  0  0  0
    0.5363   -1.1590    1.9465 C   0  0  2  0  0  0  0  0  0  0  0  0
    1.1886    0.1103    1.4107 C   0  0  0  0  0  0  0  0  0  0  0  0
    0.6676    0.8216    0.5541 O   0  0  0  0  0  0  0  0  0  0  0  0
    1.5953   -2.1261    2.4708 C   0  0  0  0  0  0  0  0  0  0  0  0
    1.0795   -3.3609    3.2207 C   0  0  0  0  0  0  0  0  0  0  0  0
   -0.0240   -3.1815    3.8131 O   0  5  0  0  0  0  0  0  0  0  0  0
    1.8016   -4.3939    3.1727 O   0  0  0  0  0  0  0  0  0  0  0  0
   -0.0113   -2.6869    0.5854 H   0  0  0  0  0  0  0  0  0  0  0  0
   -0.1800   -0.8922    2.7318 H   0  0  0  0  0  0  0  0  0  0  0  0
    2.2864   -1.5913    3.1366 H   0  0  0  0  0  0  0  0  0  0  0  0
    2.1988   -2.5020    1.6343 H   0  0  0  0  0  0  0  0  0  0  0  0
    2.3957    0.3819    2.0395 N   0  0  0  0  0  0  0  0  0  0  0  0
    3.1934    1.5461    1.7316 C   0  0  2  0  0  0  0  0  0  0  0  0
    4.6570    1.1831    1.9450 C   0  0  0  0  0  0  0  0  0  0  0  0
    5.0203    0.2596    2.6704 O   0  0  0  0  0  0  0  0  0  0  0  0
    2.7962    2.7331    2.5953 C   0  0  0  0  0  0  0  0  0  0  0  0
    2.7275   -0.2381    2.7726 H   0  0  0  0  0  0  0  0  0  0  0  0
    3.0237    1.7749    0.6739 H   0  0  0  0  0  0  0  0  0  0  0  0
    2.9592    2.5225    3.6585 H   0  0  0  0  0  0  0  0  0  0  0  0
    3.3822    3.6225    2.3409 H   0  0  0  0  0  0  0  0  0  0  0  0
    1.7359    2.9740    2.4629 H   0  0  0  0  0  0  0  0  0  0  0  0
    5.5115    2.0390    1.2641 N   0  0  0  0  0  0  0  0  0  0  0  0
    6.9491    1.9101    1.3172 C   0  0  0  0  0  0  0  0  0  0  0  0
    5.1224    2.7658    0.6708 H   0  0  0  0  0  0  0  0  0  0  0  0
    7.3448    2.5425    2.1256 H   0  0  0  0  0  0  0  0  0  0  0  0
    7.2162    0.8604    1.5088 H   0  0  0  0  0  0  0  0  0  0  0  0
    7.3813    2.2291    0.3573 H   0  0  0  0  0  0  0  0  0  0  0  0
  1  3  1  0  0  0  0
  1  7  1  0  0  0  0
  1  2  2  0  0  0  0
 30 31  1  0  0  0  0
 31 39  1  0  0  0  0
 31 32  2  0  0  0  0
  8  9  1  0  0  0  0
  9 17  1  0  0  0  0
  9 10  2  0  0  0  0
 18 19  1  0  0  0  0
 19 29  1  0  0  0  0
 19 20  2  0  0  0  0
 21 22  1  0  0  0  0
 22 23  1  0  0  0  0
 22 24  2  0  0  0  0
 30 33  1  0  0  0  0
  8 11  1  0  0  0  0
 39 40  1  0  0  0  0
 18 21  1  0  0  0  0
 29 30  1  0  0  0  0
  7  8  1  0  0  0  0
 17 18  1  0  0  0  0
  3  4  1  0  0  0  0
  3  5  1  0  0  0  0
  3  6  1  0  0  0  0
 33 36  1  0  0  0  0
 33 37  1  0  0  0  0
 33 38  1  0  0  0  0
 11 14  1  0  0  0  0
 11 15  1  0  0  0  0
 11 16  1  0  0  0  0
 40 42  1  0  0  0  0
 40 43  1  0  0  0  0
 40 44  1  0  0  0  0
 21 27  1  0  0  0  0
 21 28  1  0  0  0  0
 30 35  1  0  0  0  0
  8 13  1  0  0  0  0
 18 26  1  0  0  0  0
 39 41  1  0  0  0  0
  7 12  1  0  0  0  0
 29 34  1  0  0  0  0
 17 25  1  0  0  0  0
M  CHG  1  23  -1
M  END
$$$$

  -OEChem-05262214473D

 44 43  0     1  0  0  0  0  0999 V2000
   -4.0256   -1.8030   -2.1581 C   0  0  0  0  0  0  0  0  0  0  0  0
   -3.7513   -2.6782   -2.9709 O   0  0  0  0  0  0  0  0  0  0  0  0
   -5.3491   -1.1169   -2.2339 C   0  0  0  0  0  0  0  0  0  0  0  0
   -5.3223   -0.2211   -2.8750 H   0  0  0  0  0  0  0  0  0  0  0  0
   -6.1322   -1.7605   -2.6658 H   0  0  0  0  0  0  0  0  0  0  0  0
   -5.7568   -0.7715   -1.2704 H   0  0  0  0  0  0  0  0  0  0  0  0
   -3.2124   -1.3578   -1.1289 N   0  0  0  0  0  0  0  0  0  0  0  0
   -1.8971   -1.8843   -0.8752 C   0  0  2  0  0  0  0  0  0  0  0  0
   -1.2676   -1.0599    0.2399 C   0  0  0  0  0  0  0  0  0  0  0  0
   -1.6270    0.0833    0.5138 O   0  0  0  0  0  0  0  0  0  0  0  0
   -1.0364   -1.8506   -2.1285 C   0  0  0  0  0  0  0  0  0  0  0  0
   -3.5631   -0.6202   -0.5206 H   0  0  0  0  0  0  0  0  0  0  0  0
   -2.0301   -2.9174   -0.5360 H   0  0  0  0  0  0  0  0  0  0  0  0
   -0.8921   -0.8236   -2.4833 H   0  0  0  0  0  0  0  0  0  0  0  0
   -0.0457   -2.2777   -1.9410 H   0  0  0  0  0  0  0  0  0  0  0  0
   -1.5052   -2.4193   -2.9387 H   0  0  0  0  0  0  0  0  0  0  0  0
   -0.2267   -1.7335    0.8672 N   0  0  0  0  0  0  0  0  0  0  0  0
    0.5363   -1.1590    1.9465 C   0  0  2  0  0  0  0  0  0  0  0  0
    1.1886    0.1103    1.4107 C   0  0  0  0  0  0  0  0  0  0  0  0
    0.5752    0.9587    0.7663 O   0  0  0  0  0  0  0  0  0  0  0  0
    1.5953   -2.1261    2.4708 C   0  0  0  0  0  0  0  0  0  0  0  0
    1.0795   -3.3609    3.2207 C   0  0  0  0  0  0  0  0  0  0  0  0
   -0.0240   -3.1815    3.8131 O   0  5  0  0  0  0  0  0  0  0  0  0
    1.8016   -4.3939    3.1727 O   0  0  0  0  0  0  0  0  0  0  0  0
   -0.0113   -2.6869    0.5854 H   0  0  0  0  0  0  0  0  0  0  0  0
   -0.1800   -0.8922    2.7318 H   0  0  0  0  0  0  0  0  0  0  0  0
    2.2864   -1.5913    3.1366 H   0  0  0  0  0  0  0  0  0  0  0  0
    2.1988   -2.5020    1.6343 H   0  0  0  0  0  0  0  0  0  0  0  0
    2.5224    0.2080    1.7818 N   0  0  0  0  0  0  0  0  0  0  0  0
    3.3531    1.3343    1.4244 C   0  0  2  0  0  0  0  0  0  0  0  0
    4.7835    0.8340    1.2719 C   0  0  0  0  0  0  0  0  0  0  0  0
    5.1940   -0.1960    1.8024 O   0  0  0  0  0  0  0  0  0  0  0  0
    3.2711    2.4360    2.4695 C   0  0  0  0  0  0  0  0  0  0  0  0
    2.9352   -0.5202    2.3573 H   0  0  0  0  0  0  0  0  0  0  0  0
    2.9892    1.7019    0.4588 H   0  0  0  0  0  0  0  0  0  0  0  0
    3.6315    2.0864    3.4438 H   0  0  0  0  0  0  0  0  0  0  0  0
    3.8790    3.3006    2.1831 H   0  0  0  0  0  0  0  0  0  0  0  0
    2.2373    2.7739    2.5993 H   0  0  0  0  0  0  0  0  0  0  0  0
    5.5592    1.6958    0.5091 N   0  0  0  0  0  0  0  0  0  0  0  0
    6.9546    1.4486    0.2304 C   0  0  0  0  0  0  0  0  0  0  0  0
    5.1310    2.5173    0.0926 H   0  0  0  0  0  0  0  0  0  0  0  0
    7.5746    1.9455    0.9910 H   0  0  0  0  0  0  0  0  0  0  0  0
    7.1464    0.3656    0.2515 H   0  0  0  0  0  0  0  0  0  0  0  0
    7.2058    1.8461   -0.7641 H   0  0  0  0  0  0  0  0  0  0  0  0
  1  3  1  0  0  0  0
  1  7  1  0  0  0  0
  1  2  2  0  0  0  0
 30 31  1  0  0  0  0
 31 39  1  0  0  0  0
 31 32  2  0  0  0  0
  8  9  1  0  0  0  0
  9 17  1  0  0  0  0
  9 10  2  0  0  0  0
 18 19  1  0  0  0  0
 19 29  1  0  0  0  0
 19 20  2  0  0  0  0
 21 22  1  0  0  0  0
 22 23  1  0  0  0  0
 22 24  2  0  0  0  0
 30 33  1  0  0  0  0
  8 11  1  0  0  0  0
 39 40  1  0  0  0  0
 18 21  1  0  0  0  0
 29 30  1  0  0  0  0
  7  8  1  0  0  0  0
 17 18  1  0  0  0  0
  3  4  1  0  0  0  0
  3  5  1  0  0  0  0
  3  6  1  0  0  0  0
 33 36  1  0  0  0  0
 33 37  1  0  0  0  0
 33 38  1  0  0  0  0
 11 14  1  0  0  0  0
 11 15  1  0  0  0  0
 11 16  1  0  0  0  0
 40 42  1  0  0  0  0
 40 43  1  0  0  0  0
 40 44  1  0  0  0  0
 21 27  1  0  0  0  0
 21 28  1  0  0  0  0
 30 35  1  0  0  0  0
  8 13  1  0  0  0  0
 18 26  1  0  0  0  0
 39 41  1  0  0  0  0
  7 12  1  0  0  0  0
 29 34  1  0  0  0  0
 17 25  1  0  0  0  0
M  CHG  1  23  -1
M  END
$$$$

  -OEChem-05262214473D

 44 43  0     1  0  0  0  0  0999 V2000
   -4.0256   -1.8030   -2.1581 C   0  0  0  0  0  0  0  0  0  0  0  0
   -3.7513   -2.6782   -2.9709 O   0  0  0  0  0  0  0  0  0  0  0  0
   -5.3491   -1.1169   -2.2339 C   0  0  0  0  0  0  0  0  0  0  0  0
   -5.3223   -0.2211   -2.8750 H   0  0  0  0  0  0  0  0  0  0  0  0
   -6.1322   -1.7605   -2.6658 H   0  0  0  0  0  0  0  0  0  0  0  0
   -5.7568   -0.7715   -1.2704 H   0  0  0  0  0  0  0  0  0  0  0  0
   -3.2124   -1.3578   -1.1289 N   0  0  0  0  0  0  0  0  0  0  0  0
   -1.8971   -1.8843   -0.8752 C   0  0  2  0  0  0  0  0  0  0  0  0
   -1.2676   -1.0599    0.2399 C   0  0  0  0  0  0  0  0  0  0  0  0
   -1.6270    0.0833    0.5138 O   0  0  0  0  0  0  0  0  0  0  0  0
   -1.0364   -1.8506   -2.1285 C   0  0  0  0  0  0  0  0  0  0  0  0
   -3.5631   -0.6202   -0.5206 H   0  0  0  0  0  0  0  0  0  0  0  0
   -2.0301   -2.9174   -0.5360 H   0  0  0  0  0  0  0  0  0  0  0  0
   -0.8921   -0.8236   -2.4833 H   0  0  0  0  0  0  0  0  0  0  0  0
   -0.0457   -2.2777   -1.9410 H   0  0  0  0  0  0  0  0  0  0  0  0
   -1.5052   -2.4193   -2.9387 H   0  0  0  0  0  0  0  0  0  0  0  0
   -0.2267   -1.7335    0.8672 N   0  0  0  0  0  0  0  0  0  0  0  0
    0.5363   -1.1590    1.9465 C   0  0  2  0  0  0  0  0  0  0  0  0
    1.1886    0.1103    1.4107 C   0  0  0  0  0  0  0  0  0  0  0  0
    0.5442    1.0760    1.0064 O   0  0  0  0  0  0  0  0  0  0  0  0
    1.5953   -2.1261    2.4708 C   0  0  0  0  0  0  0  0  0  0  0  0
    1.0795   -3.3609    3.2207 C   0  0  0  0  0  0  0  0  0  0  0  0
   -0.0240   -3.1815    3.8131 O   0  5  0  0  0  0  0  0  0  0  0  0
    1.8016   -4.3939    3.1727 O   0  0  0  0  0  0  0  0  0  0  0  0
   -0.0113   -2.6869    0.5854 H   0  0  0  0  0  0  0  0  0  0  0  0
   -0.1800   -0.8922    2.7318 H   0  0  0  0  0  0  0  0  0  0  0  0
    2.2864   -1.5913    3.1366 H   0  0  0  0  0  0  0  0  0  0  0  0
    2.1988   -2.5020    1.6343 H   0  0  0  0  0  0  0  0  0  0  0  0
    2.5734    0.0570    1.4863 N   0  0  0  0  0  0  0  0  0  0  0  0
    3.4220    1.1492    1.0698 C   0  0  2  0  0  0  0  0  0  0  0  0
    4.7288    0.5599    0.5558 C   0  0  0  0  0  0  0  0  0  0  0  0
    5.1334   -0.5558    0.8761 O   0  0  0  0  0  0  0  0  0  0  0  0
    3.6757    2.1197    2.2128 C   0  0  0  0  0  0  0  0  0  0  0  0
    3.0207   -0.7655    1.8801 H   0  0  0  0  0  0  0  0  0  0  0  0
    2.9029    1.6582    0.2503 H   0  0  0  0  0  0  0  0  0  0  0  0
    4.1950    1.6277    3.0433 H   0  0  0  0  0  0  0  0  0  0  0  0
    4.2955    2.9620    1.8880 H   0  0  0  0  0  0  0  0  0  0  0  0
    2.7328    2.5199    2.6009 H   0  0  0  0  0  0  0  0  0  0  0  0
    5.4113    1.4436   -0.2685 N   0  0  0  0  0  0  0  0  0  0  0  0
    6.6838    1.1226   -0.8717 C   0  0  0  0  0  0  0  0  0  0  0  0
    4.9921    2.3405   -0.4953 H   0  0  0  0  0  0  0  0  0  0  0  0
    7.4978    1.4737   -0.2205 H   0  0  0  0  0  0  0  0  0  0  0  0
    6.7630    0.0333   -1.0026 H   0  0  0  0  0  0  0  0  0  0  0  0
    6.7597    1.6162   -1.8518 H   0  0  0  0  0  0  0  0  0  0  0  0
  1  3  1  0  0  0  0
  1  7  1  0  0  0  0
  1  2  2  0  0  0  0
 30 31  1  0  0  0  0
 31 39  1  0  0  0  0
 31 32  2  0  0  0  0
  8  9  1  0  0  0  0
  9 17  1  0  0  0  0
  9 10  2  0  0  0  0
 18 19  1  0  0  0  0
 19 29  1  0  0  0  0
 19 20  2  0  0  0  0
 21 22  1  0  0  0  0
 22 23  1  0  0  0  0
 22 24  2  0  0  0  0
 30 33  1  0  0  0  0
  8 11  1  0  0  0  0
 39 40  1  0  0  0  0
 18 21  1  0  0  0  0
 29 30  1  0  0  0  0
  7  8  1  0  0  0  0
 17 18  1  0  0  0  0
  3  4  1  0  0  0  0
  3  5  1  0  0  0  0
  3  6  1  0  0  0  0
 33 36  1  0  0  0  0
 33 37  1  0  0  0  0
 33 38  1  0  0  0  0
 11 14  1  0  0  0  0
 11 15  1  0  0  0  0
 11 16  1  0  0  0  0
 40 42  1  0  0  0  0
 40 43  1  0  0  0  0
 40 44  1  0  0  0  0
 21 27  1  0  0  0  0
 21 28  1  0  0  0  0
 30 35  1  0  0  0  0
  8 13  1  0  0  0  0
 18 26  1  0  0  0  0
 39 41  1  0  0  0  0
  7 12  1  0  0  0  0
 29 34  1  0  0  0  0
 17 25  1  0  0  0  0
M  CHG  1  23  -1
M  END
$$$$

  -OEChem-05262214473D

 44 43  0     1  0  0  0  0  0999 V2000
   -4.0256   -1.8030   -2.1581 C   0  0  0  0  0  0  0  0  0  0  0  0
   -3.7513   -2.6782   -2.9709 O   0  0  0  0  0  0  0  0  0  0  0  0
   -5.3491   -1.1169   -2.2339 C   0  0  0  0  0  0  0  0  0  0  0  0
   -5.3223   -0.2211   -2.8750 H   0  0  0  0  0  0  0  0  0  0  0  0
   -6.1322   -1.7605   -2.6658 H   0  0  0  0  0  0  0  0  0  0  0  0
   -5.7568   -0.7715   -1.2704 H   0  0  0  0  0  0  0  0  0  0  0  0
   -3.2124   -1.3578   -1.1289 N   0  0  0  0  0  0  0  0  0  0  0  0
   -1.8971   -1.8843   -0.8752 C   0  0  2  0  0  0  0  0  0  0  0  0
   -1.2676   -1.0599    0.2399 C   0  0  0  0  0  0  0  0  0  0  0  0
   -1.6270    0.0833    0.5138 O   0  0  0  0  0  0  0  0  0  0  0  0
   -1.0364   -1.8506   -2.1285 C   0  0  0  0  0  0  0  0  0  0  0  0
   -3.5631   -0.6202   -0.5206 H   0  0  0  0  0  0  0  0  0  0  0  0
   -2.0301   -2.9174   -0.5360 H   0  0  0  0  0  0  0  0  0  0  0  0
   -0.8921   -0.8236   -2.4833 H   0  0  0  0  0  0  0  0  0  0  0  0
   -0.0457   -2.2777   -1.9410 H   0  0  0  0  0  0  0  0  0  0  0  0
   -1.5052   -2.4193   -2.9387 H   0  0  0  0  0  0  0  0  0  0  0  0
   -0.2267   -1.7335    0.8672 N   0  0  0  0  0  0  0  0  0  0  0  0
    0.5363   -1.1590    1.9465 C   0  0  2  0  0  0  0  0  0  0  0  0
    1.1886    0.1103    1.4107 C   0  0  0  0  0  0  0  0  0  0  0  0
    0.5766    1.1655    1.2580 O   0  0  0  0  0  0  0  0  0  0  0  0
    1.5953   -2.1261    2.4708 C   0  0  0  0  0  0  0  0  0  0  0  0
    1.0795   -3.3609    3.2207 C   0  0  0  0  0  0  0  0  0  0  0  0
   -0.0240   -3.1815    3.8131 O   0  5  0  0  0  0  0  0  0  0  0  0
    1.8016   -4.3939    3.1727 O   0  0  0  0  0  0  0  0  0  0  0  0
   -0.0113   -2.6869    0.5854 H   0  0  0  0  0  0  0  0  0  0  0  0
   -0.1800   -0.8922    2.7318 H   0  0  0  0  0  0  0  0  0  0  0  0
    2.2864   -1.5913    3.1366 H   0  0  0  0  0  0  0  0  0  0  0  0
    2.1988   -2.5020    1.6343 H   0  0  0  0  0  0  0  0  0  0  0  0
    2.5453   -0.0607    1.1731 N   0  0  0  0  0  0  0  0  0  0  0  0
    3.3952    1.0035    0.6919 C   0  0  2  0  0  0  0  0  0  0  0  0
    4.4968    0.3794   -0.1545 C   0  0  0  0  0  0  0  0  0  0  0  0
    4.8424   -0.7953   -0.0454 O   0  0  0  0  0  0  0  0  0  0  0  0
    3.9824    1.8059    1.8426 C   0  0  0  0  0  0  0  0  0  0  0  0
    2.9782   -0.9575    1.3736 H   0  0  0  0  0  0  0  0  0  0  0  0
    2.7707    1.6470    0.0627 H   0  0  0  0  0  0  0  0  0  0  0  0
    4.6113    1.1778    2.4841 H   0  0  0  0  0  0  0  0  0  0  0  0
    4.6035    2.6297    1.4756 H   0  0  0  0  0  0  0  0  0  0  0  0
    3.1887    2.2293    2.4675 H   0  0  0  0  0  0  0  0  0  0  0  0
    5.0779    1.2995   -1.0157 N   0  0  0  0  0  0  0  0  0  0  0  0
    6.1550    0.9544   -1.9140 C   0  0  0  0  0  0  0  0  0  0  0  0
    4.7152    2.2476   -1.0528 H   0  0  0  0  0  0  0  0  0  0  0  0
    7.1196    1.1591   -1.4264 H   0  0  0  0  0  0  0  0  0  0  0  0
    6.0922   -0.1139   -2.1682 H   0  0  0  0  0  0  0  0  0  0  0  0
    6.0735    1.5552   -2.8318 H   0  0  0  0  0  0  0  0  0  0  0  0
  1  3  1  0  0  0  0
  1  7  1  0  0  0  0
  1  2  2  0  0  0  0
 30 31  1  0  0  0  0
 31 39  1  0  0  0  0
 31 32  2  0  0  0  0
  8  9  1  0  0  0  0
  9 17  1  0  0  0  0
  9 10  2  0  0  0  0
 18 19  1  0  0  0  0
 19 29  1  0  0  0  0
 19 20  2  0  0  0  0
 21 22  1  0  0  0  0
 22 23  1  0  0  0  0
 22 24  2  0  0  0  0
 30 33  1  0  0  0  0
  8 11  1  0  0  0  0
 39 40  1  0  0  0  0
 18 21  1  0  0  0  0
 29 30  1  0  0  0  0
  7  8  1  0  0  0  0
 17 18  1  0  0  0  0
  3  4  1  0  0  0  0
  3  5  1  0  0  0  0
  3  6  1  0  0  0  0
 33 36  1  0  0  0  0
 33 37  1  0  0  0  0
 33 38  1  0  0  0  0
 11 14  1  0  0  0  0
 11 15  1  0  0  0  0
 11 16  1  0  0  0  0
 40 42  1  0  0  0  0
 40 43  1  0  0  0  0
 40 44  1  0  0  0  0
 21 27  1  0  0  0  0
 21 28  1  0  0  0  0
 30 35  1  0  0  0  0
  8 13  1  0  0  0  0
 18 26  1  0  0  0  0
 39 41  1  0  0  0  0
  7 12  1  0  0  0  0
 29 34  1  0  0  0  0
 17 25  1  0  0  0  0
M  CHG  1  23  -1
M  END
$$$$

  -OEChem-05262214473D

 44 43  0     1  0  0  0  0  0999 V2000
   -4.0256   -1.8030   -2.1581 C   0  0  0  0  0  0  0  0  0  0  0  0
   -3.7513   -2.6782   -2.9709 O   0  0  0  0  0  0  0  0  0  0  0  0
   -5.3491   -1.1169   -2.2339 C   0  0  0  0  0  0  0  0  0  0  0  0
   -5.3223   -0.2211   -2.8750 H   0  0  0  0  0  0  0  0  0  0  0  0
   -6.1322   -1.7605   -2.6658 H   0  0  0  0  0  0  0  0  0  0  0  0
   -5.7568   -0.7715   -1.2704 H   0  0  0  0  0  0  0  0  0  0  0  0
   -3.2124   -1.3578   -1.1289 N   0  0  0  0  0  0  0  0  0  0  0  0
   -1.8971   -1.8843   -0.8752 C   0  0  2  0  0  0  0  0  0  0  0  0
   -1.2676   -1.0599    0.2399 C   0  0  0  0  0  0  0  0  0  0  0  0
   -1.6270    0.0833    0.5138 O   0  0  0  0  0  0  0  0  0  0  0  0
   -1.0364   -1.8506   -2.1285 C   0  0  0  0  0  0  0  0  0  0  0  0
   -3.5631   -0.6202   -0.5206 H   0  0  0  0  0  0  0  0  0  0  0  0
   -2.0301   -2.9174   -0.5360 H   0  0  0  0  0  0  0  0  0  0  0  0
   -0.8921   -0.8236   -2.4833 H   0  0  0  0  0  0  0  0  0  0  0  0
   -0.0457   -2.2777   -1.9410 H   0  0  0  0  0  0  0  0  0  0  0  0
   -1.5052   -2.4193   -2.9387 H   0  0  0  0  0  0  0  0  0  0  0  0
   -0.2267   -1.7335    0.8672 N   0  0  0  0  0  0  0  0  0  0  0  0
    0.5363   -1.1590    1.9465 C   0  0  2  0  0  0  0  0  0  0  0  0
    1.1886    0.1103    1.4107 C   0  0  0  0  0  0  0  0  0  0  0  0
    0.6703    1.2211    1.5040 O   0  0  0  0  0  0  0  0  0  0  0  0
    1.5953   -2.1261    2.4708 C   0  0  0  0  0  0  0  0  0  0  0  0
    1.0795   -3.3609    3.2207 C   0  0  0  0  0  0  0  0  0  0  0  0
   -0.0240   -3.1815    3.8131 O   0  5  0  0  0  0  0  0  0  0  0  0
    1.8016   -4.3939    3.1727 O   0  0  0  0  0  0  0  0  0  0  0  0
   -0.0113   -2.6869    0.5854 H   0  0  0  0  0  0  0  0  0  0  0  0
   -0.1800   -0.8922    2.7318 H   0  0  0  0  0  0  0  0  0  0  0  0
    2.2864   -1.5913    3.1366 H   0  0  0  0  0  0  0  0  0  0  0  0
    2.1988   -2.5020    1.6343 H   0  0  0  0  0  0  0  0  0  0  0  0
    2.4399   -0.1371    0.8636 N   0  0  0  0  0  0  0  0  0  0  0  0
    3.2746    0.9070    0.3165 C   0  0  2  0  0  0  0  0  0  0  0  0
    4.1031    0.3048   -0.8105 C   0  0  0  0  0  0  0  0  0  0  0  0
    4.3410   -0.8980   -0.8994 O   0  0  0  0  0  0  0  0  0  0  0  0
    4.1703    1.5158    1.3842 C   0  0  0  0  0  0  0  0  0  0  0  0
    2.8105   -1.0829    0.8722 H   0  0  0  0  0  0  0  0  0  0  0  0
    2.6015    1.6690   -0.0912 H   0  0  0  0  0  0  0  0  0  0  0  0
    4.8519    0.7673    1.8045 H   0  0  0  0  0  0  0  0  0  0  0  0
    4.7818    2.3263    0.9741 H   0  0  0  0  0  0  0  0  0  0  0  0
    3.5738    1.9220    2.2082 H   0  0  0  0  0  0  0  0  0  0  0  0
    4.5818    1.2735   -1.6815 N   0  0  0  0  0  0  0  0  0  0  0  0
    5.4043    0.9555   -2.8254 C   0  0  0  0  0  0  0  0  0  0  0  0
    4.3191    2.2447   -1.5419 H   0  0  0  0  0  0  0  0  0  0  0  0
    6.4657    1.0231   -2.5446 H   0  0  0  0  0  0  0  0  0  0  0  0
    5.1796   -0.0660   -3.1659 H   0  0  0  0  0  0  0  0  0  0  0  0
    5.1939    1.6673   -3.6373 H   0  0  0  0  0  0  0  0  0  0  0  0
  1  3  1  0  0  0  0
  1  7  1  0  0  0  0
  1  2  2  0  0  0  0
 30 31  1  0  0  0  0
 31 39  1  0  0  0  0
 31 32  2  0  0  0  0
  8  9  1  0  0  0  0
  9 17  1  0  0  0  0
  9 10  2  0  0  0  0
 18 19  1  0  0  0  0
 19 29  1  0  0  0  0
 19 20  2  0  0  0  0
 21 22  1  0  0  0  0
 22 23  1  0  0  0  0
 22 24  2  0  0  0  0
 30 33  1  0  0  0  0
  8 11  1  0  0  0  0
 39 40  1  0  0  0  0
 18 21  1  0  0  0  0
 29 30  1  0  0  0  0
  7  8  1  0  0  0  0
 17 18  1  0  0  0  0
  3  4  1  0  0  0  0
  3  5  1  0  0  0  0
  3  6  1  0  0  0  0
 33 36  1  0  0  0  0
 33 37  1  0  0  0  0
 33 38  1  0  0  0  0
 11 14  1  0  0  0  0
 11 15  1  0  0  0  0
 11 16  1  0  0  0  0
 40 42  1  0  0  0  0
 40 43  1  0  0  0  0
 40 44  1  0  0  0  0
 21 27  1  0  0  0  0
 21 28  1  0  0  0  0
 30 35  1  0  0  0  0
  8 13  1  0  0  0  0
 18 26  1  0  0  0  0
 39 41  1  0  0  0  0
  7 12  1  0  0  0  0
 29 34  1  0  0  0  0
 17 25  1  0  0  0  0
M  CHG  1  23  -1
M  END
$$$$

  -OEChem-05262214473D

 44 43  0     1  0  0  0  0  0999 V2000
   -4.0256   -1.8030   -2.1581 C   0  0  0  0  0  0  0  0  0  0  0  0
   -3.7513   -2.6782   -2.9709 O   0  0  0  0  0  0  0  0  0  0  0  0
   -5.3491   -1.1169   -2.2339 C   0  0  0  0  0  0  0  0  0  0  0  0
   -5.3223   -0.2211   -2.8750 H   0  0  0  0  0  0  0  0  0  0  0  0
   -6.1322   -1.7605   -2.6658 H   0  0  0  0  0  0  0  0  0  0  0  0
   -5.7568   -0.7715   -1.2704 H   0  0  0  0  0  0  0  0  0  0  0  0
   -3.2124   -1.3578   -1.1289 N   0  0  0  0  0  0  0  0  0  0  0  0
   -1.8971   -1.8843   -0.8752 C   0  0  2  0  0  0  0  0  0  0  0  0
   -1.2676   -1.0599    0.2399 C   0  0  0  0  0  0  0  0  0  0  0  0
   -1.6270    0.0833    0.5138 O   0  0  0  0  0  0  0  0  0  0  0  0
   -1.0364   -1.8506   -2.1285 C   0  0  0  0  0  0  0  0  0  0  0  0
   -3.5631   -0.6202   -0.5206 H   0  0  0  0  0  0  0  0  0  0  0  0
   -2.0301   -2.9174   -0.5360 H   0  0  0  0  0  0  0  0  0  0  0  0
   -0.8921   -0.8236   -2.4833 H   0  0  0  0  0  0  0  0  0  0  0  0
   -0.0457   -2.2777   -1.9410 H   0  0  0  0  0  0  0  0  0  0  0  0
   -1.5052   -2.4193   -2.9387 H   0  0  0  0  0  0  0  0  0  0  0  0
   -0.2267   -1.7335    0.8672 N   0  0  0  0  0  0  0  0  0  0  0  0
    0.5363   -1.1590    1.9465 C   0  0  2  0  0  0  0  0  0  0  0  0
    1.1886    0.1103    1.4107 C   0  0  0  0  0  0  0  0  0  0  0  0
    0.8189    1.2391    1.7275 O   0  0  0  0  0  0  0  0  0  0  0  0
    1.5953   -2.1261    2.4708 C   0  0  0  0  0  0  0  0  0  0  0  0
    1.0795   -3.3609    3.2207 C   0  0  0  0  0  0  0  0  0  0  0  0
   -0.0240   -3.1815    3.8131 O   0  5  0  0  0  0  0  0  0  0  0  0
    1.8016   -4.3939    3.1727 O   0  0  0  0  0  0  0  0  0  0  0  0
   -0.0113   -2.6869    0.5854 H   0  0  0  0  0  0  0  0  0  0  0  0
   -0.1800   -0.8922    2.7318 H   0  0  0  0  0  0  0  0  0  0  0  0
    2.2864   -1.5913    3.1366 H   0  0  0  0  0  0  0  0  0  0  0  0
    2.1988   -2.5020    1.6343 H   0  0  0  0  0  0  0  0  0  0  0  0
    2.2644   -0.1671    0.5789 N   0  0  0  0  0  0  0  0  0  0  0  0
    3.0685    0.8664   -0.0307 C   0  0  2  0  0  0  0  0  0  0  0  0
    3.5747    0.3412   -1.3676 C   0  0  0  0  0  0  0  0  0  0  0  0
    3.6633   -0.8570   -1.6275 O   0  0  0  0  0  0  0  0  0  0  0  0
    4.2267    1.2693    0.8687 C   0  0  0  0  0  0  0  0  0  0  0  0
    2.5290   -1.1332    0.4102 H   0  0  0  0  0  0  0  0  0  0  0  0
    2.4069    1.7227   -0.2010 H   0  0  0  0  0  0  0  0  0  0  0  0
    4.9005    0.4241    1.0507 H   0  0  0  0  0  0  0  0  0  0  0  0
    4.8184    2.0727    0.4177 H   0  0  0  0  0  0  0  0  0  0  0  0
    3.8620    1.6188    1.8407 H   0  0  0  0  0  0  0  0  0  0  0  0
    3.9567    1.3672   -2.2206 N   0  0  0  0  0  0  0  0  0  0  0  0
    4.4829    1.1258   -3.5438 C   0  0  0  0  0  0  0  0  0  0  0  0
    3.8308    2.3321   -1.9294 H   0  0  0  0  0  0  0  0  0  0  0  0
    5.5808    1.0752   -3.4988 H   0  0  0  0  0  0  0  0  0  0  0  0
    4.0874    0.1738   -3.9275 H   0  0  0  0  0  0  0  0  0  0  0  0
    4.1809    1.9447   -4.2133 H   0  0  0  0  0  0  0  0  0  0  0  0
  1  3  1  0  0  0  0
  1  7  1  0  0  0  0
  1  2  2  0  0  0  0
 30 31  1  0  0  0  0
 31 39  1  0  0  0  0
 31 32  2  0  0  0  0
  8  9  1  0  0  0  0
  9 17  1  0  0  0  0
  9 10  2  0  0  0  0
 18 19  1  0  0  0  0
 19 29  1  0  0  0  0
 19 20  2  0  0  0  0
 21 22  1  0  0  0  0
 22 23  1  0  0  0  0
 22 24  2  0  0  0  0
 30 33  1  0  0  0  0
  8 11  1  0  0  0  0
 39 40  1  0  0  0  0
 18 21  1  0  0  0  0
 29 30  1  0  0  0  0
  7  8  1  0  0  0  0
 17 18  1  0  0  0  0
  3  4  1  0  0  0  0
  3  5  1  0  0  0  0
  3  6  1  0  0  0  0
 33 36  1  0  0  0  0
 33 37  1  0  0  0  0
 33 38  1  0  0  0  0
 11 14  1  0  0  0  0
 11 15  1  0  0  0  0
 11 16  1  0  0  0  0
 40 42  1  0  0  0  0
 40 43  1  0  0  0  0
 40 44  1  0  0  0  0
 21 27  1  0  0  0  0
 21 28  1  0  0  0  0
 30 35  1  0  0  0  0
  8 13  1  0  0  0  0
 18 26  1  0  0  0  0
 39 41  1  0  0  0  0
  7 12  1  0  0  0  0
 29 34  1  0  0  0  0
 17 25  1  0  0  0  0
M  CHG  1  23  -1
M  END
$$$$

  -OEChem-05262214473D

 44 43  0     1  0  0  0  0  0999 V2000
   -4.0256   -1.8030   -2.1581 C   0  0  0  0  0  0  0  0  0  0  0  0
   -3.7513   -2.6782   -2.9709 O   0  0  0  0  0  0  0  0  0  0  0  0
   -5.3491   -1.1169   -2.2339 C   0  0  0  0  0  0  0  0  0  0  0  0
   -5.3223   -0.2211   -2.8750 H   0  0  0  0  0  0  0  0  0  0  0  0
   -6.1322   -1.7605   -2.6658 H   0  0  0  0  0  0  0  0  0  0  0  0
   -5.7568   -0.7715   -1.2704 H   0  0  0  0  0  0  0  0  0  0  0  0
   -3.2124   -1.3578   -1.1289 N   0  0  0  0  0  0  0  0  0  0  0  0
   -1.8971   -1.8843   -0.8752 C   0  0  2  0  0  0  0  0  0  0  0  0
   -1.2676   -1.0599    0.2399 C   0  0  0  0  0  0  0  0  0  0  0  0
   -1.6270    0.0833    0.5138 O   0  0  0  0  0  0  0  0  0  0  0  0
   -1.0364   -1.8506   -2.1285 C   0  0  0  0  0  0  0  0  0  0  0  0
   -3.5631   -0.6202   -0.5206 H   0  0  0  0  0  0  0  0  0  0  0  0
   -2.0301   -2.9174   -0.5360 H   0  0  0  0  0  0  0  0  0  0  0  0
   -0.8921   -0.8236   -2.4833 H   0  0  0  0  0  0  0  0  0  0  0  0
   -0.0457   -2.2777   -1.9410 H   0  0  0  0  0  0  0  0  0  0  0  0
   -1.5052   -2.4193   -2.9387 H   0  0  0  0  0  0  0  0  0  0  0  0
   -0.2267   -1.7335    0.8672 N   0  0  0  0  0  0  0  0  0  0  0  0
    0.5363   -1.1590    1.9465 C   0  0  2  0  0  0  0  0  0  0  0  0
    1.1886    0.1103    1.4107 C   0  0  0  0  0  0  0  0  0  0  0  0
    1.0122    1.2182    1.9134 O   0  0  0  0  0  0  0  0  0  0  0  0
    1.5953   -2.1261    2.4708 C   0  0  0  0  0  0  0  0  0  0  0  0
    1.0795   -3.3609    3.2207 C   0  0  0  0  0  0  0  0  0  0  0  0
   -0.0240   -3.1815    3.8131 O   0  5  0  0  0  0  0  0  0  0  0  0
    1.8016   -4.3939    3.1727 O   0  0  0  0  0  0  0  0  0  0  0  0
   -0.0113   -2.6869    0.5854 H   0  0  0  0  0  0  0  0  0  0  0  0
   -0.1800   -0.8922    2.7318 H   0  0  0  0  0  0  0  0  0  0  0  0
    2.2864   -1.5913    3.1366 H   0  0  0  0  0  0  0  0  0  0  0  0
    2.1988   -2.5020    1.6343 H   0  0  0  0  0  0  0  0  0  0  0  0
    2.0309   -0.1486    0.3385 N   0  0  0  0  0  0  0  0  0  0  0  0
    2.7909    0.8843   -0.3263 C   0  0  2  0  0  0  0  0  0  0  0  0
    2.9476    0.4861   -1.7879 C   0  0  0  0  0  0  0  0  0  0  0  0
    2.8554   -0.6752   -2.1803 O   0  0  0  0  0  0  0  0  0  0  0  0
    4.1476    1.0832    0.3314 C   0  0  0  0  0  0  0  0  0  0  0  0
    2.1530   -1.1051    0.0190 H   0  0  0  0  0  0  0  0  0  0  0  0
    2.2001    1.8044   -0.2591 H   0  0  0  0  0  0  0  0  0  0  0  0
    4.7538    0.1717    0.2741 H   0  0  0  0  0  0  0  0  0  0  0  0
    4.7108    1.8859   -0.1557 H   0  0  0  0  0  0  0  0  0  0  0  0
    4.0335    1.3404    1.3900 H   0  0  0  0  0  0  0  0  0  0  0  0
    3.2452    1.5743   -2.5962 N   0  0  0  0  0  0  0  0  0  0  0  0
    3.4535    1.4537   -4.0204 C   0  0  0  0  0  0  0  0  0  0  0  0
    3.2836    2.5039   -2.1887 H   0  0  0  0  0  0  0  0  0  0  0  0
    4.5251    1.3116   -4.2240 H   0  0  0  0  0  0  0  0  0  0  0  0
    2.8902    0.5891   -4.4013 H   0  0  0  0  0  0  0  0  0  0  0  0
    3.1035    2.3687   -4.5207 H   0  0  0  0  0  0  0  0  0  0  0  0
  1  3  1  0  0  0  0
  1  7  1  0  0  0  0
  1  2  2  0  0  0  0
 30 31  1  0  0  0  0
 31 39  1  0  0  0  0
 31 32  2  0  0  0  0
  8  9  1  0  0  0  0
  9 17  1  0  0  0  0
  9 10  2  0  0  0  0
 18 19  1  0  0  0  0
 19 29  1  0  0  0  0
 19 20  2  0  0  0  0
 21 22  1  0  0  0  0
 22 23  1  0  0  0  0
 22 24  2  0  0  0  0
 30 33  1  0  0  0  0
  8 11  1  0  0  0  0
 39 40  1  0  0  0  0
 18 21  1  0  0  0  0
 29 30  1  0  0  0  0
  7  8  1  0  0  0  0
 17 18  1  0  0  0  0
  3  4  1  0  0  0  0
  3  5  1  0  0  0  0
  3  6  1  0  0  0  0
 33 36  1  0  0  0  0
 33 37  1  0  0  0  0
 33 38  1  0  0  0  0
 11 14  1  0  0  0  0
 11 15  1  0  0  0  0
 11 16  1  0  0  0  0
 40 42  1  0  0  0  0
 40 43  1  0  0  0  0
 40 44  1  0  0  0  0
 21 27  1  0  0  0  0
 21 28  1  0  0  0  0
 30 35  1  0  0  0  0
  8 13  1  0  0  0  0
 18 26  1  0  0  0  0
 39 41  1  0  0  0  0
  7 12  1  0  0  0  0
 29 34  1  0  0  0  0
 17 25  1  0  0  0  0
M  CHG  1  23  -1
M  END
$$$$

  -OEChem-05262214473D

 44 43  0     1  0  0  0  0  0999 V2000
   -4.0256   -1.8030   -2.1581 C   0  0  0  0  0  0  0  0  0  0  0  0
   -3.7513   -2.6782   -2.9709 O   0  0  0  0  0  0  0  0  0  0  0  0
   -5.3491   -1.1169   -2.2339 C   0  0  0  0  0  0  0  0  0  0  0  0
   -5.3223   -0.2211   -2.8750 H   0  0  0  0  0  0  0  0  0  0  0  0
   -6.1322   -1.7605   -2.6658 H   0  0  0  0  0  0  0  0  0  0  0  0
   -5.7568   -0.7715   -1.2704 H   0  0  0  0  0  0  0  0  0  0  0  0
   -3.2124   -1.3578   -1.1289 N   0  0  0  0  0  0  0  0  0  0  0  0
   -1.8971   -1.8843   -0.8752 C   0  0  2  0  0  0  0  0  0  0  0  0
   -1.2676   -1.0599    0.2399 C   0  0  0  0  0  0  0  0  0  0  0  0
   -1.6270    0.0833    0.5138 O   0  0  0  0  0  0  0  0  0  0  0  0
   -1.0364   -1.8506   -2.1285 C   0  0  0  0  0  0  0  0  0  0  0  0
   -3.5631   -0.6202   -0.5206 H   0  0  0  0  0  0  0  0  0  0  0  0
   -2.0301   -2.9174   -0.5360 H   0  0  0  0  0  0  0  0  0  0  0  0
   -0.8921   -0.8236   -2.4833 H   0  0  0  0  0  0  0  0  0  0  0  0
   -0.0457   -2.2777   -1.9410 H   0  0  0  0  0  0  0  0  0  0  0  0
   -1.5052   -2.4193   -2.9387 H   0  0  0  0  0  0  0  0  0  0  0  0
   -0.2267   -1.7335    0.8672 N   0  0  0  0  0  0  0  0  0  0  0  0
    0.5363   -1.1590    1.9465 C   0  0  2  0  0  0  0  0  0  0  0  0
    1.1886    0.1103    1.4107 C   0  0  0  0  0  0  0  0  0  0  0  0
    1.2371    1.1599    2.0489 O   0  0  0  0  0  0  0  0  0  0  0  0
    1.5953   -2.1261    2.4708 C   0  0  0  0  0  0  0  0  0  0  0  0
    1.0795   -3.3609    3.2207 C   0  0  0  0  0  0  0  0  0  0  0  0
   -0.0240   -3.1815    3.8131 O   0  5  0  0  0  0  0  0  0  0  0  0
    1.8016   -4.3939    3.1727 O   0  0  0  0  0  0  0  0  0  0  0  0
   -0.0113   -2.6869    0.5854 H   0  0  0  0  0  0  0  0  0  0  0  0
   -0.1800   -0.8922    2.7318 H   0  0  0  0  0  0  0  0  0  0  0  0
    2.2864   -1.5913    3.1366 H   0  0  0  0  0  0  0  0  0  0  0  0
    2.1988   -2.5020    1.6343 H   0  0  0  0  0  0  0  0  0  0  0  0
    1.7552   -0.0828    0.1585 N   0  0  0  0  0  0  0  0  0  0  0  0
    2.4606    0.9597   -0.5499 C   0  0  2  0  0  0  0  0  0  0  0  0
    2.2644    0.7297   -2.0426 C   0  0  0  0  0  0  0  0  0  0  0  0
    1.9725   -0.3648   -2.5200 O   0  0  0  0  0  0  0  0  0  0  0  0
    3.9384    0.9701   -0.1912 C   0  0  0  0  0  0  0  0  0  0  0  0
    1.7080   -1.0004   -0.2747 H   0  0  0  0  0  0  0  0  0  0  0  0
    1.9953    1.9086   -0.2617 H   0  0  0  0  0  0  0  0  0  0  0  0
    4.4217    0.0273   -0.4724 H   0  0  0  0  0  0  0  0  0  0  0  0
    4.4663    1.7789   -0.7071 H   0  0  0  0  0  0  0  0  0  0  0  0
    4.0768    1.1058    0.8869 H   0  0  0  0  0  0  0  0  0  0  0  0
    2.4959    1.8806   -2.7828 N   0  0  0  0  0  0  0  0  0  0  0  0
    2.3863    1.9168   -4.2225 C   0  0  0  0  0  0  0  0  0  0  0  0
    2.7148    2.7483   -2.3022 H   0  0  0  0  0  0  0  0  0  0  0  0
    3.3706    1.7163   -4.6708 H   0  0  0  0  0  0  0  0  0  0  0  0
    1.6694    1.1516   -4.5549 H   0  0  0  0  0  0  0  0  0  0  0  0
    2.0352    2.9102   -4.5385 H   0  0  0  0  0  0  0  0  0  0  0  0
  1  3  1  0  0  0  0
  1  7  1  0  0  0  0
  1  2  2  0  0  0  0
 30 31  1  0  0  0  0
 31 39  1  0  0  0  0
 31 32  2  0  0  0  0
  8  9  1  0  0  0  0
  9 17  1  0  0  0  0
  9 10  2  0  0  0  0
 18 19  1  0  0  0  0
 19 29  1  0  0  0  0
 19 20  2  0  0  0  0
 21 22  1  0  0  0  0
 22 23  1  0  0  0  0
 22 24  2  0  0  0  0
 30 33  1  0  0  0  0
  8 11  1  0  0  0  0
 39 40  1  0  0  0  0
 18 21  1  0  0  0  0
 29 30  1  0  0  0  0
  7  8  1  0  0  0  0
 17 18  1  0  0  0  0
  3  4  1  0  0  0  0
  3  5  1  0  0  0  0
  3  6  1  0  0  0  0
 33 36  1  0  0  0  0
 33 37  1  0  0  0  0
 33 38  1  0  0  0  0
 11 14  1  0  0  0  0
 11 15  1  0  0  0  0
 11 16  1  0  0  0  0
 40 42  1  0  0  0  0
 40 43  1  0  0  0  0
 40 44  1  0  0  0  0
 21 27  1  0  0  0  0
 21 28  1  0  0  0  0
 30 35  1  0  0  0  0
  8 13  1  0  0  0  0
 18 26  1  0  0  0  0
 39 41  1  0  0  0  0
  7 12  1  0  0  0  0
 29 34  1  0  0  0  0
 17 25  1  0  0  0  0
M  CHG  1  23  -1
M  END
$$$$

  -OEChem-05262214473D

 44 43  0     1  0  0  0  0  0999 V2000
   -4.0256   -1.8030   -2.1581 C   0  0  0  0  0  0  0  0  0  0  0  0
   -3.7513   -2.6782   -2.9709 O   0  0  0  0  0  0  0  0  0  0  0  0
   -5.3491   -1.1169   -2.2339 C   0  0  0  0  0  0  0  0  0  0  0  0
   -5.3223   -0.2211   -2.8750 H   0  0  0  0  0  0  0  0  0  0  0  0
   -6.1322   -1.7605   -2.6658 H   0  0  0  0  0  0  0  0  0  0  0  0
   -5.7568   -0.7715   -1.2704 H   0  0  0  0  0  0  0  0  0  0  0  0
   -3.2124   -1.3578   -1.1289 N   0  0  0  0  0  0  0  0  0  0  0  0
   -1.8971   -1.8843   -0.8752 C   0  0  2  0  0  0  0  0  0  0  0  0
   -1.2676   -1.0599    0.2399 C   0  0  0  0  0  0  0  0  0  0  0  0
   -1.6270    0.0833    0.5138 O   0  0  0  0  0  0  0  0  0  0  0  0
   -1.0364   -1.8506   -2.1285 C   0  0  0  0  0  0  0  0  0  0  0  0
   -3.5631   -0.6202   -0.5206 H   0  0  0  0  0  0  0  0  0  0  0  0
   -2.0301   -2.9174   -0.5360 H   0  0  0  0  0  0  0  0  0  0  0  0
   -0.8921   -0.8236   -2.4833 H   0  0  0  0  0  0  0  0  0  0  0  0
   -0.0457   -2.2777   -1.9410 H   0  0  0  0  0  0  0  0  0  0  0  0
   -1.5052   -2.4193   -2.9387 H   0  0  0  0  0  0  0  0  0  0  0  0
   -0.2267   -1.7335    0.8672 N   0  0  0  0  0  0  0  0  0  0  0  0
    0.5363   -1.1590    1.9465 C   0  0  2  0  0  0  0  0  0  0  0  0
    1.1886    0.1103    1.4107 C   0  0  0  0  0  0  0  0  0  0  0  0
    1.4782    1.0680    2.1250 O   0  0  0  0  0  0  0  0  0  0  0  0
    1.5953   -2.1261    2.4708 C   0  0  0  0  0  0  0  0  0  0  0  0
    1.0795   -3.3609    3.2207 C   0  0  0  0  0  0  0  0  0  0  0  0
   -0.0240   -3.1815    3.8131 O   0  5  0  0  0  0  0  0  0  0  0  0
    1.8016   -4.3939    3.1727 O   0  0  0  0  0  0  0  0  0  0  0  0
   -0.0113   -2.6869    0.5854 H   0  0  0  0  0  0  0  0  0  0  0  0
   -0.1800   -0.8922    2.7318 H   0  0  0  0  0  0  0  0  0  0  0  0
    2.2864   -1.5913    3.1366 H   0  0  0  0  0  0  0  0  0  0  0  0
    2.1988   -2.5020    1.6343 H   0  0  0  0  0  0  0  0  0  0  0  0
    1.4560    0.0257    0.0515 N   0  0  0  0  0  0  0  0  0  0  0  0
    2.1003    1.0872   -0.6864 C   0  0  2  0  0  0  0  0  0  0  0  0
    1.5718    1.0553   -2.1144 C   0  0  0  0  0  0  0  0  0  0  0  0
    1.0747    0.0529   -2.6234 O   0  0  0  0  0  0  0  0  0  0  0  0
    3.6135    0.9377   -0.6634 C   0  0  0  0  0  0  0  0  0  0  0  0
    1.2244   -0.8262   -0.4509 H   0  0  0  0  0  0  0  0  0  0  0  0
    1.8064    2.0281   -0.2085 H   0  0  0  0  0  0  0  0  0  0  0  0
    3.9270    0.0007   -1.1379 H   0  0  0  0  0  0  0  0  0  0  0  0
    4.1015    1.7588   -1.1989 H   0  0  0  0  0  0  0  0  0  0  0  0
    3.9889    0.9310    0.3656 H   0  0  0  0  0  0  0  0  0  0  0  0
    1.7598    2.2653   -2.7676 N   0  0  0  0  0  0  0  0  0  0  0  0
    1.3541    2.4836   -4.1364 C   0  0  0  0  0  0  0  0  0  0  0  0
    2.1631    3.0486   -2.2621 H   0  0  0  0  0  0  0  0  0  0  0  0
    2.1960    2.2618   -4.8088 H   0  0  0  0  0  0  0  0  0  0  0  0
    0.5083    1.8231   -4.3779 H   0  0  0  0  0  0  0  0  0  0  0  0
    1.0486    3.5325   -4.2654 H   0  0  0  0  0  0  0  0  0  0  0  0
  1  3  1  0  0  0  0
  1  7  1  0  0  0  0
  1  2  2  0  0  0  0
 30 31  1  0  0  0  0
 31 39  1  0  0  0  0
 31 32  2  0  0  0  0
  8  9  1  0  0  0  0
  9 17  1  0  0  0  0
  9 10  2  0  0  0  0
 18 19  1  0  0  0  0
 19 29  1  0  0  0  0
 19 20  2  0  0  0  0
 21 22  1  0  0  0  0
 22 23  1  0  0  0  0
 22 24  2  0  0  0  0
 30 33  1  0  0  0  0
  8 11  1  0  0  0  0
 39 40  1  0  0  0  0
 18 21  1  0  0  0  0
 29 30  1  0  0  0  0
  7  8  1  0  0  0  0
 17 18  1  0  0  0  0
  3  4  1  0  0  0  0
  3  5  1  0  0  0  0
  3  6  1  0  0  0  0
 33 36  1  0  0  0  0
 33 37  1  0  0  0  0
 33 38  1  0  0  0  0
 11 14  1  0  0  0  0
 11 15  1  0  0  0  0
 11 16  1  0  0  0  0
 40 42  1  0  0  0  0
 40 43  1  0  0  0  0
 40 44  1  0  0  0  0
 21 27  1  0  0  0  0
 21 28  1  0  0  0  0
 30 35  1  0  0  0  0
  8 13  1  0  0  0  0
 18 26  1  0  0  0  0
 39 41  1  0  0  0  0
  7 12  1  0  0  0  0
 29 34  1  0  0  0  0
 17 25  1  0  0  0  0
M  CHG  1  23  -1
M  END
$$$$

  -OEChem-05262214473D

 44 43  0     1  0  0  0  0  0999 V2000
   -4.0256   -1.8030   -2.1581 C   0  0  0  0  0  0  0  0  0  0  0  0
   -3.7513   -2.6782   -2.9709 O   0  0  0  0  0  0  0  0  0  0  0  0
   -5.3491   -1.1169   -2.2339 C   0  0  0  0  0  0  0  0  0  0  0  0
   -5.3223   -0.2211   -2.8750 H   0  0  0  0  0  0  0  0  0  0  0  0
   -6.1322   -1.7605   -2.6658 H   0  0  0  0  0  0  0  0  0  0  0  0
   -5.7568   -0.7715   -1.2704 H   0  0  0  0  0  0  0  0  0  0  0  0
   -3.2124   -1.3578   -1.1289 N   0  0  0  0  0  0  0  0  0  0  0  0
   -1.8971   -1.8843   -0.8752 C   0  0  2  0  0  0  0  0  0  0  0  0
   -1.2676   -1.0599    0.2399 C   0  0  0  0  0  0  0  0  0  0  0  0
   -1.6270    0.0833    0.5138 O   0  0  0  0  0  0  0  0  0  0  0  0
   -1.0364   -1.8506   -2.1285 C   0  0  0  0  0  0  0  0  0  0  0  0
   -3.5631   -0.6202   -0.5206 H   0  0  0  0  0  0  0  0  0  0  0  0
   -2.0301   -2.9174   -0.5360 H   0  0  0  0  0  0  0  0  0  0  0  0
   -0.8921   -0.8236   -2.4833 H   0  0  0  0  0  0  0  0  0  0  0  0
   -0.0457   -2.2777   -1.9410 H   0  0  0  0  0  0  0  0  0  0  0  0
   -1.5052   -2.4193   -2.9387 H   0  0  0  0  0  0  0  0  0  0  0  0
   -0.2267   -1.7335    0.8672 N   0  0  0  0  0  0  0  0  0  0  0  0
    0.5363   -1.1590    1.9465 C   0  0  2  0  0  0  0  0  0  0  0  0
    1.1886    0.1103    1.4107 C   0  0  0  0  0  0  0  0  0  0  0  0
    1.7192    0.9490    2.1363 O   0  0  0  0  0  0  0  0  0  0  0  0
    1.5953   -2.1261    2.4708 C   0  0  0  0  0  0  0  0  0  0  0  0
    1.0795   -3.3609    3.2207 C   0  0  0  0  0  0  0  0  0  0  0  0
   -0.0240   -3.1815    3.8131 O   0  5  0  0  0  0  0  0  0  0  0  0
    1.8016   -4.3939    3.1727 O   0  0  0  0  0  0  0  0  0  0  0  0
   -0.0113   -2.6869    0.5854 H   0  0  0  0  0  0  0  0  0  0  0  0
   -0.1800   -0.8922    2.7318 H   0  0  0  0  0  0  0  0  0  0  0  0
    2.2864   -1.5913    3.1366 H   0  0  0  0  0  0  0  0  0  0  0  0
    2.1988   -2.5020    1.6343 H   0  0  0  0  0  0  0  0  0  0  0  0
    1.1539    0.1696    0.0245 N   0  0  0  0  0  0  0  0  0  0  0  0
    1.7344    1.2583   -0.7265 C   0  0  2  0  0  0  0  0  0  0  0  0
    0.9169    1.4408   -1.9984 C   0  0  0  0  0  0  0  0  0  0  0  0
    0.2232    0.5495   -2.4836 O   0  0  0  0  0  0  0  0  0  0  0  0
    3.1950    0.9883   -1.0531 C   0  0  0  0  0  0  0  0  0  0  0  0
    0.7352   -0.5945   -0.4976 H   0  0  0  0  0  0  0  0  0  0  0  0
    1.6462    2.1549   -0.1032 H   0  0  0  0  0  0  0  0  0  0  0  0
    3.3033    0.0937   -1.6770 H   0  0  0  0  0  0  0  0  0  0  0  0
    3.6414    1.8270   -1.5975 H   0  0  0  0  0  0  0  0  0  0  0  0
    3.7757    0.8278   -0.1383 H   0  0  0  0  0  0  0  0  0  0  0  0
    1.0870    2.7022   -2.5516 N   0  0  0  0  0  0  0  0  0  0  0  0
    0.4271    3.1155   -3.7681 C   0  0  0  0  0  0  0  0  0  0  0  0
    1.6662    3.3845   -2.0713 H   0  0  0  0  0  0  0  0  0  0  0  0
    1.0812    2.9107   -4.6284 H   0  0  0  0  0  0  0  0  0  0  0  0
   -0.5140    2.5576   -3.8823 H   0  0  0  0  0  0  0  0  0  0  0  0
    0.2112    4.1930   -3.7201 H   0  0  0  0  0  0  0  0  0  0  0  0
  1  3  1  0  0  0  0
  1  7  1  0  0  0  0
  1  2  2  0  0  0  0
 30 31  1  0  0  0  0
 31 39  1  0  0  0  0
 31 32  2  0  0  0  0
  8  9  1  0  0  0  0
  9 17  1  0  0  0  0
  9 10  2  0  0  0  0
 18 19  1  0  0  0  0
 19 29  1  0  0  0  0
 19 20  2  0  0  0  0
 21 22  1  0  0  0  0
 22 23  1  0  0  0  0
 22 24  2  0  0  0  0
 30 33  1  0  0  0  0
  8 11  1  0  0  0  0
 39 40  1  0  0  0  0
 18 21  1  0  0  0  0
 29 30  1  0  0  0  0
  7  8  1  0  0  0  0
 17 18  1  0  0  0  0
  3  4  1  0  0  0  0
  3  5  1  0  0  0  0
  3  6  1  0  0  0  0
 33 36  1  0  0  0  0
 33 37  1  0  0  0  0
 33 38  1  0  0  0  0
 11 14  1  0  0  0  0
 11 15  1  0  0  0  0
 11 16  1  0  0  0  0
 40 42  1  0  0  0  0
 40 43  1  0  0  0  0
 40 44  1  0  0  0  0
 21 27  1  0  0  0  0
 21 28  1  0  0  0  0
 30 35  1  0  0  0  0
  8 13  1  0  0  0  0
 18 26  1  0  0  0  0
 39 41  1  0  0  0  0
  7 12  1  0  0  0  0
 29 34  1  0  0  0  0
 17 25  1  0  0  0  0
M  CHG  1  23  -1
M  END
$$$$

  -OEChem-05262214473D

 44 43  0     1  0  0  0  0  0999 V2000
   -4.0256   -1.8030   -2.1581 C   0  0  0  0  0  0  0  0  0  0  0  0
   -3.7513   -2.6782   -2.9709 O   0  0  0  0  0  0  0  0  0  0  0  0
   -5.3491   -1.1169   -2.2339 C   0  0  0  0  0  0  0  0  0  0  0  0
   -5.3223   -0.2211   -2.8750 H   0  0  0  0  0  0  0  0  0  0  0  0
   -6.1322   -1.7605   -2.6658 H   0  0  0  0  0  0  0  0  0  0  0  0
   -5.7568   -0.7715   -1.2704 H   0  0  0  0  0  0  0  0  0  0  0  0
   -3.2124   -1.3578   -1.1289 N   0  0  0  0  0  0  0  0  0  0  0  0
   -1.8971   -1.8843   -0.8752 C   0  0  2  0  0  0  0  0  0  0  0  0
   -1.2676   -1.0599    0.2399 C   0  0  0  0  0  0  0  0  0  0  0  0
   -1.6270    0.0833    0.5138 O   0  0  0  0  0  0  0  0  0  0  0  0
   -1.0364   -1.8506   -2.1285 C   0  0  0  0  0  0  0  0  0  0  0  0
   -3.5631   -0.6202   -0.5206 H   0  0  0  0  0  0  0  0  0  0  0  0
   -2.0301   -2.9174   -0.5360 H   0  0  0  0  0  0  0  0  0  0  0  0
   -0.8921   -0.8236   -2.4833 H   0  0  0  0  0  0  0  0  0  0  0  0
   -0.0457   -2.2777   -1.9410 H   0  0  0  0  0  0  0  0  0  0  0  0
   -1.5052   -2.4193   -2.9387 H   0  0  0  0  0  0  0  0  0  0  0  0
   -0.2267   -1.7335    0.8672 N   0  0  0  0  0  0  0  0  0  0  0  0
    0.5363   -1.1590    1.9465 C   0  0  2  0  0  0  0  0  0  0  0  0
    1.1886    0.1103    1.4107 C   0  0  0  0  0  0  0  0  0  0  0  0
    1.9435    0.8108    2.0820 O   0  0  0  0  0  0  0  0  0  0  0  0
    1.5953   -2.1261    2.4708 C   0  0  0  0  0  0  0  0  0  0  0  0
    1.0795   -3.3609    3.2207 C   0  0  0  0  0  0  0  0  0  0  0  0
   -0.0240   -3.1815    3.8131 O   0  5  0  0  0  0  0  0  0  0  0  0
    1.8016   -4.3939    3.1727 O   0  0  0  0  0  0  0  0  0  0  0  0
   -0.0113   -2.6869    0.5854 H   0  0  0  0  0  0  0  0  0  0  0  0
   -0.1800   -0.8922    2.7318 H   0  0  0  0  0  0  0  0  0  0  0  0
    2.2864   -1.5913    3.1366 H   0  0  0  0  0  0  0  0  0  0  0  0
    2.1988   -2.5020    1.6343 H   0  0  0  0  0  0  0  0  0  0  0  0
    0.8693    0.3391    0.0796 N   0  0  0  0  0  0  0  0  0  0  0  0
    1.3880    1.4613   -0.6674 C   0  0  2  0  0  0  0  0  0  0  0  0
    0.3444    1.8599   -1.7026 C   0  0  0  0  0  0  0  0  0  0  0  0
   -0.5239    1.0912   -2.1101 O   0  0  0  0  0  0  0  0  0  0  0  0
    2.7113    1.1185   -1.3337 C   0  0  0  0  0  0  0  0  0  0  0  0
    0.2737   -0.3210   -0.4116 H   0  0  0  0  0  0  0  0  0  0  0  0
    1.5258    2.2802    0.0471 H   0  0  0  0  0  0  0  0  0  0  0  0
    2.5930    0.2999   -2.0531 H   0  0  0  0  0  0  0  0  0  0  0  0
    3.1172    1.9789   -1.8758 H   0  0  0  0  0  0  0  0  0  0  0  0
    3.4517    0.8034   -0.5905 H   0  0  0  0  0  0  0  0  0  0  0  0
    0.5234    3.1615   -2.1497 N   0  0  0  0  0  0  0  0  0  0  0  0
   -0.3314    3.7693   -3.1425 C   0  0  0  0  0  0  0  0  0  0  0  0
    1.2579    3.7331   -1.7427 H   0  0  0  0  0  0  0  0  0  0  0  0
    0.1024    3.6190   -4.1422 H   0  0  0  0  0  0  0  0  0  0  0  0
   -1.3279    3.3053   -3.1019 H   0  0  0  0  0  0  0  0  0  0  0  0
   -0.4201    4.8468   -2.9397 H   0  0  0  0  0  0  0  0  0  0  0  0
  1  3  1  0  0  0  0
  1  7  1  0  0  0  0
  1  2  2  0  0  0  0
 30 31  1  0  0  0  0
 31 39  1  0  0  0  0
 31 32  2  0  0  0  0
  8  9  1  0  0  0  0
  9 17  1  0  0  0  0
  9 10  2  0  0  0  0
 18 19  1  0  0  0  0
 19 29  1  0  0  0  0
 19 20  2  0  0  0  0
 21 22  1  0  0  0  0
 22 23  1  0  0  0  0
 22 24  2  0  0  0  0
 30 33  1  0  0  0  0
  8 11  1  0  0  0  0
 39 40  1  0  0  0  0
 18 21  1  0  0  0  0
 29 30  1  0  0  0  0
  7  8  1  0  0  0  0
 17 18  1  0  0  0  0
  3  4  1  0  0  0  0
  3  5  1  0  0  0  0
  3  6  1  0  0  0  0
 33 36  1  0  0  0  0
 33 37  1  0  0  0  0
 33 38  1  0  0  0  0
 11 14  1  0  0  0  0
 11 15  1  0  0  0  0
 11 16  1  0  0  0  0
 40 42  1  0  0  0  0
 40 43  1  0  0  0  0
 40 44  1  0  0  0  0
 21 27  1  0  0  0  0
 21 28  1  0  0  0  0
 30 35  1  0  0  0  0
  8 13  1  0  0  0  0
 18 26  1  0  0  0  0
 39 41  1  0  0  0  0
  7 12  1  0  0  0  0
 29 34  1  0  0  0  0
 17 25  1  0  0  0  0
M  CHG  1  23  -1
M  END
$$$$

  -OEChem-05262214473D

 44 43  0     1  0  0  0  0  0999 V2000
   -4.0256   -1.8030   -2.1581 C   0  0  0  0  0  0  0  0  0  0  0  0
   -3.7513   -2.6782   -2.9709 O   0  0  0  0  0  0  0  0  0  0  0  0
   -5.3491   -1.1169   -2.2339 C   0  0  0  0  0  0  0  0  0  0  0  0
   -5.3223   -0.2211   -2.8750 H   0  0  0  0  0  0  0  0  0  0  0  0
   -6.1322   -1.7605   -2.6658 H   0  0  0  0  0  0  0  0  0  0  0  0
   -5.7568   -0.7715   -1.2704 H   0  0  0  0  0  0  0  0  0  0  0  0
   -3.2124   -1.3578   -1.1289 N   0  0  0  0  0  0  0  0  0  0  0  0
   -1.8971   -1.8843   -0.8752 C   0  0  2  0  0  0  0  0  0  0  0  0
   -1.2676   -1.0599    0.2399 C   0  0  0  0  0  0  0  0  0  0  0  0
   -1.6270    0.0833    0.5138 O   0  0  0  0  0  0  0  0  0  0  0  0
   -1.0364   -1.8506   -2.1285 C   0  0  0  0  0  0  0  0  0  0  0  0
   -3.5631   -0.6202   -0.5206 H   0  0  0  0  0  0  0  0  0  0  0  0
   -2.0301   -2.9174   -0.5360 H   0  0  0  0  0  0  0  0  0  0  0  0
   -0.8921   -0.8236   -2.4833 H   0  0  0  0  0  0  0  0  0  0  0  0
   -0.0457   -2.2777   -1.9410 H   0  0  0  0  0  0  0  0  0  0  0  0
   -1.5052   -2.4193   -2.9387 H   0  0  0  0  0  0  0  0  0  0  0  0
   -0.2267   -1.7335    0.8672 N   0  0  0  0  0  0  0  0  0  0  0  0
    0.5363   -1.1590    1.9465 C   0  0  2  0  0  0  0  0  0  0  0  0
    1.1886    0.1103    1.4107 C   0  0  0  0  0  0  0  0  0  0  0  0
    2.1360    0.6629    1.9660 O   0  0  0  0  0  0  0  0  0  0  0  0
    1.5953   -2.1261    2.4708 C   0  0  0  0  0  0  0  0  0  0  0  0
    1.0795   -3.3609    3.2207 C   0  0  0  0  0  0  0  0  0  0  0  0
   -0.0240   -3.1815    3.8131 O   0  5  0  0  0  0  0  0  0  0  0  0
    1.8016   -4.3939    3.1727 O   0  0  0  0  0  0  0  0  0  0  0  0
   -0.0113   -2.6869    0.5854 H   0  0  0  0  0  0  0  0  0  0  0  0
   -0.1800   -0.8922    2.7318 H   0  0  0  0  0  0  0  0  0  0  0  0
    2.2864   -1.5913    3.1366 H   0  0  0  0  0  0  0  0  0  0  0  0
    2.1988   -2.5020    1.6343 H   0  0  0  0  0  0  0  0  0  0  0  0
    0.6217    0.5225    0.2128 N   0  0  0  0  0  0  0  0  0  0  0  0
    1.0845    1.6824   -0.5131 C   0  0  2  0  0  0  0  0  0  0  0  0
   -0.1067    2.2840   -1.2470 C   0  0  0  0  0  0  0  0  0  0  0  0
   -1.1159    1.6409   -1.5282 O   0  0  0  0  0  0  0  0  0  0  0  0
    2.1954    1.3193   -1.4861 C   0  0  0  0  0  0  0  0  0  0  0  0
   -0.1287   -0.0244   -0.1988 H   0  0  0  0  0  0  0  0  0  0  0  0
    1.4532    2.3956    0.2321 H   0  0  0  0  0  0  0  0  0  0  0  0
    1.8448    0.6054   -2.2404 H   0  0  0  0  0  0  0  0  0  0  0  0
    2.5647    2.2041   -2.0149 H   0  0  0  0  0  0  0  0  0  0  0  0
    3.0392    0.8594   -0.9602 H   0  0  0  0  0  0  0  0  0  0  0  0
    0.1075    3.6119   -1.5890 N   0  0  0  0  0  0  0  0  0  0  0  0
   -0.8698    4.4006   -2.3024 C   0  0  0  0  0  0  0  0  0  0  0  0
    0.9661    4.0705   -1.2988 H   0  0  0  0  0  0  0  0  0  0  0  0
   -0.6739    4.3384   -3.3830 H   0  0  0  0  0  0  0  0  0  0  0  0
   -1.8778    4.0151   -2.0898 H   0  0  0  0  0  0  0  0  0  0  0  0
   -0.8023    5.4494   -1.9775 H   0  0  0  0  0  0  0  0  0  0  0  0
  1  3  1  0  0  0  0
  1  7  1  0  0  0  0
  1  2  2  0  0  0  0
 30 31  1  0  0  0  0
 31 39  1  0  0  0  0
 31 32  2  0  0  0  0
  8  9  1  0  0  0  0
  9 17  1  0  0  0  0
  9 10  2  0  0  0  0
 18 19  1  0  0  0  0
 19 29  1  0  0  0  0
 19 20  2  0  0  0  0
 21 22  1  0  0  0  0
 22 23  1  0  0  0  0
 22 24  2  0  0  0  0
 30 33  1  0  0  0  0
  8 11  1  0  0  0  0
 39 40  1  0  0  0  0
 18 21  1  0  0  0  0
 29 30  1  0  0  0  0
  7  8  1  0  0  0  0
 17 18  1  0  0  0  0
  3  4  1  0  0  0  0
  3  5  1  0  0  0  0
  3  6  1  0  0  0  0
 33 36  1  0  0  0  0
 33 37  1  0  0  0  0
 33 38  1  0  0  0  0
 11 14  1  0  0  0  0
 11 15  1  0  0  0  0
 11 16  1  0  0  0  0
 40 42  1  0  0  0  0
 40 43  1  0  0  0  0
 40 44  1  0  0  0  0
 21 27  1  0  0  0  0
 21 28  1  0  0  0  0
 30 35  1  0  0  0  0
  8 13  1  0  0  0  0
 18 26  1  0  0  0  0
 39 41  1  0  0  0  0
  7 12  1  0  0  0  0
 29 34  1  0  0  0  0
 17 25  1  0  0  0  0
M  CHG  1  23  -1
M  END
$$$$

  -OEChem-05262214473D

 44 43  0     1  0  0  0  0  0999 V2000
   -4.0256   -1.8030   -2.1581 C   0  0  0  0  0  0  0  0  0  0  0  0
   -3.7513   -2.6782   -2.9709 O   0  0  0  0  0  0  0  0  0  0  0  0
   -5.3491   -1.1169   -2.2339 C   0  0  0  0  0  0  0  0  0  0  0  0
   -5.3223   -0.2211   -2.8750 H   0  0  0  0  0  0  0  0  0  0  0  0
   -6.1322   -1.7605   -2.6658 H   0  0  0  0  0  0  0  0  0  0  0  0
   -5.7568   -0.7715   -1.2704 H   0  0  0  0  0  0  0  0  0  0  0  0
   -3.2124   -1.3578   -1.1289 N   0  0  0  0  0  0  0  0  0  0  0  0
   -1.8971   -1.8843   -0.8752 C   0  0  2  0  0  0  0  0  0  0  0  0
   -1.2676   -1.0599    0.2399 C   0  0  0  0  0  0  0  0  0  0  0  0
   -1.6270    0.0833    0.5138 O   0  0  0  0  0  0  0  0  0  0  0  0
   -1.0364   -1.8506   -2.1285 C   0  0  0  0  0  0  0  0  0  0  0  0
   -3.5631   -0.6202   -0.5206 H   0  0  0  0  0  0  0  0  0  0  0  0
   -2.0301   -2.9174   -0.5360 H   0  0  0  0  0  0  0  0  0  0  0  0
   -0.8921   -0.8236   -2.4833 H   0  0  0  0  0  0  0  0  0  0  0  0
   -0.0457   -2.2777   -1.9410 H   0  0  0  0  0  0  0  0  0  0  0  0
   -1.5052   -2.4193   -2.9387 H   0  0  0  0  0  0  0  0  0  0  0  0
   -0.2267   -1.7335    0.8672 N   0  0  0  0  0  0  0  0  0  0  0  0
    0.5363   -1.1590    1.9465 C   0  0  2  0  0  0  0  0  0  0  0  0
    1.1886    0.1103    1.4107 C   0  0  0  0  0  0  0  0  0  0  0  0
    2.2834    0.5155    1.7961 O   0  0  0  0  0  0  0  0  0  0  0  0
    1.5953   -2.1261    2.4708 C   0  0  0  0  0  0  0  0  0  0  0  0
    1.0795   -3.3609    3.2207 C   0  0  0  0  0  0  0  0  0  0  0  0
   -0.0240   -3.1815    3.8131 O   0  5  0  0  0  0  0  0  0  0  0  0
    1.8016   -4.3939    3.1727 O   0  0  0  0  0  0  0  0  0  0  0  0
   -0.0113   -2.6869    0.5854 H   0  0  0  0  0  0  0  0  0  0  0  0
   -0.1800   -0.8922    2.7318 H   0  0  0  0  0  0  0  0  0  0  0  0
    2.2864   -1.5913    3.1366 H   0  0  0  0  0  0  0  0  0  0  0  0
    2.1988   -2.5020    1.6343 H   0  0  0  0  0  0  0  0  0  0  0  0
    0.4280    0.7075    0.4152 N   0  0  0  0  0  0  0  0  0  0  0  0
    0.8447    1.9064   -0.2743 C   0  0  2  0  0  0  0  0  0  0  0  0
   -0.4057    2.6843   -0.6627 C   0  0  0  0  0  0  0  0  0  0  0  0
   -1.5122    2.1614   -0.7777 O   0  0  0  0  0  0  0  0  0  0  0  0
    1.6826    1.5770   -1.4999 C   0  0  0  0  0  0  0  0  0  0  0  0
   -0.4446    0.2751    0.1264 H   0  0  0  0  0  0  0  0  0  0  0  0
    1.4335    2.4931    0.4393 H   0  0  0  0  0  0  0  0  0  0  0  0
    1.1094    0.9893   -2.2262 H   0  0  0  0  0  0  0  0  0  0  0  0
    2.0216    2.4874   -2.0052 H   0  0  0  0  0  0  0  0  0  0  0  0
    2.5661    0.9920   -1.2222 H   0  0  0  0  0  0  0  0  0  0  0  0
   -0.1325    4.0227   -0.9080 N   0  0  0  0  0  0  0  0  0  0  0  0
   -1.1514    4.9663   -1.3050 C   0  0  0  0  0  0  0  0  0  0  0  0
    0.8105    4.3737   -0.7696 H   0  0  0  0  0  0  0  0  0  0  0  0
   -1.1947    5.0197   -2.4028 H   0  0  0  0  0  0  0  0  0  0  0  0
   -2.1264    4.6386   -0.9152 H   0  0  0  0  0  0  0  0  0  0  0  0
   -0.9092    5.9596   -0.8989 H   0  0  0  0  0  0  0  0  0  0  0  0
  1  3  1  0  0  0  0
  1  7  1  0  0  0  0
  1  2  2  0  0  0  0
 30 31  1  0  0  0  0
 31 39  1  0  0  0  0
 31 32  2  0  0  0  0
  8  9  1  0  0  0  0
  9 17  1  0  0  0  0
  9 10  2  0  0  0  0
 18 19  1  0  0  0  0
 19 29  1  0  0  0  0
 19 20  2  0  0  0  0
 21 22  1  0  0  0  0
 22 23  1  0  0  0  0
 22 24  2  0  0  0  0
 30 33  1  0  0  0  0
  8 11  1  0  0  0  0
 39 40  1  0  0  0  0
 18 21  1  0  0  0  0
 29 30  1  0  0  0  0
  7  8  1  0  0  0  0
 17 18  1  0  0  0  0
  3  4  1  0  0  0  0
  3  5  1  0  0  0  0
  3  6  1  0  0  0  0
 33 36  1  0  0  0  0
 33 37  1  0  0  0  0
 33 38  1  0  0  0  0
 11 14  1  0  0  0  0
 11 15  1  0  0  0  0
 11 16  1  0  0  0  0
 40 42  1  0  0  0  0
 40 43  1  0  0  0  0
 40 44  1  0  0  0  0
 21 27  1  0  0  0  0
 21 28  1  0  0  0  0
 30 35  1  0  0  0  0
  8 13  1  0  0  0  0
 18 26  1  0  0  0  0
 39 41  1  0  0  0  0
  7 12  1  0  0  0  0
 29 34  1  0  0  0  0
 17 25  1  0  0  0  0
M  CHG  1  23  -1
M  END
$$$$

  -OEChem-05262214473D

 44 43  0     1  0  0  0  0  0999 V2000
   -4.0256   -1.8030   -2.1581 C   0  0  0  0  0  0  0  0  0  0  0  0
   -3.7513   -2.6782   -2.9709 O   0  0  0  0  0  0  0  0  0  0  0  0
   -5.3491   -1.1169   -2.2339 C   0  0  0  0  0  0  0  0  0  0  0  0
   -5.3223   -0.2211   -2.8750 H   0  0  0  0  0  0  0  0  0  0  0  0
   -6.1322   -1.7605   -2.6658 H   0  0  0  0  0  0  0  0  0  0  0  0
   -5.7568   -0.7715   -1.2704 H   0  0  0  0  0  0  0  0  0  0  0  0
   -3.2124   -1.3578   -1.1289 N   0  0  0  0  0  0  0  0  0  0  0  0
   -1.8971   -1.8843   -0.8752 C   0  0  2  0  0  0  0  0  0  0  0  0
   -1.2676   -1.0599    0.2399 C   0  0  0  0  0  0  0  0  0  0  0  0
   -1.6270    0.0833    0.5138 O   0  0  0  0  0  0  0  0  0  0  0  0
   -1.0364   -1.8506   -2.1285 C   0  0  0  0  0  0  0  0  0  0  0  0
   -3.5631   -0.6202   -0.5206 H   0  0  0  0  0  0  0  0  0  0  0  0
   -2.0301   -2.9174   -0.5360 H   0  0  0  0  0  0  0  0  0  0  0  0
   -0.8921   -0.8236   -2.4833 H   0  0  0  0  0  0  0  0  0  0  0  0
   -0.0457   -2.2777   -1.9410 H   0  0  0  0  0  0  0  0  0  0  0  0
   -1.5052   -2.4193   -2.9387 H   0  0  0  0  0  0  0  0  0  0  0  0
   -0.2267   -1.7335    0.8672 N   0  0  0  0  0  0  0  0  0  0  0  0
    0.5363   -1.1590    1.9465 C   0  0  2  0  0  0  0  0  0  0  0  0
    1.1886    0.1103    1.4107 C   0  0  0  0  0  0  0  0  0  0  0  0
    2.3758    0.3784    1.5839 O   0  0  0  0  0  0  0  0  0  0  0  0
    1.5953   -2.1261    2.4708 C   0  0  0  0  0  0  0  0  0  0  0  0
    1.0795   -3.3609    3.2207 C   0  0  0  0  0  0  0  0  0  0  0  0
   -0.0240   -3.1815    3.8131 O   0  5  0  0  0  0  0  0  0  0  0  0
    1.8016   -4.3939    3.1727 O   0  0  0  0  0  0  0  0  0  0  0  0
   -0.0113   -2.6869    0.5854 H   0  0  0  0  0  0  0  0  0  0  0  0
   -0.1800   -0.8922    2.7318 H   0  0  0  0  0  0  0  0  0  0  0  0
    2.2864   -1.5913    3.1366 H   0  0  0  0  0  0  0  0  0  0  0  0
    2.1988   -2.5020    1.6343 H   0  0  0  0  0  0  0  0  0  0  0  0
    0.3013    0.8814    0.6730 N   0  0  0  0  0  0  0  0  0  0  0  0
    0.6850    2.1182    0.0330 C   0  0  2  0  0  0  0  0  0  0  0  0
   -0.5322    3.0334    0.0104 C   0  0  0  0  0  0  0  0  0  0  0  0
   -1.6860    2.6171    0.0903 O   0  0  0  0  0  0  0  0  0  0  0  0
    1.2077    1.8741   -1.3741 C   0  0  0  0  0  0  0  0  0  0  0  0
   -0.6524    0.5572    0.5417 H   0  0  0  0  0  0  0  0  0  0  0  0
    1.4680    2.5662    0.6544 H   0  0  0  0  0  0  0  0  0  0  0  0
    0.4371    1.4255   -2.0115 H   0  0  0  0  0  0  0  0  0  0  0  0
    1.5248    2.8093   -1.8474 H   0  0  0  0  0  0  0  0  0  0  0  0
    2.0647    1.1921   -1.3587 H   0  0  0  0  0  0  0  0  0  0  0  0
   -0.1802    4.3659   -0.1530 N   0  0  0  0  0  0  0  0  0  0  0  0
   -1.1569    5.4279   -0.2182 C   0  0  0  0  0  0  0  0  0  0  0  0
    0.8019    4.6222   -0.1914 H   0  0  0  0  0  0  0  0  0  0  0  0
   -1.4245    5.6167   -1.2683 H   0  0  0  0  0  0  0  0  0  0  0  0
   -2.0566    5.1334    0.3421 H   0  0  0  0  0  0  0  0  0  0  0  0
   -0.7337    6.3426    0.2224 H   0  0  0  0  0  0  0  0  0  0  0  0
  1  3  1  0  0  0  0
  1  7  1  0  0  0  0
  1  2  2  0  0  0  0
 30 31  1  0  0  0  0
 31 39  1  0  0  0  0
 31 32  2  0  0  0  0
  8  9  1  0  0  0  0
  9 17  1  0  0  0  0
  9 10  2  0  0  0  0
 18 19  1  0  0  0  0
 19 29  1  0  0  0  0
 19 20  2  0  0  0  0
 21 22  1  0  0  0  0
 22 23  1  0  0  0  0
 22 24  2  0  0  0  0
 30 33  1  0  0  0  0
  8 11  1  0  0  0  0
 39 40  1  0  0  0  0
 18 21  1  0  0  0  0
 29 30  1  0  0  0  0
  7  8  1  0  0  0  0
 17 18  1  0  0  0  0
  3  4  1  0  0  0  0
  3  5  1  0  0  0  0
  3  6  1  0  0  0  0
 33 36  1  0  0  0  0
 33 37  1  0  0  0  0
 33 38  1  0  0  0  0
 11 14  1  0  0  0  0
 11 15  1  0  0  0  0
 11 16  1  0  0  0  0
 40 42  1  0  0  0  0
 40 43  1  0  0  0  0
 40 44  1  0  0  0  0
 21 27  1  0  0  0  0
 21 28  1  0  0  0  0
 30 35  1  0  0  0  0
  8 13  1  0  0  0  0
 18 26  1  0  0  0  0
 39 41  1  0  0  0  0
  7 12  1  0  0  0  0
 29 34  1  0  0  0  0
 17 25  1  0  0  0  0
M  CHG  1  23  -1
M  END
$$$$

  -OEChem-05262214473D

 44 43  0     1  0  0  0  0  0999 V2000
   -4.0256   -1.8030   -2.1581 C   0  0  0  0  0  0  0  0  0  0  0  0
   -3.7513   -2.6782   -2.9709 O   0  0  0  0  0  0  0  0  0  0  0  0
   -5.3491   -1.1169   -2.2339 C   0  0  0  0  0  0  0  0  0  0  0  0
   -5.3223   -0.2211   -2.8750 H   0  0  0  0  0  0  0  0  0  0  0  0
   -6.1322   -1.7605   -2.6658 H   0  0  0  0  0  0  0  0  0  0  0  0
   -5.7568   -0.7715   -1.2704 H   0  0  0  0  0  0  0  0  0  0  0  0
   -3.2124   -1.3578   -1.1289 N   0  0  0  0  0  0  0  0  0  0  0  0
   -1.8971   -1.8843   -0.8752 C   0  0  2  0  0  0  0  0  0  0  0  0
   -1.2676   -1.0599    0.2399 C   0  0  0  0  0  0  0  0  0  0  0  0
   -1.6270    0.0833    0.5138 O   0  0  0  0  0  0  0  0  0  0  0  0
   -1.0364   -1.8506   -2.1285 C   0  0  0  0  0  0  0  0  0  0  0  0
   -3.5631   -0.6202   -0.5206 H   0  0  0  0  0  0  0  0  0  0  0  0
   -2.0301   -2.9174   -0.5360 H   0  0  0  0  0  0  0  0  0  0  0  0
   -0.8921   -0.8236   -2.4833 H   0  0  0  0  0  0  0  0  0  0  0  0
   -0.0457   -2.2777   -1.9410 H   0  0  0  0  0  0  0  0  0  0  0  0
   -1.5052   -2.4193   -2.9387 H   0  0  0  0  0  0  0  0  0  0  0  0
   -0.2267   -1.7335    0.8672 N   0  0  0  0  0  0  0  0  0  0  0  0
    0.5363   -1.1590    1.9465 C   0  0  2  0  0  0  0  0  0  0  0  0
    1.1886    0.1103    1.4107 C   0  0  0  0  0  0  0  0  0  0  0  0
    2.4068    0.2611    1.3438 O   0  0  0  0  0  0  0  0  0  0  0  0
    1.5953   -2.1261    2.4708 C   0  0  0  0  0  0  0  0  0  0  0  0
    1.0795   -3.3609    3.2207 C   0  0  0  0  0  0  0  0  0  0  0  0
   -0.0240   -3.1815    3.8131 O   0  5  0  0  0  0  0  0  0  0  0  0
    1.8016   -4.3939    3.1727 O   0  0  0  0  0  0  0  0  0  0  0  0
   -0.0113   -2.6869    0.5854 H   0  0  0  0  0  0  0  0  0  0  0  0
   -0.1800   -0.8922    2.7318 H   0  0  0  0  0  0  0  0  0  0  0  0
    2.2864   -1.5913    3.1366 H   0  0  0  0  0  0  0  0  0  0  0  0
    2.1988   -2.5020    1.6343 H   0  0  0  0  0  0  0  0  0  0  0  0
    0.2503    1.0324    0.9685 N   0  0  0  0  0  0  0  0  0  0  0  0
    0.6162    2.3032    0.3876 C   0  0  2  0  0  0  0  0  0  0  0  0
   -0.4775    3.3075    0.7264 C   0  0  0  0  0  0  0  0  0  0  0  0
   -1.6253    2.9769    1.0166 O   0  0  0  0  0  0  0  0  0  0  0  0
    0.8031    2.1904   -1.1174 C   0  0  0  0  0  0  0  0  0  0  0  0
   -0.7379    0.8026    1.0189 H   0  0  0  0  0  0  0  0  0  0  0  0
    1.5543    2.6098    0.8628 H   0  0  0  0  0  0  0  0  0  0  0  0
   -0.1264    1.8841   -1.6109 H   0  0  0  0  0  0  0  0  0  0  0  0
    1.1082    3.1479   -1.5522 H   0  0  0  0  0  0  0  0  0  0  0  0
    1.5692    1.4460   -1.3602 H   0  0  0  0  0  0  0  0  0  0  0  0
   -0.0323    4.6181    0.6246 N   0  0  0  0  0  0  0  0  0  0  0  0
   -0.8861    5.7538    0.8839 C   0  0  0  0  0  0  0  0  0  0  0  0
    0.9408    4.7990    0.3965 H   0  0  0  0  0  0  0  0  0  0  0  0
   -1.3476    6.0886   -0.0568 H   0  0  0  0  0  0  0  0  0  0  0  0
   -1.6732    5.4657    1.5962 H   0  0  0  0  0  0  0  0  0  0  0  0
   -0.2876    6.5725    1.3102 H   0  0  0  0  0  0  0  0  0  0  0  0
  1  3  1  0  0  0  0
  1  7  1  0  0  0  0
  1  2  2  0  0  0  0
 30 31  1  0  0  0  0
 31 39  1  0  0  0  0
 31 32  2  0  0  0  0
  8  9  1  0  0  0  0
  9 17  1  0  0  0  0
  9 10  2  0  0  0  0
 18 19  1  0  0  0  0
 19 29  1  0  0  0  0
 19 20  2  0  0  0  0
 21 22  1  0  0  0  0
 22 23  1  0  0  0  0
 22 24  2  0  0  0  0
 30 33  1  0  0  0  0
  8 11  1  0  0  0  0
 39 40  1  0  0  0  0
 18 21  1  0  0  0  0
 29 30  1  0  0  0  0
  7  8  1  0  0  0  0
 17 18  1  0  0  0  0
  3  4  1  0  0  0  0
  3  5  1  0  0  0  0
  3  6  1  0  0  0  0
 33 36  1  0  0  0  0
 33 37  1  0  0  0  0
 33 38  1  0  0  0  0
 11 14  1  0  0  0  0
 11 15  1  0  0  0  0
 11 16  1  0  0  0  0
 40 42  1  0  0  0  0
 40 43  1  0  0  0  0
 40 44  1  0  0  0  0
 21 27  1  0  0  0  0
 21 28  1  0  0  0  0
 30 35  1  0  0  0  0
  8 13  1  0  0  0  0
 18 26  1  0  0  0  0
 39 41  1  0  0  0  0
  7 12  1  0  0  0  0
 29 34  1  0  0  0  0
 17 25  1  0  0  0  0
M  CHG  1  23  -1
M  END
$$$$

  -OEChem-05262214473D

 44 43  0     1  0  0  0  0  0999 V2000
   -4.0256   -1.8030   -2.1581 C   0  0  0  0  0  0  0  0  0  0  0  0
   -3.7513   -2.6782   -2.9709 O   0  0  0  0  0  0  0  0  0  0  0  0
   -5.3491   -1.1169   -2.2339 C   0  0  0  0  0  0  0  0  0  0  0  0
   -5.3223   -0.2211   -2.8750 H   0  0  0  0  0  0  0  0  0  0  0  0
   -6.1322   -1.7605   -2.6658 H   0  0  0  0  0  0  0  0  0  0  0  0
   -5.7568   -0.7715   -1.2704 H   0  0  0  0  0  0  0  0  0  0  0  0
   -3.2124   -1.3578   -1.1289 N   0  0  0  0  0  0  0  0  0  0  0  0
   -1.8971   -1.8843   -0.8752 C   0  0  2  0  0  0  0  0  0  0  0  0
   -1.2676   -1.0599    0.2399 C   0  0  0  0  0  0  0  0  0  0  0  0
   -1.6270    0.0833    0.5138 O   0  0  0  0  0  0  0  0  0  0  0  0
   -1.0364   -1.8506   -2.1285 C   0  0  0  0  0  0  0  0  0  0  0  0
   -3.5631   -0.6202   -0.5206 H   0  0  0  0  0  0  0  0  0  0  0  0
   -2.0301   -2.9174   -0.5360 H   0  0  0  0  0  0  0  0  0  0  0  0
   -0.8921   -0.8236   -2.4833 H   0  0  0  0  0  0  0  0  0  0  0  0
   -0.0457   -2.2777   -1.9410 H   0  0  0  0  0  0  0  0  0  0  0  0
   -1.5052   -2.4193   -2.9387 H   0  0  0  0  0  0  0  0  0  0  0  0
   -0.2267   -1.7335    0.8672 N   0  0  0  0  0  0  0  0  0  0  0  0
    0.5363   -1.1590    1.9465 C   0  0  2  0  0  0  0  0  0  0  0  0
    1.1886    0.1103    1.4107 C   0  0  0  0  0  0  0  0  0  0  0  0
    2.3744    0.1716    1.0922 O   0  0  0  0  0  0  0  0  0  0  0  0
    1.5953   -2.1261    2.4708 C   0  0  0  0  0  0  0  0  0  0  0  0
    1.0795   -3.3609    3.2207 C   0  0  0  0  0  0  0  0  0  0  0  0
   -0.0240   -3.1815    3.8131 O   0  5  0  0  0  0  0  0  0  0  0  0
    1.8016   -4.3939    3.1727 O   0  0  0  0  0  0  0  0  0  0  0  0
   -0.0113   -2.6869    0.5854 H   0  0  0  0  0  0  0  0  0  0  0  0
   -0.1800   -0.8922    2.7318 H   0  0  0  0  0  0  0  0  0  0  0  0
    2.2864   -1.5913    3.1366 H   0  0  0  0  0  0  0  0  0  0  0  0
    2.1988   -2.5020    1.6343 H   0  0  0  0  0  0  0  0  0  0  0  0
    0.2784    1.1501    1.2817 N   0  0  0  0  0  0  0  0  0  0  0  0
    0.6429    2.4490    0.7655 C   0  0  2  0  0  0  0  0  0  0  0  0
   -0.2454    3.4881    1.4367 C   0  0  0  0  0  0  0  0  0  0  0  0
   -1.3344    3.2163    1.9381 O   0  0  0  0  0  0  0  0  0  0  0  0
    0.4964    2.5042   -0.7472 C   0  0  0  0  0  0  0  0  0  0  0  0
   -0.6953    0.9945    1.5254 H   0  0  0  0  0  0  0  0  0  0  0  0
    1.6866    2.6210    1.0504 H   0  0  0  0  0  0  0  0  0  0  0  0
   -0.5427    2.3340   -1.0518 H   0  0  0  0  0  0  0  0  0  0  0  0
    0.8003    3.4802   -1.1399 H   0  0  0  0  0  0  0  0  0  0  0  0
    1.1133    1.7366   -1.2268 H   0  0  0  0  0  0  0  0  0  0  0  0
    0.3011    4.7621    1.3718 N   0  0  0  0  0  0  0  0  0  0  0  0
   -0.3573    5.9220    1.9262 C   0  0  0  0  0  0  0  0  0  0  0  0
    1.2177    4.8920    0.9540 H   0  0  0  0  0  0  0  0  0  0  0  0
   -0.9694    6.4032    1.1492 H   0  0  0  0  0  0  0  0  0  0  0  0
   -1.0023    5.6129    2.7618 H   0  0  0  0  0  0  0  0  0  0  0  0
    0.3986    6.6335    2.2902 H   0  0  0  0  0  0  0  0  0  0  0  0
  1  3  1  0  0  0  0
  1  7  1  0  0  0  0
  1  2  2  0  0  0  0
 30 31  1  0  0  0  0
 31 39  1  0  0  0  0
 31 32  2  0  0  0  0
  8  9  1  0  0  0  0
  9 17  1  0  0  0  0
  9 10  2  0  0  0  0
 18 19  1  0  0  0  0
 19 29  1  0  0  0  0
 19 20  2  0  0  0  0
 21 22  1  0  0  0  0
 22 23  1  0  0  0  0
 22 24  2  0  0  0  0
 30 33  1  0  0  0  0
  8 11  1  0  0  0  0
 39 40  1  0  0  0  0
 18 21  1  0  0  0  0
 29 30  1  0  0  0  0
  7  8  1  0  0  0  0
 17 18  1  0  0  0  0
  3  4  1  0  0  0  0
  3  5  1  0  0  0  0
  3  6  1  0  0  0  0
 33 36  1  0  0  0  0
 33 37  1  0  0  0  0
 33 38  1  0  0  0  0
 11 14  1  0  0  0  0
 11 15  1  0  0  0  0
 11 16  1  0  0  0  0
 40 42  1  0  0  0  0
 40 43  1  0  0  0  0
 40 44  1  0  0  0  0
 21 27  1  0  0  0  0
 21 28  1  0  0  0  0
 30 35  1  0  0  0  0
  8 13  1  0  0  0  0
 18 26  1  0  0  0  0
 39 41  1  0  0  0  0
  7 12  1  0  0  0  0
 29 34  1  0  0  0  0
 17 25  1  0  0  0  0
M  CHG  1  23  -1
M  END
$$$$

  -OEChem-05262214473D

 44 43  0     1  0  0  0  0  0999 V2000
   -4.0256   -1.8030   -2.1581 C   0  0  0  0  0  0  0  0  0  0  0  0
   -3.7513   -2.6782   -2.9709 O   0  0  0  0  0  0  0  0  0  0  0  0
   -5.3491   -1.1169   -2.2339 C   0  0  0  0  0  0  0  0  0  0  0  0
   -5.3223   -0.2211   -2.8750 H   0  0  0  0  0  0  0  0  0  0  0  0
   -6.1322   -1.7605   -2.6658 H   0  0  0  0  0  0  0  0  0  0  0  0
   -5.7568   -0.7715   -1.2704 H   0  0  0  0  0  0  0  0  0  0  0  0
   -3.2124   -1.3578   -1.1289 N   0  0  0  0  0  0  0  0  0  0  0  0
   -1.8971   -1.8843   -0.8752 C   0  0  2  0  0  0  0  0  0  0  0  0
   -1.2676   -1.0599    0.2399 C   0  0  0  0  0  0  0  0  0  0  0  0
   -1.6270    0.0833    0.5138 O   0  0  0  0  0  0  0  0  0  0  0  0
   -1.0364   -1.8506   -2.1285 C   0  0  0  0  0  0  0  0  0  0  0  0
   -3.5631   -0.6202   -0.5206 H   0  0  0  0  0  0  0  0  0  0  0  0
   -2.0301   -2.9174   -0.5360 H   0  0  0  0  0  0  0  0  0  0  0  0
   -0.8921   -0.8236   -2.4833 H   0  0  0  0  0  0  0  0  0  0  0  0
   -0.0457   -2.2777   -1.9410 H   0  0  0  0  0  0  0  0  0  0  0  0
   -1.5052   -2.4193   -2.9387 H   0  0  0  0  0  0  0  0  0  0  0  0
   -0.2267   -1.7335    0.8672 N   0  0  0  0  0  0  0  0  0  0  0  0
    0.5363   -1.1590    1.9465 C   0  0  2  0  0  0  0  0  0  0  0  0
    1.1886    0.1103    1.4107 C   0  0  0  0  0  0  0  0  0  0  0  0
    2.2807    0.1160    0.8463 O   0  0  0  0  0  0  0  0  0  0  0  0
    1.5953   -2.1261    2.4708 C   0  0  0  0  0  0  0  0  0  0  0  0
    1.0795   -3.3609    3.2207 C   0  0  0  0  0  0  0  0  0  0  0  0
   -0.0240   -3.1815    3.8131 O   0  5  0  0  0  0  0  0  0  0  0  0
    1.8016   -4.3939    3.1727 O   0  0  0  0  0  0  0  0  0  0  0  0
   -0.0113   -2.6869    0.5854 H   0  0  0  0  0  0  0  0  0  0  0  0
   -0.1800   -0.8922    2.7318 H   0  0  0  0  0  0  0  0  0  0  0  0
    2.2864   -1.5913    3.1366 H   0  0  0  0  0  0  0  0  0  0  0  0
    2.1988   -2.5020    1.6343 H   0  0  0  0  0  0  0  0  0  0  0  0
    0.3838    1.2266    1.5911 N   0  0  0  0  0  0  0  0  0  0  0  0
    0.7635    2.5455    1.1408 C   0  0  2  0  0  0  0  0  0  0  0  0
    0.1482    3.5627    2.0928 C   0  0  0  0  0  0  0  0  0  0  0  0
   -0.8330    3.3190    2.7921 O   0  0  0  0  0  0  0  0  0  0  0  0
    0.3085    2.7943   -0.2888 C   0  0  0  0  0  0  0  0  0  0  0  0
   -0.5276    1.1199    2.0268 H   0  0  0  0  0  0  0  0  0  0  0  0
    1.8558    2.5991    1.2043 H   0  0  0  0  0  0  0  0  0  0  0  0
   -0.7833    2.7446   -0.3721 H   0  0  0  0  0  0  0  0  0  0  0  0
    0.6219    3.7835   -0.6384 H   0  0  0  0  0  0  0  0  0  0  0  0
    0.7282    2.0440   -0.9675 H   0  0  0  0  0  0  0  0  0  0  0  0
    0.7972    4.7882    2.0376 N   0  0  0  0  0  0  0  0  0  0  0  0
    0.3934    5.9209    2.8376 C   0  0  0  0  0  0  0  0  0  0  0  0
    1.6138    4.8948    1.4431 H   0  0  0  0  0  0  0  0  0  0  0  0
   -0.3156    6.5391    2.2673 H   0  0  0  0  0  0  0  0  0  0  0  0
   -0.0897    5.5650    3.7595 H   0  0  0  0  0  0  0  0  0  0  0  0
    1.2782    6.5214    3.0956 H   0  0  0  0  0  0  0  0  0  0  0  0
  1  3  1  0  0  0  0
  1  7  1  0  0  0  0
  1  2  2  0  0  0  0
 30 31  1  0  0  0  0
 31 39  1  0  0  0  0
 31 32  2  0  0  0  0
  8  9  1  0  0  0  0
  9 17  1  0  0  0  0
  9 10  2  0  0  0  0
 18 19  1  0  0  0  0
 19 29  1  0  0  0  0
 19 20  2  0  0  0  0
 21 22  1  0  0  0  0
 22 23  1  0  0  0  0
 22 24  2  0  0  0  0
 30 33  1  0  0  0  0
  8 11  1  0  0  0  0
 39 40  1  0  0  0  0
 18 21  1  0  0  0  0
 29 30  1  0  0  0  0
  7  8  1  0  0  0  0
 17 18  1  0  0  0  0
  3  4  1  0  0  0  0
  3  5  1  0  0  0  0
  3  6  1  0  0  0  0
 33 36  1  0  0  0  0
 33 37  1  0  0  0  0
 33 38  1  0  0  0  0
 11 14  1  0  0  0  0
 11 15  1  0  0  0  0
 11 16  1  0  0  0  0
 40 42  1  0  0  0  0
 40 43  1  0  0  0  0
 40 44  1  0  0  0  0
 21 27  1  0  0  0  0
 21 28  1  0  0  0  0
 30 35  1  0  0  0  0
  8 13  1  0  0  0  0
 18 26  1  0  0  0  0
 39 41  1  0  0  0  0
  7 12  1  0  0  0  0
 29 34  1  0  0  0  0
 17 25  1  0  0  0  0
M  CHG  1  23  -1
M  END
$$$$

  -OEChem-05262214473D

 44 43  0     1  0  0  0  0  0999 V2000
   -4.0256   -1.8030   -2.1581 C   0  0  0  0  0  0  0  0  0  0  0  0
   -3.7513   -2.6782   -2.9709 O   0  0  0  0  0  0  0  0  0  0  0  0
   -5.3491   -1.1169   -2.2339 C   0  0  0  0  0  0  0  0  0  0  0  0
   -5.3223   -0.2211   -2.8750 H   0  0  0  0  0  0  0  0  0  0  0  0
   -6.1322   -1.7605   -2.6658 H   0  0  0  0  0  0  0  0  0  0  0  0
   -5.7568   -0.7715   -1.2704 H   0  0  0  0  0  0  0  0  0  0  0  0
   -3.2124   -1.3578   -1.1289 N   0  0  0  0  0  0  0  0  0  0  0  0
   -1.8971   -1.8843   -0.8752 C   0  0  2  0  0  0  0  0  0  0  0  0
   -1.2676   -1.0599    0.2399 C   0  0  0  0  0  0  0  0  0  0  0  0
   -1.6270    0.0833    0.5138 O   0  0  0  0  0  0  0  0  0  0  0  0
   -1.0364   -1.8506   -2.1285 C   0  0  0  0  0  0  0  0  0  0  0  0
   -3.5631   -0.6202   -0.5206 H   0  0  0  0  0  0  0  0  0  0  0  0
   -2.0301   -2.9174   -0.5360 H   0  0  0  0  0  0  0  0  0  0  0  0
   -0.8921   -0.8236   -2.4833 H   0  0  0  0  0  0  0  0  0  0  0  0
   -0.0457   -2.2777   -1.9410 H   0  0  0  0  0  0  0  0  0  0  0  0
   -1.5052   -2.4193   -2.9387 H   0  0  0  0  0  0  0  0  0  0  0  0
   -0.2267   -1.7335    0.8672 N   0  0  0  0  0  0  0  0  0  0  0  0
    0.5363   -1.1590    1.9465 C   0  0  2  0  0  0  0  0  0  0  0  0
    1.1886    0.1103    1.4107 C   0  0  0  0  0  0  0  0  0  0  0  0
    2.1321    0.0980    0.6228 O   0  0  0  0  0  0  0  0  0  0  0  0
    1.5953   -2.1261    2.4708 C   0  0  0  0  0  0  0  0  0  0  0  0
    1.0795   -3.3609    3.2207 C   0  0  0  0  0  0  0  0  0  0  0  0
   -0.0240   -3.1815    3.8131 O   0  5  0  0  0  0  0  0  0  0  0  0
    1.8016   -4.3939    3.1727 O   0  0  0  0  0  0  0  0  0  0  0  0
   -0.0113   -2.6869    0.5854 H   0  0  0  0  0  0  0  0  0  0  0  0
   -0.1800   -0.8922    2.7318 H   0  0  0  0  0  0  0  0  0  0  0  0
    2.2864   -1.5913    3.1366 H   0  0  0  0  0  0  0  0  0  0  0  0
    2.1988   -2.5020    1.6343 H   0  0  0  0  0  0  0  0  0  0  0  0
    0.5593    1.2566    1.8758 N   0  0  0  0  0  0  0  0  0  0  0  0
    0.9696    2.5861    1.4881 C   0  0  2  0  0  0  0  0  0  0  0  0
    0.6766    3.5263    2.6499 C   0  0  0  0  0  0  0  0  0  0  0  0
   -0.1552    3.2781    3.5203 O   0  0  0  0  0  0  0  0  0  0  0  0
    0.2522    3.0408    0.2267 C   0  0  0  0  0  0  0  0  0  0  0  0
   -0.2461    1.1703    2.4888 H   0  0  0  0  0  0  0  0  0  0  0  0
    2.0504    2.5454    1.3141 H   0  0  0  0  0  0  0  0  0  0  0  0
   -0.8319    3.0877    0.3817 H   0  0  0  0  0  0  0  0  0  0  0  0
    0.5853    4.0372   -0.0820 H   0  0  0  0  0  0  0  0  0  0  0  0
    0.4400    2.3472   -0.6000 H   0  0  0  0  0  0  0  0  0  0  0  0
    1.4223    4.6945    2.5767 N   0  0  0  0  0  0  0  0  0  0  0  0
    1.3148    5.7506    3.5560 C   0  0  0  0  0  0  0  0  0  0  0  0
    2.1021    4.8074    1.8305 H   0  0  0  0  0  0  0  0  0  0  0  0
    0.5694    6.4871    3.2215 H   0  0  0  0  0  0  0  0  0  0  0  0
    1.0024    5.3252    4.5211 H   0  0  0  0  0  0  0  0  0  0  0  0
    2.2912    6.2440    3.6717 H   0  0  0  0  0  0  0  0  0  0  0  0
  1  3  1  0  0  0  0
  1  7  1  0  0  0  0
  1  2  2  0  0  0  0
 30 31  1  0  0  0  0
 31 39  1  0  0  0  0
 31 32  2  0  0  0  0
  8  9  1  0  0  0  0
  9 17  1  0  0  0  0
  9 10  2  0  0  0  0
 18 19  1  0  0  0  0
 19 29  1  0  0  0  0
 19 20  2  0  0  0  0
 21 22  1  0  0  0  0
 22 23  1  0  0  0  0
 22 24  2  0  0  0  0
 30 33  1  0  0  0  0
  8 11  1  0  0  0  0
 39 40  1  0  0  0  0
 18 21  1  0  0  0  0
 29 30  1  0  0  0  0
  7  8  1  0  0  0  0
 17 18  1  0  0  0  0
  3  4  1  0  0  0  0
  3  5  1  0  0  0  0
  3  6  1  0  0  0  0
 33 36  1  0  0  0  0
 33 37  1  0  0  0  0
 33 38  1  0  0  0  0
 11 14  1  0  0  0  0
 11 15  1  0  0  0  0
 11 16  1  0  0  0  0
 40 42  1  0  0  0  0
 40 43  1  0  0  0  0
 40 44  1  0  0  0  0
 21 27  1  0  0  0  0
 21 28  1  0  0  0  0
 30 35  1  0  0  0  0
  8 13  1  0  0  0  0
 18 26  1  0  0  0  0
 39 41  1  0  0  0  0
  7 12  1  0  0  0  0
 29 34  1  0  0  0  0
 17 25  1  0  0  0  0
M  CHG  1  23  -1
M  END
$$$$

  -OEChem-05262214473D

 44 43  0     1  0  0  0  0  0999 V2000
   -4.0256   -1.8030   -2.1581 C   0  0  0  0  0  0  0  0  0  0  0  0
   -3.7513   -2.6782   -2.9709 O   0  0  0  0  0  0  0  0  0  0  0  0
   -5.3491   -1.1169   -2.2339 C   0  0  0  0  0  0  0  0  0  0  0  0
   -5.3223   -0.2211   -2.8750 H   0  0  0  0  0  0  0  0  0  0  0  0
   -6.1322   -1.7605   -2.6658 H   0  0  0  0  0  0  0  0  0  0  0  0
   -5.7568   -0.7715   -1.2704 H   0  0  0  0  0  0  0  0  0  0  0  0
   -3.2124   -1.3578   -1.1289 N   0  0  0  0  0  0  0  0  0  0  0  0
   -1.8971   -1.8843   -0.8752 C   0  0  2  0  0  0  0  0  0  0  0  0
   -1.2676   -1.0599    0.2399 C   0  0  0  0  0  0  0  0  0  0  0  0
   -1.6270    0.0833    0.5138 O   0  0  0  0  0  0  0  0  0  0  0  0
   -1.0364   -1.8506   -2.1285 C   0  0  0  0  0  0  0  0  0  0  0  0
   -3.5631   -0.6202   -0.5206 H   0  0  0  0  0  0  0  0  0  0  0  0
   -2.0301   -2.9174   -0.5360 H   0  0  0  0  0  0  0  0  0  0  0  0
   -0.8921   -0.8236   -2.4833 H   0  0  0  0  0  0  0  0  0  0  0  0
   -0.0457   -2.2777   -1.9410 H   0  0  0  0  0  0  0  0  0  0  0  0
   -1.5052   -2.4193   -2.9387 H   0  0  0  0  0  0  0  0  0  0  0  0
   -0.2267   -1.7335    0.8672 N   0  0  0  0  0  0  0  0  0  0  0  0
    0.5363   -1.1590    1.9465 C   0  0  2  0  0  0  0  0  0  0  0  0
    1.1886    0.1103    1.4107 C   0  0  0  0  0  0  0  0  0  0  0  0
    1.9388    0.1189    0.4369 O   0  0  0  0  0  0  0  0  0  0  0  0
    1.5953   -2.1261    2.4708 C   0  0  0  0  0  0  0  0  0  0  0  0
    1.0795   -3.3609    3.2207 C   0  0  0  0  0  0  0  0  0  0  0  0
   -0.0240   -3.1815    3.8131 O   0  5  0  0  0  0  0  0  0  0  0  0
    1.8016   -4.3939    3.1727 O   0  0  0  0  0  0  0  0  0  0  0  0
   -0.0113   -2.6869    0.5854 H   0  0  0  0  0  0  0  0  0  0  0  0
   -0.1800   -0.8922    2.7318 H   0  0  0  0  0  0  0  0  0  0  0  0
    2.2864   -1.5913    3.1366 H   0  0  0  0  0  0  0  0  0  0  0  0
    2.1988   -2.5020    1.6343 H   0  0  0  0  0  0  0  0  0  0  0  0
    0.7928    1.2380    2.1163 N   0  0  0  0  0  0  0  0  0  0  0  0
    1.2472    2.5682    1.7836 C   0  0  2  0  0  0  0  0  0  0  0  0
    1.3038    3.3813    3.0701 C   0  0  0  0  0  0  0  0  0  0  0  0
    0.6526    3.0962    4.0730 O   0  0  0  0  0  0  0  0  0  0  0  0
    0.3313    3.2270    0.7640 C   0  0  0  0  0  0  0  0  0  0  0  0
    0.1299    1.1421    2.8800 H   0  0  0  0  0  0  0  0  0  0  0  0
    2.2571    2.4637    1.3723 H   0  0  0  0  0  0  0  0  0  0  0  0
   -0.6852    3.3401    1.1583 H   0  0  0  0  0  0  0  0  0  0  0  0
    0.6930    4.2239    0.4915 H   0  0  0  0  0  0  0  0  0  0  0  0
    0.2684    2.6256   -0.1494 H   0  0  0  0  0  0  0  0  0  0  0  0
    2.1338    4.4874    2.9524 N   0  0  0  0  0  0  0  0  0  0  0  0
    2.3442    5.4227    4.0326 C   0  0  0  0  0  0  0  0  0  0  0  0
    2.6493    4.6357    2.0898 H   0  0  0  0  0  0  0  0  0  0  0  0
    1.6251    6.2506    3.9468 H   0  0  0  0  0  0  0  0  0  0  0  0
    2.1996    4.9099    4.9949 H   0  0  0  0  0  0  0  0  0  0  0  0
    3.3686    5.8200    3.9791 H   0  0  0  0  0  0  0  0  0  0  0  0
  1  3  1  0  0  0  0
  1  7  1  0  0  0  0
  1  2  2  0  0  0  0
 30 31  1  0  0  0  0
 31 39  1  0  0  0  0
 31 32  2  0  0  0  0
  8  9  1  0  0  0  0
  9 17  1  0  0  0  0
  9 10  2  0  0  0  0
 18 19  1  0  0  0  0
 19 29  1  0  0  0  0
 19 20  2  0  0  0  0
 21 22  1  0  0  0  0
 22 23  1  0  0  0  0
 22 24  2  0  0  0  0
 30 33  1  0  0  0  0
  8 11  1  0  0  0  0
 39 40  1  0  0  0  0
 18 21  1  0  0  0  0
 29 30  1  0  0  0  0
  7  8  1  0  0  0  0
 17 18  1  0  0  0  0
  3  4  1  0  0  0  0
  3  5  1  0  0  0  0
  3  6  1  0  0  0  0
 33 36  1  0  0  0  0
 33 37  1  0  0  0  0
 33 38  1  0  0  0  0
 11 14  1  0  0  0  0
 11 15  1  0  0  0  0
 11 16  1  0  0  0  0
 40 42  1  0  0  0  0
 40 43  1  0  0  0  0
 40 44  1  0  0  0  0
 21 27  1  0  0  0  0
 21 28  1  0  0  0  0
 30 35  1  0  0  0  0
  8 13  1  0  0  0  0
 18 26  1  0  0  0  0
 39 41  1  0  0  0  0
  7 12  1  0  0  0  0
 29 34  1  0  0  0  0
 17 25  1  0  0  0  0
M  CHG  1  23  -1
M  END
$$$$

  -OEChem-05262214473D

 44 43  0     1  0  0  0  0  0999 V2000
   -4.0256   -1.8030   -2.1581 C   0  0  0  0  0  0  0  0  0  0  0  0
   -3.7513   -2.6782   -2.9709 O   0  0  0  0  0  0  0  0  0  0  0  0
   -5.3491   -1.1169   -2.2339 C   0  0  0  0  0  0  0  0  0  0  0  0
   -5.3223   -0.2211   -2.8750 H   0  0  0  0  0  0  0  0  0  0  0  0
   -6.1322   -1.7605   -2.6658 H   0  0  0  0  0  0  0  0  0  0  0  0
   -5.7568   -0.7715   -1.2704 H   0  0  0  0  0  0  0  0  0  0  0  0
   -3.2124   -1.3578   -1.1289 N   0  0  0  0  0  0  0  0  0  0  0  0
   -1.8971   -1.8843   -0.8752 C   0  0  2  0  0  0  0  0  0  0  0  0
   -1.2676   -1.0599    0.2399 C   0  0  0  0  0  0  0  0  0  0  0  0
   -1.6270    0.0833    0.5138 O   0  0  0  0  0  0  0  0  0  0  0  0
   -1.0364   -1.8506   -2.1285 C   0  0  0  0  0  0  0  0  0  0  0  0
   -3.5631   -0.6202   -0.5206 H   0  0  0  0  0  0  0  0  0  0  0  0
   -2.0301   -2.9174   -0.5360 H   0  0  0  0  0  0  0  0  0  0  0  0
   -0.8921   -0.8236   -2.4833 H   0  0  0  0  0  0  0  0  0  0  0  0
   -0.0457   -2.2777   -1.9410 H   0  0  0  0  0  0  0  0  0  0  0  0
   -1.5052   -2.4193   -2.9387 H   0  0  0  0  0  0  0  0  0  0  0  0
   -0.2267   -1.7335    0.8672 N   0  0  0  0  0  0  0  0  0  0  0  0
    0.5363   -1.1590    1.9465 C   0  0  2  0  0  0  0  0  0  0  0  0
    1.1886    0.1103    1.4107 C   0  0  0  0  0  0  0  0  0  0  0  0
    1.7139    0.1772    0.3013 O   0  0  0  0  0  0  0  0  0  0  0  0
    1.5953   -2.1261    2.4708 C   0  0  0  0  0  0  0  0  0  0  0  0
    1.0795   -3.3609    3.2207 C   0  0  0  0  0  0  0  0  0  0  0  0
   -0.0240   -3.1815    3.8131 O   0  5  0  0  0  0  0  0  0  0  0  0
    1.8016   -4.3939    3.1727 O   0  0  0  0  0  0  0  0  0  0  0  0
   -0.0113   -2.6869    0.5854 H   0  0  0  0  0  0  0  0  0  0  0  0
   -0.1800   -0.8922    2.7318 H   0  0  0  0  0  0  0  0  0  0  0  0
    2.2864   -1.5913    3.1366 H   0  0  0  0  0  0  0  0  0  0  0  0
    2.1988   -2.5020    1.6343 H   0  0  0  0  0  0  0  0  0  0  0  0
    1.0685    1.1723    2.2962 N   0  0  0  0  0  0  0  0  0  0  0  0
    1.5775    2.4928    2.0073 C   0  0  2  0  0  0  0  0  0  0  0  0
    1.9869    3.1377    3.3248 C   0  0  0  0  0  0  0  0  0  0  0  0
    1.5355    2.7859    4.4127 O   0  0  0  0  0  0  0  0  0  0  0  0
    0.5404    3.3400    1.2866 C   0  0  0  0  0  0  0  0  0  0  0  0
    0.5749    1.0374    3.1737 H   0  0  0  0  0  0  0  0  0  0  0  0
    2.4620    2.3595    1.3749 H   0  0  0  0  0  0  0  0  0  0  0  0
   -0.3531    3.4845    1.9048 H   0  0  0  0  0  0  0  0  0  0  0  0
    0.9375    4.3310    1.0429 H   0  0  0  0  0  0  0  0  0  0  0  0
    0.2252    2.8602    0.3537 H   0  0  0  0  0  0  0  0  0  0  0  0
    2.8831    4.1810    3.1389 N   0  0  0  0  0  0  0  0  0  0  0  0
    3.4114    4.9596    4.2347 C   0  0  0  0  0  0  0  0  0  0  0  0
    3.2181    4.3913    2.2033 H   0  0  0  0  0  0  0  0  0  0  0  0
    2.7796    5.8459    4.3936 H   0  0  0  0  0  0  0  0  0  0  0  0
    3.4204    4.3473    5.1485 H   0  0  0  0  0  0  0  0  0  0  0  0
    4.4369    5.2785    3.9968 H   0  0  0  0  0  0  0  0  0  0  0  0
  1  3  1  0  0  0  0
  1  7  1  0  0  0  0
  1  2  2  0  0  0  0
 30 31  1  0  0  0  0
 31 39  1  0  0  0  0
 31 32  2  0  0  0  0
  8  9  1  0  0  0  0
  9 17  1  0  0  0  0
  9 10  2  0  0  0  0
 18 19  1  0  0  0  0
 19 29  1  0  0  0  0
 19 20  2  0  0  0  0
 21 22  1  0  0  0  0
 22 23  1  0  0  0  0
 22 24  2  0  0  0  0
 30 33  1  0  0  0  0
  8 11  1  0  0  0  0
 39 40  1  0  0  0  0
 18 21  1  0  0  0  0
 29 30  1  0  0  0  0
  7  8  1  0  0  0  0
 17 18  1  0  0  0  0
  3  4  1  0  0  0  0
  3  5  1  0  0  0  0
  3  6  1  0  0  0  0
 33 36  1  0  0  0  0
 33 37  1  0  0  0  0
 33 38  1  0  0  0  0
 11 14  1  0  0  0  0
 11 15  1  0  0  0  0
 11 16  1  0  0  0  0
 40 42  1  0  0  0  0
 40 43  1  0  0  0  0
 40 44  1  0  0  0  0
 21 27  1  0  0  0  0
 21 28  1  0  0  0  0
 30 35  1  0  0  0  0
  8 13  1  0  0  0  0
 18 26  1  0  0  0  0
 39 41  1  0  0  0  0
  7 12  1  0  0  0  0
 29 34  1  0  0  0  0
 17 25  1  0  0  0  0
M  CHG  1  23  -1
M  END
$$$$

  -OEChem-05262214473D

 44 43  0     1  0  0  0  0  0999 V2000
   -4.0256   -1.8030   -2.1581 C   0  0  0  0  0  0  0  0  0  0  0  0
   -3.7513   -2.6782   -2.9709 O   0  0  0  0  0  0  0  0  0  0  0  0
   -5.3491   -1.1169   -2.2339 C   0  0  0  0  0  0  0  0  0  0  0  0
   -5.3223   -0.2211   -2.8750 H   0  0  0  0  0  0  0  0  0  0  0  0
   -6.1322   -1.7605   -2.6658 H   0  0  0  0  0  0  0  0  0  0  0  0
   -5.7568   -0.7715   -1.2704 H   0  0  0  0  0  0  0  0  0  0  0  0
   -3.2124   -1.3578   -1.1289 N   0  0  0  0  0  0  0  0  0  0  0  0
   -1.8971   -1.8843   -0.8752 C   0  0  2  0  0  0  0  0  0  0  0  0
   -1.2676   -1.0599    0.2399 C   0  0  0  0  0  0  0  0  0  0  0  0
   -1.6270    0.0833    0.5138 O   0  0  0  0  0  0  0  0  0  0  0  0
   -1.0364   -1.8506   -2.1285 C   0  0  0  0  0  0  0  0  0  0  0  0
   -3.5631   -0.6202   -0.5206 H   0  0  0  0  0  0  0  0  0  0  0  0
   -2.0301   -2.9174   -0.5360 H   0  0  0  0  0  0  0  0  0  0  0  0
   -0.8921   -0.8236   -2.4833 H   0  0  0  0  0  0  0  0  0  0  0  0
   -0.0457   -2.2777   -1.9410 H   0  0  0  0  0  0  0  0  0  0  0  0
   -1.5052   -2.4193   -2.9387 H   0  0  0  0  0  0  0  0  0  0  0  0
   -0.2267   -1.7335    0.8672 N   0  0  0  0  0  0  0  0  0  0  0  0
    0.5363   -1.1590    1.9465 C   0  0  2  0  0  0  0  0  0  0  0  0
    1.1886    0.1103    1.4107 C   0  0  0  0  0  0  0  0  0  0  0  0
    1.4728    0.2690    0.2253 O   0  0  0  0  0  0  0  0  0  0  0  0
    1.5953   -2.1261    2.4708 C   0  0  0  0  0  0  0  0  0  0  0  0
    1.0795   -3.3609    3.2207 C   0  0  0  0  0  0  0  0  0  0  0  0
   -0.0240   -3.1815    3.8131 O   0  5  0  0  0  0  0  0  0  0  0  0
    1.8016   -4.3939    3.1727 O   0  0  0  0  0  0  0  0  0  0  0  0
   -0.0113   -2.6869    0.5854 H   0  0  0  0  0  0  0  0  0  0  0  0
   -0.1800   -0.8922    2.7318 H   0  0  0  0  0  0  0  0  0  0  0  0
    2.2864   -1.5913    3.1366 H   0  0  0  0  0  0  0  0  0  0  0  0
    2.1988   -2.5020    1.6343 H   0  0  0  0  0  0  0  0  0  0  0  0
    1.3677    1.0637    2.4033 N   0  0  0  0  0  0  0  0  0  0  0  0
    1.9378    2.3653    2.1438 C   0  0  2  0  0  0  0  0  0  0  0  0
    2.6795    2.8121    3.3966 C   0  0  0  0  0  0  0  0  0  0  0  0
    2.4333    2.3682    4.5162 O   0  0  0  0  0  0  0  0  0  0  0  0
    0.8653    3.3724    1.7588 C   0  0  0  0  0  0  0  0  0  0  0  0
    1.0584    0.8633    3.3499 H   0  0  0  0  0  0  0  0  0  0  0  0
    2.6509    2.2400    1.3217 H   0  0  0  0  0  0  0  0  0  0  0  0
    0.1416    3.5111    2.5702 H   0  0  0  0  0  0  0  0  0  0  0  0
    1.3023    4.3511    1.5347 H   0  0  0  0  0  0  0  0  0  0  0  0
    0.3131    3.0350    0.8750 H   0  0  0  0  0  0  0  0  0  0  0  0
    3.6192    3.7963    3.1237 N   0  0  0  0  0  0  0  0  0  0  0  0
    4.4436    4.3928    4.1486 C   0  0  0  0  0  0  0  0  0  0  0  0
    3.7698    4.0909    2.1633 H   0  0  0  0  0  0  0  0  0  0  0  0
    3.9542    5.3005    4.5315 H   0  0  0  0  0  0  0  0  0  0  0  0
    4.5815    3.6759    4.9715 H   0  0  0  0  0  0  0  0  0  0  0  0
    5.4235    4.6562    3.7237 H   0  0  0  0  0  0  0  0  0  0  0  0
  1  3  1  0  0  0  0
  1  7  1  0  0  0  0
  1  2  2  0  0  0  0
 30 31  1  0  0  0  0
 31 39  1  0  0  0  0
 31 32  2  0  0  0  0
  8  9  1  0  0  0  0
  9 17  1  0  0  0  0
  9 10  2  0  0  0  0
 18 19  1  0  0  0  0
 19 29  1  0  0  0  0
 19 20  2  0  0  0  0
 21 22  1  0  0  0  0
 22 23  1  0  0  0  0
 22 24  2  0  0  0  0
 30 33  1  0  0  0  0
  8 11  1  0  0  0  0
 39 40  1  0  0  0  0
 18 21  1  0  0  0  0
 29 30  1  0  0  0  0
  7  8  1  0  0  0  0
 17 18  1  0  0  0  0
  3  4  1  0  0  0  0
  3  5  1  0  0  0  0
  3  6  1  0  0  0  0
 33 36  1  0  0  0  0
 33 37  1  0  0  0  0
 33 38  1  0  0  0  0
 11 14  1  0  0  0  0
 11 15  1  0  0  0  0
 11 16  1  0  0  0  0
 40 42  1  0  0  0  0
 40 43  1  0  0  0  0
 40 44  1  0  0  0  0
 21 27  1  0  0  0  0
 21 28  1  0  0  0  0
 30 35  1  0  0  0  0
  8 13  1  0  0  0  0
 18 26  1  0  0  0  0
 39 41  1  0  0  0  0
  7 12  1  0  0  0  0
 29 34  1  0  0  0  0
 17 25  1  0  0  0  0
M  CHG  1  23  -1
M  END
$$$$

  -OEChem-05262214473D

 44 43  0     1  0  0  0  0  0999 V2000
   -4.0256   -1.8030   -2.1581 C   0  0  0  0  0  0  0  0  0  0  0  0
   -3.7513   -2.6782   -2.9709 O   0  0  0  0  0  0  0  0  0  0  0  0
   -5.3491   -1.1169   -2.2339 C   0  0  0  0  0  0  0  0  0  0  0  0
   -5.3223   -0.2211   -2.8750 H   0  0  0  0  0  0  0  0  0  0  0  0
   -6.1322   -1.7605   -2.6658 H   0  0  0  0  0  0  0  0  0  0  0  0
   -5.7568   -0.7715   -1.2704 H   0  0  0  0  0  0  0  0  0  0  0  0
   -3.2124   -1.3578   -1.1289 N   0  0  0  0  0  0  0  0  0  0  0  0
   -1.8971   -1.8843   -0.8752 C   0  0  2  0  0  0  0  0  0  0  0  0
   -1.2676   -1.0599    0.2399 C   0  0  0  0  0  0  0  0  0  0  0  0
   -1.6270    0.0833    0.5138 O   0  0  0  0  0  0  0  0  0  0  0  0
   -1.0364   -1.8506   -2.1285 C   0  0  0  0  0  0  0  0  0  0  0  0
   -3.5631   -0.6202   -0.5206 H   0  0  0  0  0  0  0  0  0  0  0  0
   -2.0301   -2.9174   -0.5360 H   0  0  0  0  0  0  0  0  0  0  0  0
   -0.8921   -0.8236   -2.4833 H   0  0  0  0  0  0  0  0  0  0  0  0
   -0.0457   -2.2777   -1.9410 H   0  0  0  0  0  0  0  0  0  0  0  0
   -1.5052   -2.4193   -2.9387 H   0  0  0  0  0  0  0  0  0  0  0  0
   -0.2267   -1.7335    0.8672 N   0  0  0  0  0  0  0  0  0  0  0  0
    0.5363   -1.1590    1.9465 C   0  0  2  0  0  0  0  0  0  0  0  0
    1.1886    0.1103    1.4107 C   0  0  0  0  0  0  0  0  0  0  0  0
    1.2318    0.3881    0.2140 O   0  0  0  0  0  0  0  0  0  0  0  0
    1.5953   -2.1261    2.4708 C   0  0  0  0  0  0  0  0  0  0  0  0
    1.0795   -3.3609    3.2207 C   0  0  0  0  0  0  0  0  0  0  0  0
   -0.0240   -3.1815    3.8131 O   0  5  0  0  0  0  0  0  0  0  0  0
    1.8016   -4.3939    3.1727 O   0  0  0  0  0  0  0  0  0  0  0  0
   -0.0113   -2.6869    0.5854 H   0  0  0  0  0  0  0  0  0  0  0  0
   -0.1800   -0.8922    2.7318 H   0  0  0  0  0  0  0  0  0  0  0  0
    2.2864   -1.5913    3.1366 H   0  0  0  0  0  0  0  0  0  0  0  0
    2.1988   -2.5020    1.6343 H   0  0  0  0  0  0  0  0  0  0  0  0
    1.6698    0.9198    2.4302 N   0  0  0  0  0  0  0  0  0  0  0  0
    2.3037    2.1942    2.1838 C   0  0  2  0  0  0  0  0  0  0  0  0
    3.3344    2.4266    3.2807 C   0  0  0  0  0  0  0  0  0  0  0  0
    3.2848    1.8716    4.3763 O   0  0  0  0  0  0  0  0  0  0  0  0
    1.2839    3.3218    2.1485 C   0  0  0  0  0  0  0  0  0  0  0  0
    1.5477    0.6316    3.3966 H   0  0  0  0  0  0  0  0  0  0  0  0
    2.8110    2.1132    1.2163 H   0  0  0  0  0  0  0  0  0  0  0  0
    0.7654    3.4182    3.1094 H   0  0  0  0  0  0  0  0  0  0  0  0
    1.7624    4.2829    1.9333 H   0  0  0  0  0  0  0  0  0  0  0  0
    0.5263    3.1381    1.3790 H   0  0  0  0  0  0  0  0  0  0  0  0
    4.2920    3.3594    2.9077 N   0  0  0  0  0  0  0  0  0  0  0  0
    5.3706    3.7610    3.7803 C   0  0  0  0  0  0  0  0  0  0  0  0
    4.2667    3.7550    1.9725 H   0  0  0  0  0  0  0  0  0  0  0  0
    5.0689    4.6515    4.3512 H   0  0  0  0  0  0  0  0  0  0  0  0
    5.6039    2.9413    4.4759 H   0  0  0  0  0  0  0  0  0  0  0  0
    6.2609    3.9957    3.1784 H   0  0  0  0  0  0  0  0  0  0  0  0
  1  3  1  0  0  0  0
  1  7  1  0  0  0  0
  1  2  2  0  0  0  0
 30 31  1  0  0  0  0
 31 39  1  0  0  0  0
 31 32  2  0  0  0  0
  8  9  1  0  0  0  0
  9 17  1  0  0  0  0
  9 10  2  0  0  0  0
 18 19  1  0  0  0  0
 19 29  1  0  0  0  0
 19 20  2  0  0  0  0
 21 22  1  0  0  0  0
 22 23  1  0  0  0  0
 22 24  2  0  0  0  0
 30 33  1  0  0  0  0
  8 11  1  0  0  0  0
 39 40  1  0  0  0  0
 18 21  1  0  0  0  0
 29 30  1  0  0  0  0
  7  8  1  0  0  0  0
 17 18  1  0  0  0  0
  3  4  1  0  0  0  0
  3  5  1  0  0  0  0
  3  6  1  0  0  0  0
 33 36  1  0  0  0  0
 33 37  1  0  0  0  0
 33 38  1  0  0  0  0
 11 14  1  0  0  0  0
 11 15  1  0  0  0  0
 11 16  1  0  0  0  0
 40 42  1  0  0  0  0
 40 43  1  0  0  0  0
 40 44  1  0  0  0  0
 21 27  1  0  0  0  0
 21 28  1  0  0  0  0
 30 35  1  0  0  0  0
  8 13  1  0  0  0  0
 18 26  1  0  0  0  0
 39 41  1  0  0  0  0
  7 12  1  0  0  0  0
 29 34  1  0  0  0  0
 17 25  1  0  0  0  0
M  CHG  1  23  -1
M  END
$$$$

  -OEChem-05262214473D

 44 43  0     1  0  0  0  0  0999 V2000
   -4.0256   -1.8030   -2.1581 C   0  0  0  0  0  0  0  0  0  0  0  0
   -3.7513   -2.6782   -2.9709 O   0  0  0  0  0  0  0  0  0  0  0  0
   -5.3491   -1.1169   -2.2339 C   0  0  0  0  0  0  0  0  0  0  0  0
   -5.3223   -0.2211   -2.8750 H   0  0  0  0  0  0  0  0  0  0  0  0
   -6.1322   -1.7605   -2.6658 H   0  0  0  0  0  0  0  0  0  0  0  0
   -5.7568   -0.7715   -1.2704 H   0  0  0  0  0  0  0  0  0  0  0  0
   -3.2124   -1.3578   -1.1289 N   0  0  0  0  0  0  0  0  0  0  0  0
   -1.8971   -1.8843   -0.8752 C   0  0  2  0  0  0  0  0  0  0  0  0
   -1.2676   -1.0599    0.2399 C   0  0  0  0  0  0  0  0  0  0  0  0
   -1.6270    0.0833    0.5138 O   0  0  0  0  0  0  0  0  0  0  0  0
   -1.0364   -1.8506   -2.1285 C   0  0  0  0  0  0  0  0  0  0  0  0
   -3.5631   -0.6202   -0.5206 H   0  0  0  0  0  0  0  0  0  0  0  0
   -2.0301   -2.9174   -0.5360 H   0  0  0  0  0  0  0  0  0  0  0  0
   -0.8921   -0.8236   -2.4833 H   0  0  0  0  0  0  0  0  0  0  0  0
   -0.0457   -2.2777   -1.9410 H   0  0  0  0  0  0  0  0  0  0  0  0
   -1.5052   -2.4193   -2.9387 H   0  0  0  0  0  0  0  0  0  0  0  0
   -0.2267   -1.7335    0.8672 N   0  0  0  0  0  0  0  0  0  0  0  0
    0.5363   -1.1590    1.9465 C   0  0  2  0  0  0  0  0  0  0  0  0
    0.8732    0.2730    1.5471 C   0  0  0  0  0  0  0  0  0  0  0  0
    0.4855    0.7856    0.4991 O   0  0  0  0  0  0  0  0  0  0  0  0
    1.8110   -1.9520    2.2256 C   0  0  0  0  0  0  0  0  0  0  0  0
    1.6258   -3.3502    2.8289 C   0  0  0  0  0  0  0  0  0  0  0  0
    0.5850   -3.4729    3.5377 O   0  5  0  0  0  0  0  0  0  0  0  0
    2.5174   -4.2024    2.5648 O   0  0  0  0  0  0  0  0  0  0  0  0
   -0.0113   -2.6869    0.5854 H   0  0  0  0  0  0  0  0  0  0  0  0
   -0.1206   -1.1434    2.8235 H   0  0  0  0  0  0  0  0  0  0  0  0
    2.4631   -1.3781    2.8982 H   0  0  0  0  0  0  0  0  0  0  0  0
    2.3723   -2.0897    1.2922 H   0  0  0  0  0  0  0  0  0  0  0  0
    1.6133    0.9263    2.5227 N   0  0  0  0  0  0  0  0  0  0  0  0
    2.0312    2.3032    2.3962 C   0  0  2  0  0  0  0  0  0  0  0  0
    3.3544    2.4626    3.1331 C   0  0  0  0  0  0  0  0  0  0  0  0
    3.7217    1.7004    4.0249 O   0  0  0  0  0  0  0  0  0  0  0  0
    0.9817    3.2532    2.9518 C   0  0  0  0  0  0  0  0  0  0  0  0
    1.8491    0.4377    3.3814 H   0  0  0  0  0  0  0  0  0  0  0  0
    2.1826    2.4908    1.3276 H   0  0  0  0  0  0  0  0  0  0  0  0
    0.8163    3.0802    4.0215 H   0  0  0  0  0  0  0  0  0  0  0  0
    1.2873    4.2976    2.8293 H   0  0  0  0  0  0  0  0  0  0  0  0
    0.0225    3.1164    2.4408 H   0  0  0  0  0  0  0  0  0  0  0  0
    4.0573    3.5811    2.7075 N   0  0  0  0  0  0  0  0  0  0  0  0
    5.3367    3.9559    3.2631 C   0  0  0  0  0  0  0  0  0  0  0  0
    3.6861    4.1459    1.9493 H   0  0  0  0  0  0  0  0  0  0  0  0
    5.1842    4.6615    4.0930 H   0  0  0  0  0  0  0  0  0  0  0  0
    5.8518    3.0580    3.6354 H   0  0  0  0  0  0  0  0  0  0  0  0
    5.9490    4.4332    2.4838 H   0  0  0  0  0  0  0  0  0  0  0  0
  1  3  1  0  0  0  0
  1  7  1  0  0  0  0
  1  2  2  0  0  0  0
 30 31  1  0  0  0  0
 31 39  1  0  0  0  0
 31 32  2  0  0  0  0
  8  9  1  0  0  0  0
  9 17  1  0  0  0  0
  9 10  2  0  0  0  0
 18 19  1  0  0  0  0
 19 29  1  0  0  0  0
 19 20  2  0  0  0  0
 21 22  1  0  0  0  0
 22 23  1  0  0  0  0
 22 24  2  0  0  0  0
 30 33  1  0  0  0  0
  8 11  1  0  0  0  0
 39 40  1  0  0  0  0
 18 21  1  0  0  0  0
 29 30  1  0  0  0  0
  7  8  1  0  0  0  0
 17 18  1  0  0  0  0
  3  4  1  0  0  0  0
  3  5  1  0  0  0  0
  3  6  1  0  0  0  0
 33 36  1  0  0  0  0
 33 37  1  0  0  0  0
 33 38  1  0  0  0  0
 11 14  1  0  0  0  0
 11 15  1  0  0  0  0
 11 16  1  0  0  0  0
 40 42  1  0  0  0  0
 40 43  1  0  0  0  0
 40 44  1  0  0  0  0
 21 27  1  0  0  0  0
 21 28  1  0  0  0  0
 30 35  1  0  0  0  0
  8 13  1  0  0  0  0
 18 26  1  0  0  0  0
 39 41  1  0  0  0  0
  7 12  1  0  0  0  0
 29 34  1  0  0  0  0
 17 25  1  0  0  0  0
M  CHG  1  23  -1
M  END
$$$$

  -OEChem-05262214473D

 44 43  0     1  0  0  0  0  0999 V2000
   -4.0256   -1.8030   -2.1581 C   0  0  0  0  0  0  0  0  0  0  0  0
   -3.7513   -2.6782   -2.9709 O   0  0  0  0  0  0  0  0  0  0  0  0
   -5.3491   -1.1169   -2.2339 C   0  0  0  0  0  0  0  0  0  0  0  0
   -5.3223   -0.2211   -2.8750 H   0  0  0  0  0  0  0  0  0  0  0  0
   -6.1322   -1.7605   -2.6658 H   0  0  0  0  0  0  0  0  0  0  0  0
   -5.7568   -0.7715   -1.2704 H   0  0  0  0  0  0  0  0  0  0  0  0
   -3.2124   -1.3578   -1.1289 N   0  0  0  0  0  0  0  0  0  0  0  0
   -1.8971   -1.8843   -0.8752 C   0  0  2  0  0  0  0  0  0  0  0  0
   -1.2676   -1.0599    0.2399 C   0  0  0  0  0  0  0  0  0  0  0  0
   -1.6270    0.0833    0.5138 O   0  0  0  0  0  0  0  0  0  0  0  0
   -1.0364   -1.8506   -2.1285 C   0  0  0  0  0  0  0  0  0  0  0  0
   -3.5631   -0.6202   -0.5206 H   0  0  0  0  0  0  0  0  0  0  0  0
   -2.0301   -2.9174   -0.5360 H   0  0  0  0  0  0  0  0  0  0  0  0
   -0.8921   -0.8236   -2.4833 H   0  0  0  0  0  0  0  0  0  0  0  0
   -0.0457   -2.2777   -1.9410 H   0  0  0  0  0  0  0  0  0  0  0  0
   -1.5052   -2.4193   -2.9387 H   0  0  0  0  0  0  0  0  0  0  0  0
   -0.2267   -1.7335    0.8672 N   0  0  0  0  0  0  0  0  0  0  0  0
    0.5363   -1.1590    1.9465 C   0  0  2  0  0  0  0  0  0  0  0  0
    0.8732    0.2730    1.5471 C   0  0  0  0  0  0  0  0  0  0  0  0
    0.2837    0.8758    0.6524 O   0  0  0  0  0  0  0  0  0  0  0  0
    1.8110   -1.9520    2.2256 C   0  0  0  0  0  0  0  0  0  0  0  0
    1.6258   -3.3502    2.8289 C   0  0  0  0  0  0  0  0  0  0  0  0
    0.5850   -3.4729    3.5377 O   0  5  0  0  0  0  0  0  0  0  0  0
    2.5174   -4.2024    2.5648 O   0  0  0  0  0  0  0  0  0  0  0  0
   -0.0113   -2.6869    0.5854 H   0  0  0  0  0  0  0  0  0  0  0  0
   -0.1206   -1.1434    2.8235 H   0  0  0  0  0  0  0  0  0  0  0  0
    2.4631   -1.3781    2.8982 H   0  0  0  0  0  0  0  0  0  0  0  0
    2.3723   -2.0897    1.2922 H   0  0  0  0  0  0  0  0  0  0  0  0
    1.8735    0.8148    2.3422 N   0  0  0  0  0  0  0  0  0  0  0  0
    2.3504    2.1690    2.1845 C   0  0  2  0  0  0  0  0  0  0  0  0
    3.8205    2.1991    2.5815 C   0  0  0  0  0  0  0  0  0  0  0  0
    4.3338    1.3592    3.3177 O   0  0  0  0  0  0  0  0  0  0  0  0
    1.5401    3.1426    3.0261 C   0  0  0  0  0  0  0  0  0  0  0  0
    2.2722    0.2574    3.0920 H   0  0  0  0  0  0  0  0  0  0  0  0
    2.2534    2.4168    1.1219 H   0  0  0  0  0  0  0  0  0  0  0  0
    1.6251    2.9102    4.0939 H   0  0  0  0  0  0  0  0  0  0  0  0
    1.8845    4.1722    2.8836 H   0  0  0  0  0  0  0  0  0  0  0  0
    0.4786    3.0981    2.7598 H   0  0  0  0  0  0  0  0  0  0  0  0
    4.4817    3.2984    2.0517 N   0  0  0  0  0  0  0  0  0  0  0  0
    5.8817    3.5575    2.2943 C   0  0  0  0  0  0  0  0  0  0  0  0
    3.9820    3.9332    1.4361 H   0  0  0  0  0  0  0  0  0  0  0  0
    5.9871    4.2152    3.1697 H   0  0  0  0  0  0  0  0  0  0  0  0
    6.4027    2.6075    2.4847 H   0  0  0  0  0  0  0  0  0  0  0  0
    6.3220    4.0469    1.4131 H   0  0  0  0  0  0  0  0  0  0  0  0
  1  3  1  0  0  0  0
  1  7  1  0  0  0  0
  1  2  2  0  0  0  0
 30 31  1  0  0  0  0
 31 39  1  0  0  0  0
 31 32  2  0  0  0  0
  8  9  1  0  0  0  0
  9 17  1  0  0  0  0
  9 10  2  0  0  0  0
 18 19  1  0  0  0  0
 19 29  1  0  0  0  0
 19 20  2  0  0  0  0
 21 22  1  0  0  0  0
 22 23  1  0  0  0  0
 22 24  2  0  0  0  0
 30 33  1  0  0  0  0
  8 11  1  0  0  0  0
 39 40  1  0  0  0  0
 18 21  1  0  0  0  0
 29 30  1  0  0  0  0
  7  8  1  0  0  0  0
 17 18  1  0  0  0  0
  3  4  1  0  0  0  0
  3  5  1  0  0  0  0
  3  6  1  0  0  0  0
 33 36  1  0  0  0  0
 33 37  1  0  0  0  0
 33 38  1  0  0  0  0
 11 14  1  0  0  0  0
 11 15  1  0  0  0  0
 11 16  1  0  0  0  0
 40 42  1  0  0  0  0
 40 43  1  0  0  0  0
 40 44  1  0  0  0  0
 21 27  1  0  0  0  0
 21 28  1  0  0  0  0
 30 35  1  0  0  0  0
  8 13  1  0  0  0  0
 18 26  1  0  0  0  0
 39 41  1  0  0  0  0
  7 12  1  0  0  0  0
 29 34  1  0  0  0  0
 17 25  1  0  0  0  0
M  CHG  1  23  -1
M  END
$$$$

  -OEChem-05262214473D

 44 43  0     1  0  0  0  0  0999 V2000
   -4.0256   -1.8030   -2.1581 C   0  0  0  0  0  0  0  0  0  0  0  0
   -3.7513   -2.6782   -2.9709 O   0  0  0  0  0  0  0  0  0  0  0  0
   -5.3491   -1.1169   -2.2339 C   0  0  0  0  0  0  0  0  0  0  0  0
   -5.3223   -0.2211   -2.8750 H   0  0  0  0  0  0  0  0  0  0  0  0
   -6.1322   -1.7605   -2.6658 H   0  0  0  0  0  0  0  0  0  0  0  0
   -5.7568   -0.7715   -1.2704 H   0  0  0  0  0  0  0  0  0  0  0  0
   -3.2124   -1.3578   -1.1289 N   0  0  0  0  0  0  0  0  0  0  0  0
   -1.8971   -1.8843   -0.8752 C   0  0  2  0  0  0  0  0  0  0  0  0
   -1.2676   -1.0599    0.2399 C   0  0  0  0  0  0  0  0  0  0  0  0
   -1.6270    0.0833    0.5138 O   0  0  0  0  0  0  0  0  0  0  0  0
   -1.0364   -1.8506   -2.1285 C   0  0  0  0  0  0  0  0  0  0  0  0
   -3.5631   -0.6202   -0.5206 H   0  0  0  0  0  0  0  0  0  0  0  0
   -2.0301   -2.9174   -0.5360 H   0  0  0  0  0  0  0  0  0  0  0  0
   -0.8921   -0.8236   -2.4833 H   0  0  0  0  0  0  0  0  0  0  0  0
   -0.0457   -2.2777   -1.9410 H   0  0  0  0  0  0  0  0  0  0  0  0
   -1.5052   -2.4193   -2.9387 H   0  0  0  0  0  0  0  0  0  0  0  0
   -0.2267   -1.7335    0.8672 N   0  0  0  0  0  0  0  0  0  0  0  0
    0.5363   -1.1590    1.9465 C   0  0  2  0  0  0  0  0  0  0  0  0
    0.8732    0.2730    1.5471 C   0  0  0  0  0  0  0  0  0  0  0  0
    0.1322    0.9679    0.8547 O   0  0  0  0  0  0  0  0  0  0  0  0
    1.8110   -1.9520    2.2256 C   0  0  0  0  0  0  0  0  0  0  0  0
    1.6258   -3.3502    2.8289 C   0  0  0  0  0  0  0  0  0  0  0  0
    0.5850   -3.4729    3.5377 O   0  5  0  0  0  0  0  0  0  0  0  0
    2.5174   -4.2024    2.5648 O   0  0  0  0  0  0  0  0  0  0  0  0
   -0.0113   -2.6869    0.5854 H   0  0  0  0  0  0  0  0  0  0  0  0
   -0.1206   -1.1434    2.8235 H   0  0  0  0  0  0  0  0  0  0  0  0
    2.4631   -1.3781    2.8982 H   0  0  0  0  0  0  0  0  0  0  0  0
    2.3723   -2.0897    1.2922 H   0  0  0  0  0  0  0  0  0  0  0  0
    2.0734    0.6997    2.0982 N   0  0  0  0  0  0  0  0  0  0  0  0
    2.5983    2.0299    1.8947 C   0  0  2  0  0  0  0  0  0  0  0  0
    4.1187    1.9446    1.9202 C   0  0  0  0  0  0  0  0  0  0  0  0
    4.7300    1.0285    2.4663 O   0  0  0  0  0  0  0  0  0  0  0  0
    2.0901    2.9936    2.9558 C   0  0  0  0  0  0  0  0  0  0  0  0
    2.5982    0.0712    2.6993 H   0  0  0  0  0  0  0  0  0  0  0  0
    2.2666    2.3523    0.9017 H   0  0  0  0  0  0  0  0  0  0  0  0
    2.4125    2.6869    3.9575 H   0  0  0  0  0  0  0  0  0  0  0  0
    2.4660    4.0075    2.7836 H   0  0  0  0  0  0  0  0  0  0  0  0
    0.9954    3.0312    2.9559 H   0  0  0  0  0  0  0  0  0  0  0  0
    4.7130    3.0340    1.2989 N   0  0  0  0  0  0  0  0  0  0  0  0
    6.1456    3.1911    1.2033 C   0  0  0  0  0  0  0  0  0  0  0  0
    4.1285    3.7370    0.8563 H   0  0  0  0  0  0  0  0  0  0  0  0
    6.5079    3.7823    2.0572 H   0  0  0  0  0  0  0  0  0  0  0  0
    6.6244    2.2008    1.2136 H   0  0  0  0  0  0  0  0  0  0  0  0
    6.3957    3.7096    0.2660 H   0  0  0  0  0  0  0  0  0  0  0  0
  1  3  1  0  0  0  0
  1  7  1  0  0  0  0
  1  2  2  0  0  0  0
 30 31  1  0  0  0  0
 31 39  1  0  0  0  0
 31 32  2  0  0  0  0
  8  9  1  0  0  0  0
  9 17  1  0  0  0  0
  9 10  2  0  0  0  0
 18 19  1  0  0  0  0
 19 29  1  0  0  0  0
 19 20  2  0  0  0  0
 21 22  1  0  0  0  0
 22 23  1  0  0  0  0
 22 24  2  0  0  0  0
 30 33  1  0  0  0  0
  8 11  1  0  0  0  0
 39 40  1  0  0  0  0
 18 21  1  0  0  0  0
 29 30  1  0  0  0  0
  7  8  1  0  0  0  0
 17 18  1  0  0  0  0
  3  4  1  0  0  0  0
  3  5  1  0  0  0  0
  3  6  1  0  0  0  0
 33 36  1  0  0  0  0
 33 37  1  0  0  0  0
 33 38  1  0  0  0  0
 11 14  1  0  0  0  0
 11 15  1  0  0  0  0
 11 16  1  0  0  0  0
 40 42  1  0  0  0  0
 40 43  1  0  0  0  0
 40 44  1  0  0  0  0
 21 27  1  0  0  0  0
 21 28  1  0  0  0  0
 30 35  1  0  0  0  0
  8 13  1  0  0  0  0
 18 26  1  0  0  0  0
 39 41  1  0  0  0  0
  7 12  1  0  0  0  0
 29 34  1  0  0  0  0
 17 25  1  0  0  0  0
M  CHG  1  23  -1
M  END
$$$$

  -OEChem-05262214473D

 44 43  0     1  0  0  0  0  0999 V2000
   -4.0256   -1.8030   -2.1581 C   0  0  0  0  0  0  0  0  0  0  0  0
   -3.7513   -2.6782   -2.9709 O   0  0  0  0  0  0  0  0  0  0  0  0
   -5.3491   -1.1169   -2.2339 C   0  0  0  0  0  0  0  0  0  0  0  0
   -5.3223   -0.2211   -2.8750 H   0  0  0  0  0  0  0  0  0  0  0  0
   -6.1322   -1.7605   -2.6658 H   0  0  0  0  0  0  0  0  0  0  0  0
   -5.7568   -0.7715   -1.2704 H   0  0  0  0  0  0  0  0  0  0  0  0
   -3.2124   -1.3578   -1.1289 N   0  0  0  0  0  0  0  0  0  0  0  0
   -1.8971   -1.8843   -0.8752 C   0  0  2  0  0  0  0  0  0  0  0  0
   -1.2676   -1.0599    0.2399 C   0  0  0  0  0  0  0  0  0  0  0  0
   -1.6270    0.0833    0.5138 O   0  0  0  0  0  0  0  0  0  0  0  0
   -1.0364   -1.8506   -2.1285 C   0  0  0  0  0  0  0  0  0  0  0  0
   -3.5631   -0.6202   -0.5206 H   0  0  0  0  0  0  0  0  0  0  0  0
   -2.0301   -2.9174   -0.5360 H   0  0  0  0  0  0  0  0  0  0  0  0
   -0.8921   -0.8236   -2.4833 H   0  0  0  0  0  0  0  0  0  0  0  0
   -0.0457   -2.2777   -1.9410 H   0  0  0  0  0  0  0  0  0  0  0  0
   -1.5052   -2.4193   -2.9387 H   0  0  0  0  0  0  0  0  0  0  0  0
   -0.2267   -1.7335    0.8672 N   0  0  0  0  0  0  0  0  0  0  0  0
    0.5363   -1.1590    1.9465 C   0  0  2  0  0  0  0  0  0  0  0  0
    0.8732    0.2730    1.5471 C   0  0  0  0  0  0  0  0  0  0  0  0
    0.0413    1.0555    1.0922 O   0  0  0  0  0  0  0  0  0  0  0  0
    1.8110   -1.9520    2.2256 C   0  0  0  0  0  0  0  0  0  0  0  0
    1.6258   -3.3502    2.8289 C   0  0  0  0  0  0  0  0  0  0  0  0
    0.5850   -3.4729    3.5377 O   0  5  0  0  0  0  0  0  0  0  0  0
    2.5174   -4.2024    2.5648 O   0  0  0  0  0  0  0  0  0  0  0  0
   -0.0113   -2.6869    0.5854 H   0  0  0  0  0  0  0  0  0  0  0  0
   -0.1206   -1.1434    2.8235 H   0  0  0  0  0  0  0  0  0  0  0  0
    2.4631   -1.3781    2.8982 H   0  0  0  0  0  0  0  0  0  0  0  0
    2.3723   -2.0897    1.2922 H   0  0  0  0  0  0  0  0  0  0  0  0
    2.1994    0.5889    1.8074 N   0  0  0  0  0  0  0  0  0  0  0  0
    2.7578    1.8953    1.5466 C   0  0  2  0  0  0  0  0  0  0  0  0
    4.2286    1.7163    1.1945 C   0  0  0  0  0  0  0  0  0  0  0  0
    4.8833    0.7309    1.5287 O   0  0  0  0  0  0  0  0  0  0  0  0
    2.5941    2.8164    2.7456 C   0  0  0  0  0  0  0  0  0  0  0  0
    2.8051   -0.1084    2.2300 H   0  0  0  0  0  0  0  0  0  0  0  0
    2.2215    2.3017    0.6822 H   0  0  0  0  0  0  0  0  0  0  0  0
    3.1247    2.4256    3.6216 H   0  0  0  0  0  0  0  0  0  0  0  0
    2.9923    3.8147    2.5362 H   0  0  0  0  0  0  0  0  0  0  0  0
    1.5377    2.9203    3.0159 H   0  0  0  0  0  0  0  0  0  0  0  0
    4.7355    2.8060    0.5004 N   0  0  0  0  0  0  0  0  0  0  0  0
    6.1103    2.8817    0.0643 C   0  0  0  0  0  0  0  0  0  0  0  0
    4.1159    3.5707    0.2494 H   0  0  0  0  0  0  0  0  0  0  0  0
    6.7111    3.3926    0.8312 H   0  0  0  0  0  0  0  0  0  0  0  0
    6.5020    1.8657   -0.0914 H   0  0  0  0  0  0  0  0  0  0  0  0
    6.1651    3.4444   -0.8793 H   0  0  0  0  0  0  0  0  0  0  0  0
  1  3  1  0  0  0  0
  1  7  1  0  0  0  0
  1  2  2  0  0  0  0
 30 31  1  0  0  0  0
 31 39  1  0  0  0  0
 31 32  2  0  0  0  0
  8  9  1  0  0  0  0
  9 17  1  0  0  0  0
  9 10  2  0  0  0  0
 18 19  1  0  0  0  0
 19 29  1  0  0  0  0
 19 20  2  0  0  0  0
 21 22  1  0  0  0  0
 22 23  1  0  0  0  0
 22 24  2  0  0  0  0
 30 33  1  0  0  0  0
  8 11  1  0  0  0  0
 39 40  1  0  0  0  0
 18 21  1  0  0  0  0
 29 30  1  0  0  0  0
  7  8  1  0  0  0  0
 17 18  1  0  0  0  0
  3  4  1  0  0  0  0
  3  5  1  0  0  0  0
  3  6  1  0  0  0  0
 33 36  1  0  0  0  0
 33 37  1  0  0  0  0
 33 38  1  0  0  0  0
 11 14  1  0  0  0  0
 11 15  1  0  0  0  0
 11 16  1  0  0  0  0
 40 42  1  0  0  0  0
 40 43  1  0  0  0  0
 40 44  1  0  0  0  0
 21 27  1  0  0  0  0
 21 28  1  0  0  0  0
 30 35  1  0  0  0  0
  8 13  1  0  0  0  0
 18 26  1  0  0  0  0
 39 41  1  0  0  0  0
  7 12  1  0  0  0  0
 29 34  1  0  0  0  0
 17 25  1  0  0  0  0
M  CHG  1  23  -1
M  END
$$$$

  -OEChem-05262214473D

 44 43  0     1  0  0  0  0  0999 V2000
   -4.0256   -1.8030   -2.1581 C   0  0  0  0  0  0  0  0  0  0  0  0
   -3.7513   -2.6782   -2.9709 O   0  0  0  0  0  0  0  0  0  0  0  0
   -5.3491   -1.1169   -2.2339 C   0  0  0  0  0  0  0  0  0  0  0  0
   -5.3223   -0.2211   -2.8750 H   0  0  0  0  0  0  0  0  0  0  0  0
   -6.1322   -1.7605   -2.6658 H   0  0  0  0  0  0  0  0  0  0  0  0
   -5.7568   -0.7715   -1.2704 H   0  0  0  0  0  0  0  0  0  0  0  0
   -3.2124   -1.3578   -1.1289 N   0  0  0  0  0  0  0  0  0  0  0  0
   -1.8971   -1.8843   -0.8752 C   0  0  2  0  0  0  0  0  0  0  0  0
   -1.2676   -1.0599    0.2399 C   0  0  0  0  0  0  0  0  0  0  0  0
   -1.6270    0.0833    0.5138 O   0  0  0  0  0  0  0  0  0  0  0  0
   -1.0364   -1.8506   -2.1285 C   0  0  0  0  0  0  0  0  0  0  0  0
   -3.5631   -0.6202   -0.5206 H   0  0  0  0  0  0  0  0  0  0  0  0
   -2.0301   -2.9174   -0.5360 H   0  0  0  0  0  0  0  0  0  0  0  0
   -0.8921   -0.8236   -2.4833 H   0  0  0  0  0  0  0  0  0  0  0  0
   -0.0457   -2.2777   -1.9410 H   0  0  0  0  0  0  0  0  0  0  0  0
   -1.5052   -2.4193   -2.9387 H   0  0  0  0  0  0  0  0  0  0  0  0
   -0.2267   -1.7335    0.8672 N   0  0  0  0  0  0  0  0  0  0  0  0
    0.5363   -1.1590    1.9465 C   0  0  2  0  0  0  0  0  0  0  0  0
    0.8732    0.2730    1.5471 C   0  0  0  0  0  0  0  0  0  0  0  0
    0.0172    1.1327    1.3488 O   0  0  0  0  0  0  0  0  0  0  0  0
    1.8110   -1.9520    2.2256 C   0  0  0  0  0  0  0  0  0  0  0  0
    1.6258   -3.3502    2.8289 C   0  0  0  0  0  0  0  0  0  0  0  0
    0.5850   -3.4729    3.5377 O   0  5  0  0  0  0  0  0  0  0  0  0
    2.5174   -4.2024    2.5648 O   0  0  0  0  0  0  0  0  0  0  0  0
   -0.0113   -2.6869    0.5854 H   0  0  0  0  0  0  0  0  0  0  0  0
   -0.1206   -1.1434    2.8235 H   0  0  0  0  0  0  0  0  0  0  0  0
    2.4631   -1.3781    2.8982 H   0  0  0  0  0  0  0  0  0  0  0  0
    2.3723   -2.0897    1.2922 H   0  0  0  0  0  0  0  0  0  0  0  0
    2.2428    0.4901    1.4895 N   0  0  0  0  0  0  0  0  0  0  0  0
    2.8181    1.7744    1.1639 C   0  0  2  0  0  0  0  0  0  0  0  0
    4.1429    1.5298    0.4537 C   0  0  0  0  0  0  0  0  0  0  0  0
    4.7832    0.4868    0.5687 O   0  0  0  0  0  0  0  0  0  0  0  0
    3.0179    2.6231    2.4099 C   0  0  0  0  0  0  0  0  0  0  0  0
    2.8786   -0.2690    1.7162 H   0  0  0  0  0  0  0  0  0  0  0  0
    2.1212    2.2684    0.4781 H   0  0  0  0  0  0  0  0  0  0  0  0
    3.7132    2.1442    3.1090 H   0  0  0  0  0  0  0  0  0  0  0  0
    3.4274    3.6070    2.1583 H   0  0  0  0  0  0  0  0  0  0  0  0
    2.0687    2.7730    2.9356 H   0  0  0  0  0  0  0  0  0  0  0  0
    4.5476    2.6299   -0.2895 N   0  0  0  0  0  0  0  0  0  0  0  0
    5.7783    2.6504   -1.0450 C   0  0  0  0  0  0  0  0  0  0  0  0
    3.9448    3.4457   -0.3432 H   0  0  0  0  0  0  0  0  0  0  0  0
    6.5829    3.0725   -0.4248 H   0  0  0  0  0  0  0  0  0  0  0  0
    6.0436    1.6249   -1.3413 H   0  0  0  0  0  0  0  0  0  0  0  0
    5.6459    3.2695   -1.9446 H   0  0  0  0  0  0  0  0  0  0  0  0
  1  3  1  0  0  0  0
  1  7  1  0  0  0  0
  1  2  2  0  0  0  0
 30 31  1  0  0  0  0
 31 39  1  0  0  0  0
 31 32  2  0  0  0  0
  8  9  1  0  0  0  0
  9 17  1  0  0  0  0
  9 10  2  0  0  0  0
 18 19  1  0  0  0  0
 19 29  1  0  0  0  0
 19 20  2  0  0  0  0
 21 22  1  0  0  0  0
 22 23  1  0  0  0  0
 22 24  2  0  0  0  0
 30 33  1  0  0  0  0
  8 11  1  0  0  0  0
 39 40  1  0  0  0  0
 18 21  1  0  0  0  0
 29 30  1  0  0  0  0
  7  8  1  0  0  0  0
 17 18  1  0  0  0  0
  3  4  1  0  0  0  0
  3  5  1  0  0  0  0
  3  6  1  0  0  0  0
 33 36  1  0  0  0  0
 33 37  1  0  0  0  0
 33 38  1  0  0  0  0
 11 14  1  0  0  0  0
 11 15  1  0  0  0  0
 11 16  1  0  0  0  0
 40 42  1  0  0  0  0
 40 43  1  0  0  0  0
 40 44  1  0  0  0  0
 21 27  1  0  0  0  0
 21 28  1  0  0  0  0
 30 35  1  0  0  0  0
  8 13  1  0  0  0  0
 18 26  1  0  0  0  0
 39 41  1  0  0  0  0
  7 12  1  0  0  0  0
 29 34  1  0  0  0  0
 17 25  1  0  0  0  0
M  CHG  1  23  -1
M  END
$$$$

  -OEChem-05262214473D

 44 43  0     1  0  0  0  0  0999 V2000
   -4.0256   -1.8030   -2.1581 C   0  0  0  0  0  0  0  0  0  0  0  0
   -3.7513   -2.6782   -2.9709 O   0  0  0  0  0  0  0  0  0  0  0  0
   -5.3491   -1.1169   -2.2339 C   0  0  0  0  0  0  0  0  0  0  0  0
   -5.3223   -0.2211   -2.8750 H   0  0  0  0  0  0  0  0  0  0  0  0
   -6.1322   -1.7605   -2.6658 H   0  0  0  0  0  0  0  0  0  0  0  0
   -5.7568   -0.7715   -1.2704 H   0  0  0  0  0  0  0  0  0  0  0  0
   -3.2124   -1.3578   -1.1289 N   0  0  0  0  0  0  0  0  0  0  0  0
   -1.8971   -1.8843   -0.8752 C   0  0  2  0  0  0  0  0  0  0  0  0
   -1.2676   -1.0599    0.2399 C   0  0  0  0  0  0  0  0  0  0  0  0
   -1.6270    0.0833    0.5138 O   0  0  0  0  0  0  0  0  0  0  0  0
   -1.0364   -1.8506   -2.1285 C   0  0  0  0  0  0  0  0  0  0  0  0
   -3.5631   -0.6202   -0.5206 H   0  0  0  0  0  0  0  0  0  0  0  0
   -2.0301   -2.9174   -0.5360 H   0  0  0  0  0  0  0  0  0  0  0  0
   -0.8921   -0.8236   -2.4833 H   0  0  0  0  0  0  0  0  0  0  0  0
   -0.0457   -2.2777   -1.9410 H   0  0  0  0  0  0  0  0  0  0  0  0
   -1.5052   -2.4193   -2.9387 H   0  0  0  0  0  0  0  0  0  0  0  0
   -0.2267   -1.7335    0.8672 N   0  0  0  0  0  0  0  0  0  0  0  0
    0.5363   -1.1590    1.9465 C   0  0  2  0  0  0  0  0  0  0  0  0
    0.8732    0.2730    1.5471 C   0  0  0  0  0  0  0  0  0  0  0  0
    0.0615    1.1943    1.6068 O   0  0  0  0  0  0  0  0  0  0  0  0
    1.8110   -1.9520    2.2256 C   0  0  0  0  0  0  0  0  0  0  0  0
    1.6258   -3.3502    2.8289 C   0  0  0  0  0  0  0  0  0  0  0  0
    0.5850   -3.4729    3.5377 O   0  5  0  0  0  0  0  0  0  0  0  0
    2.5174   -4.2024    2.5648 O   0  0  0  0  0  0  0  0  0  0  0  0
   -0.0113   -2.6869    0.5854 H   0  0  0  0  0  0  0  0  0  0  0  0
   -0.1206   -1.1434    2.8235 H   0  0  0  0  0  0  0  0  0  0  0  0
    2.4631   -1.3781    2.8982 H   0  0  0  0  0  0  0  0  0  0  0  0
    2.3723   -2.0897    1.2922 H   0  0  0  0  0  0  0  0  0  0  0  0
    2.2008    0.4098    1.1662 N   0  0  0  0  0  0  0  0  0  0  0  0
    2.7751    1.6754    0.7726 C   0  0  2  0  0  0  0  0  0  0  0  0
    3.8674    1.3979   -0.2517 C   0  0  0  0  0  0  0  0  0  0  0  0
    4.4365    0.3126   -0.3482 O   0  0  0  0  0  0  0  0  0  0  0  0
    3.3324    2.4268    1.9715 C   0  0  0  0  0  0  0  0  0  0  0  0
    2.8138   -0.3997    1.1928 H   0  0  0  0  0  0  0  0  0  0  0  0
    1.9723    2.2547    0.3036 H   0  0  0  0  0  0  0  0  0  0  0  0
    4.1379    1.8618    2.4546 H   0  0  0  0  0  0  0  0  0  0  0  0
    3.7417    3.3984    1.6756 H   0  0  0  0  0  0  0  0  0  0  0  0
    2.5520    2.5993    2.7206 H   0  0  0  0  0  0  0  0  0  0  0  0
    4.1621    2.5177   -1.0168 N   0  0  0  0  0  0  0  0  0  0  0  0
    5.1723    2.5130   -2.0489 C   0  0  0  0  0  0  0  0  0  0  0  0
    3.6269    3.3704   -0.8813 H   0  0  0  0  0  0  0  0  0  0  0  0
    6.1319    2.8438   -1.6251 H   0  0  0  0  0  0  0  0  0  0  0  0
    5.2807    1.4949   -2.4510 H   0  0  0  0  0  0  0  0  0  0  0  0
    4.8736    3.1966   -2.8573 H   0  0  0  0  0  0  0  0  0  0  0  0
  1  3  1  0  0  0  0
  1  7  1  0  0  0  0
  1  2  2  0  0  0  0
 30 31  1  0  0  0  0
 31 39  1  0  0  0  0
 31 32  2  0  0  0  0
  8  9  1  0  0  0  0
  9 17  1  0  0  0  0
  9 10  2  0  0  0  0
 18 19  1  0  0  0  0
 19 29  1  0  0  0  0
 19 20  2  0  0  0  0
 21 22  1  0  0  0  0
 22 23  1  0  0  0  0
 22 24  2  0  0  0  0
 30 33  1  0  0  0  0
  8 11  1  0  0  0  0
 39 40  1  0  0  0  0
 18 21  1  0  0  0  0
 29 30  1  0  0  0  0
  7  8  1  0  0  0  0
 17 18  1  0  0  0  0
  3  4  1  0  0  0  0
  3  5  1  0  0  0  0
  3  6  1  0  0  0  0
 33 36  1  0  0  0  0
 33 37  1  0  0  0  0
 33 38  1  0  0  0  0
 11 14  1  0  0  0  0
 11 15  1  0  0  0  0
 11 16  1  0  0  0  0
 40 42  1  0  0  0  0
 40 43  1  0  0  0  0
 40 44  1  0  0  0  0
 21 27  1  0  0  0  0
 21 28  1  0  0  0  0
 30 35  1  0  0  0  0
  8 13  1  0  0  0  0
 18 26  1  0  0  0  0
 39 41  1  0  0  0  0
  7 12  1  0  0  0  0
 29 34  1  0  0  0  0
 17 25  1  0  0  0  0
M  CHG  1  23  -1
M  END
$$$$

  -OEChem-05262214473D

 44 43  0     1  0  0  0  0  0999 V2000
   -4.0256   -1.8030   -2.1581 C   0  0  0  0  0  0  0  0  0  0  0  0
   -3.7513   -2.6782   -2.9709 O   0  0  0  0  0  0  0  0  0  0  0  0
   -5.3491   -1.1169   -2.2339 C   0  0  0  0  0  0  0  0  0  0  0  0
   -5.3223   -0.2211   -2.8750 H   0  0  0  0  0  0  0  0  0  0  0  0
   -6.1322   -1.7605   -2.6658 H   0  0  0  0  0  0  0  0  0  0  0  0
   -5.7568   -0.7715   -1.2704 H   0  0  0  0  0  0  0  0  0  0  0  0
   -3.2124   -1.3578   -1.1289 N   0  0  0  0  0  0  0  0  0  0  0  0
   -1.8971   -1.8843   -0.8752 C   0  0  2  0  0  0  0  0  0  0  0  0
   -1.2676   -1.0599    0.2399 C   0  0  0  0  0  0  0  0  0  0  0  0
   -1.6270    0.0833    0.5138 O   0  0  0  0  0  0  0  0  0  0  0  0
   -1.0364   -1.8506   -2.1285 C   0  0  0  0  0  0  0  0  0  0  0  0
   -3.5631   -0.6202   -0.5206 H   0  0  0  0  0  0  0  0  0  0  0  0
   -2.0301   -2.9174   -0.5360 H   0  0  0  0  0  0  0  0  0  0  0  0
   -0.8921   -0.8236   -2.4833 H   0  0  0  0  0  0  0  0  0  0  0  0
   -0.0457   -2.2777   -1.9410 H   0  0  0  0  0  0  0  0  0  0  0  0
   -1.5052   -2.4193   -2.9387 H   0  0  0  0  0  0  0  0  0  0  0  0
   -0.2267   -1.7335    0.8672 N   0  0  0  0  0  0  0  0  0  0  0  0
    0.5363   -1.1590    1.9465 C   0  0  2  0  0  0  0  0  0  0  0  0
    0.8732    0.2730    1.5471 C   0  0  0  0  0  0  0  0  0  0  0  0
    0.1712    1.2360    1.8489 O   0  0  0  0  0  0  0  0  0  0  0  0
    1.8110   -1.9520    2.2256 C   0  0  0  0  0  0  0  0  0  0  0  0
    1.6258   -3.3502    2.8289 C   0  0  0  0  0  0  0  0  0  0  0  0
    0.5850   -3.4729    3.5377 O   0  5  0  0  0  0  0  0  0  0  0  0
    2.5174   -4.2024    2.5648 O   0  0  0  0  0  0  0  0  0  0  0  0
   -0.0113   -2.6869    0.5854 H   0  0  0  0  0  0  0  0  0  0  0  0
   -0.1206   -1.1434    2.8235 H   0  0  0  0  0  0  0  0  0  0  0  0
    2.4631   -1.3781    2.8982 H   0  0  0  0  0  0  0  0  0  0  0  0
    2.3723   -2.0897    1.2922 H   0  0  0  0  0  0  0  0  0  0  0  0
    2.0761    0.3536    0.8595 N   0  0  0  0  0  0  0  0  0  0  0  0
    2.6317    1.6050    0.3995 C   0  0  2  0  0  0  0  0  0  0  0  0
    3.4208    1.3295   -0.8737 C   0  0  0  0  0  0  0  0  0  0  0  0
    3.8669    0.2203   -1.1595 O   0  0  0  0  0  0  0  0  0  0  0  0
    3.5164    2.2410    1.4604 C   0  0  0  0  0  0  0  0  0  0  0  0
    2.6151   -0.4916    0.6956 H   0  0  0  0  0  0  0  0  0  0  0  0
    1.7852    2.2616    0.1704 H   0  0  0  0  0  0  0  0  0  0  0  0
    4.3700    1.5976    1.7031 H   0  0  0  0  0  0  0  0  0  0  0  0
    3.9138    3.2032    1.1210 H   0  0  0  0  0  0  0  0  0  0  0  0
    2.9548    2.4111    2.3854 H   0  0  0  0  0  0  0  0  0  0  0  0
    3.6053    2.4772   -1.6320 N   0  0  0  0  0  0  0  0  0  0  0  0
    4.3335    2.4788   -2.8792 C   0  0  0  0  0  0  0  0  0  0  0  0
    3.1840    3.3500   -1.3280 H   0  0  0  0  0  0  0  0  0  0  0  0
    5.3890    2.7222   -2.6879 H   0  0  0  0  0  0  0  0  0  0  0  0
    4.2652    1.4845   -3.3448 H   0  0  0  0  0  0  0  0  0  0  0  0
    3.9007    3.2308   -3.5554 H   0  0  0  0  0  0  0  0  0  0  0  0
  1  3  1  0  0  0  0
  1  7  1  0  0  0  0
  1  2  2  0  0  0  0
 30 31  1  0  0  0  0
 31 39  1  0  0  0  0
 31 32  2  0  0  0  0
  8  9  1  0  0  0  0
  9 17  1  0  0  0  0
  9 10  2  0  0  0  0
 18 19  1  0  0  0  0
 19 29  1  0  0  0  0
 19 20  2  0  0  0  0
 21 22  1  0  0  0  0
 22 23  1  0  0  0  0
 22 24  2  0  0  0  0
 30 33  1  0  0  0  0
  8 11  1  0  0  0  0
 39 40  1  0  0  0  0
 18 21  1  0  0  0  0
 29 30  1  0  0  0  0
  7  8  1  0  0  0  0
 17 18  1  0  0  0  0
  3  4  1  0  0  0  0
  3  5  1  0  0  0  0
  3  6  1  0  0  0  0
 33 36  1  0  0  0  0
 33 37  1  0  0  0  0
 33 38  1  0  0  0  0
 11 14  1  0  0  0  0
 11 15  1  0  0  0  0
 11 16  1  0  0  0  0
 40 42  1  0  0  0  0
 40 43  1  0  0  0  0
 40 44  1  0  0  0  0
 21 27  1  0  0  0  0
 21 28  1  0  0  0  0
 30 35  1  0  0  0  0
  8 13  1  0  0  0  0
 18 26  1  0  0  0  0
 39 41  1  0  0  0  0
  7 12  1  0  0  0  0
 29 34  1  0  0  0  0
 17 25  1  0  0  0  0
M  CHG  1  23  -1
M  END
$$$$

  -OEChem-05262214473D

 44 43  0     1  0  0  0  0  0999 V2000
   -4.0256   -1.8030   -2.1581 C   0  0  0  0  0  0  0  0  0  0  0  0
   -3.7513   -2.6782   -2.9709 O   0  0  0  0  0  0  0  0  0  0  0  0
   -5.3491   -1.1169   -2.2339 C   0  0  0  0  0  0  0  0  0  0  0  0
   -5.3223   -0.2211   -2.8750 H   0  0  0  0  0  0  0  0  0  0  0  0
   -6.1322   -1.7605   -2.6658 H   0  0  0  0  0  0  0  0  0  0  0  0
   -5.7568   -0.7715   -1.2704 H   0  0  0  0  0  0  0  0  0  0  0  0
   -3.2124   -1.3578   -1.1289 N   0  0  0  0  0  0  0  0  0  0  0  0
   -1.8971   -1.8843   -0.8752 C   0  0  2  0  0  0  0  0  0  0  0  0
   -1.2676   -1.0599    0.2399 C   0  0  0  0  0  0  0  0  0  0  0  0
   -1.6270    0.0833    0.5138 O   0  0  0  0  0  0  0  0  0  0  0  0
   -1.0364   -1.8506   -2.1285 C   0  0  0  0  0  0  0  0  0  0  0  0
   -3.5631   -0.6202   -0.5206 H   0  0  0  0  0  0  0  0  0  0  0  0
   -2.0301   -2.9174   -0.5360 H   0  0  0  0  0  0  0  0  0  0  0  0
   -0.8921   -0.8236   -2.4833 H   0  0  0  0  0  0  0  0  0  0  0  0
   -0.0457   -2.2777   -1.9410 H   0  0  0  0  0  0  0  0  0  0  0  0
   -1.5052   -2.4193   -2.9387 H   0  0  0  0  0  0  0  0  0  0  0  0
   -0.2267   -1.7335    0.8672 N   0  0  0  0  0  0  0  0  0  0  0  0
    0.5363   -1.1590    1.9465 C   0  0  2  0  0  0  0  0  0  0  0  0
    0.8732    0.2730    1.5471 C   0  0  0  0  0  0  0  0  0  0  0  0
    0.3388    1.2550    2.0584 O   0  0  0  0  0  0  0  0  0  0  0  0
    1.8110   -1.9520    2.2256 C   0  0  0  0  0  0  0  0  0  0  0  0
    1.6258   -3.3502    2.8289 C   0  0  0  0  0  0  0  0  0  0  0  0
    0.5850   -3.4729    3.5377 O   0  5  0  0  0  0  0  0  0  0  0  0
    2.5174   -4.2024    2.5648 O   0  0  0  0  0  0  0  0  0  0  0  0
   -0.0113   -2.6869    0.5854 H   0  0  0  0  0  0  0  0  0  0  0  0
   -0.1206   -1.1434    2.8235 H   0  0  0  0  0  0  0  0  0  0  0  0
    2.4631   -1.3781    2.8982 H   0  0  0  0  0  0  0  0  0  0  0  0
    2.3723   -2.0897    1.2922 H   0  0  0  0  0  0  0  0  0  0  0  0
    1.8774    0.3253    0.5904 N   0  0  0  0  0  0  0  0  0  0  0  0
    2.3977    1.5682    0.0699 C   0  0  2  0  0  0  0  0  0  0  0  0
    2.8335    1.3293   -1.3697 C   0  0  0  0  0  0  0  0  0  0  0  0
    3.1132    0.2162   -1.8100 O   0  0  0  0  0  0  0  0  0  0  0  0
    3.5572    2.0782    0.9114 C   0  0  0  0  0  0  0  0  0  0  0  0
    2.2960   -0.5385    0.2583 H   0  0  0  0  0  0  0  0  0  0  0  0
    1.5726    2.2885    0.0876 H   0  0  0  0  0  0  0  0  0  0  0  0
    4.3935    1.3697    0.9057 H   0  0  0  0  0  0  0  0  0  0  0  0
    3.9319    3.0347    0.5323 H   0  0  0  0  0  0  0  0  0  0  0  0
    3.2496    2.2211    1.9529 H   0  0  0  0  0  0  0  0  0  0  0  0
    2.9151    2.5109   -2.0931 N   0  0  0  0  0  0  0  0  0  0  0  0
    3.3190    2.5501   -3.4793 C   0  0  0  0  0  0  0  0  0  0  0  0
    2.6462    3.3859   -1.6529 H   0  0  0  0  0  0  0  0  0  0  0  0
    4.4047    2.7158   -3.5408 H   0  0  0  0  0  0  0  0  0  0  0  0
    3.0662    1.5945   -3.9619 H   0  0  0  0  0  0  0  0  0  0  0  0
    2.7935    3.3697   -3.9911 H   0  0  0  0  0  0  0  0  0  0  0  0
  1  3  1  0  0  0  0
  1  7  1  0  0  0  0
  1  2  2  0  0  0  0
 30 31  1  0  0  0  0
 31 39  1  0  0  0  0
 31 32  2  0  0  0  0
  8  9  1  0  0  0  0
  9 17  1  0  0  0  0
  9 10  2  0  0  0  0
 18 19  1  0  0  0  0
 19 29  1  0  0  0  0
 19 20  2  0  0  0  0
 21 22  1  0  0  0  0
 22 23  1  0  0  0  0
 22 24  2  0  0  0  0
 30 33  1  0  0  0  0
  8 11  1  0  0  0  0
 39 40  1  0  0  0  0
 18 21  1  0  0  0  0
 29 30  1  0  0  0  0
  7  8  1  0  0  0  0
 17 18  1  0  0  0  0
  3  4  1  0  0  0  0
  3  5  1  0  0  0  0
  3  6  1  0  0  0  0
 33 36  1  0  0  0  0
 33 37  1  0  0  0  0
 33 38  1  0  0  0  0
 11 14  1  0  0  0  0
 11 15  1  0  0  0  0
 11 16  1  0  0  0  0
 40 42  1  0  0  0  0
 40 43  1  0  0  0  0
 40 44  1  0  0  0  0
 21 27  1  0  0  0  0
 21 28  1  0  0  0  0
 30 35  1  0  0  0  0
  8 13  1  0  0  0  0
 18 26  1  0  0  0  0
 39 41  1  0  0  0  0
  7 12  1  0  0  0  0
 29 34  1  0  0  0  0
 17 25  1  0  0  0  0
M  CHG  1  23  -1
M  END
$$$$

  -OEChem-05262214473D

 44 43  0     1  0  0  0  0  0999 V2000
   -4.0256   -1.8030   -2.1581 C   0  0  0  0  0  0  0  0  0  0  0  0
   -3.7513   -2.6782   -2.9709 O   0  0  0  0  0  0  0  0  0  0  0  0
   -5.3491   -1.1169   -2.2339 C   0  0  0  0  0  0  0  0  0  0  0  0
   -5.3223   -0.2211   -2.8750 H   0  0  0  0  0  0  0  0  0  0  0  0
   -6.1322   -1.7605   -2.6658 H   0  0  0  0  0  0  0  0  0  0  0  0
   -5.7568   -0.7715   -1.2704 H   0  0  0  0  0  0  0  0  0  0  0  0
   -3.2124   -1.3578   -1.1289 N   0  0  0  0  0  0  0  0  0  0  0  0
   -1.8971   -1.8843   -0.8752 C   0  0  2  0  0  0  0  0  0  0  0  0
   -1.2676   -1.0599    0.2399 C   0  0  0  0  0  0  0  0  0  0  0  0
   -1.6270    0.0833    0.5138 O   0  0  0  0  0  0  0  0  0  0  0  0
   -1.0364   -1.8506   -2.1285 C   0  0  0  0  0  0  0  0  0  0  0  0
   -3.5631   -0.6202   -0.5206 H   0  0  0  0  0  0  0  0  0  0  0  0
   -2.0301   -2.9174   -0.5360 H   0  0  0  0  0  0  0  0  0  0  0  0
   -0.8921   -0.8236   -2.4833 H   0  0  0  0  0  0  0  0  0  0  0  0
   -0.0457   -2.2777   -1.9410 H   0  0  0  0  0  0  0  0  0  0  0  0
   -1.5052   -2.4193   -2.9387 H   0  0  0  0  0  0  0  0  0  0  0  0
   -0.2267   -1.7335    0.8672 N   0  0  0  0  0  0  0  0  0  0  0  0
    0.5363   -1.1590    1.9465 C   0  0  2  0  0  0  0  0  0  0  0  0
    0.8732    0.2730    1.5471 C   0  0  0  0  0  0  0  0  0  0  0  0
    0.5530    1.2500    2.2211 O   0  0  0  0  0  0  0  0  0  0  0  0
    1.8110   -1.9520    2.2256 C   0  0  0  0  0  0  0  0  0  0  0  0
    1.6258   -3.3502    2.8289 C   0  0  0  0  0  0  0  0  0  0  0  0
    0.5850   -3.4729    3.5377 O   0  5  0  0  0  0  0  0  0  0  0  0
    2.5174   -4.2024    2.5648 O   0  0  0  0  0  0  0  0  0  0  0  0
   -0.0113   -2.6869    0.5854 H   0  0  0  0  0  0  0  0  0  0  0  0
   -0.1206   -1.1434    2.8235 H   0  0  0  0  0  0  0  0  0  0  0  0
    2.4631   -1.3781    2.8982 H   0  0  0  0  0  0  0  0  0  0  0  0
    2.3723   -2.0897    1.2922 H   0  0  0  0  0  0  0  0  0  0  0  0
    1.6180    0.3268    0.3772 N   0  0  0  0  0  0  0  0  0  0  0  0
    2.0890    1.5673   -0.1937 C   0  0  2  0  0  0  0  0  0  0  0  0
    2.1457    1.3973   -1.7061 C   0  0  0  0  0  0  0  0  0  0  0  0
    2.2267    0.3006   -2.2553 O   0  0  0  0  0  0  0  0  0  0  0  0
    3.4521    1.9497    0.3618 C   0  0  0  0  0  0  0  0  0  0  0  0
    1.8783   -0.5372   -0.0892 H   0  0  0  0  0  0  0  0  0  0  0  0
    1.3488    2.3337    0.0608 H   0  0  0  0  0  0  0  0  0  0  0  0
    4.2068    1.1935    0.1168 H   0  0  0  0  0  0  0  0  0  0  0  0
    3.7948    2.9045   -0.0504 H   0  0  0  0  0  0  0  0  0  0  0  0
    3.4164    2.0423    1.4526 H   0  0  0  0  0  0  0  0  0  0  0  0
    2.1386    2.6167   -2.3689 N   0  0  0  0  0  0  0  0  0  0  0  0
    2.1981    2.7221   -3.8081 C   0  0  0  0  0  0  0  0  0  0  0  0
    2.0501    3.4756   -1.8340 H   0  0  0  0  0  0  0  0  0  0  0  0
    3.2462    2.8253   -4.1257 H   0  0  0  0  0  0  0  0  0  0  0  0
    1.7655    1.8173   -4.2601 H   0  0  0  0  0  0  0  0  0  0  0  0
    1.6275    3.6039   -4.1349 H   0  0  0  0  0  0  0  0  0  0  0  0
  1  3  1  0  0  0  0
  1  7  1  0  0  0  0
  1  2  2  0  0  0  0
 30 31  1  0  0  0  0
 31 39  1  0  0  0  0
 31 32  2  0  0  0  0
  8  9  1  0  0  0  0
  9 17  1  0  0  0  0
  9 10  2  0  0  0  0
 18 19  1  0  0  0  0
 19 29  1  0  0  0  0
 19 20  2  0  0  0  0
 21 22  1  0  0  0  0
 22 23  1  0  0  0  0
 22 24  2  0  0  0  0
 30 33  1  0  0  0  0
  8 11  1  0  0  0  0
 39 40  1  0  0  0  0
 18 21  1  0  0  0  0
 29 30  1  0  0  0  0
  7  8  1  0  0  0  0
 17 18  1  0  0  0  0
  3  4  1  0  0  0  0
  3  5  1  0  0  0  0
  3  6  1  0  0  0  0
 33 36  1  0  0  0  0
 33 37  1  0  0  0  0
 33 38  1  0  0  0  0
 11 14  1  0  0  0  0
 11 15  1  0  0  0  0
 11 16  1  0  0  0  0
 40 42  1  0  0  0  0
 40 43  1  0  0  0  0
 40 44  1  0  0  0  0
 21 27  1  0  0  0  0
 21 28  1  0  0  0  0
 30 35  1  0  0  0  0
  8 13  1  0  0  0  0
 18 26  1  0  0  0  0
 39 41  1  0  0  0  0
  7 12  1  0  0  0  0
 29 34  1  0  0  0  0
 17 25  1  0  0  0  0
M  CHG  1  23  -1
M  END
$$$$

  -OEChem-05262214473D

 44 43  0     1  0  0  0  0  0999 V2000
   -4.0256   -1.8030   -2.1581 C   0  0  0  0  0  0  0  0  0  0  0  0
   -3.7513   -2.6782   -2.9709 O   0  0  0  0  0  0  0  0  0  0  0  0
   -5.3491   -1.1169   -2.2339 C   0  0  0  0  0  0  0  0  0  0  0  0
   -5.3223   -0.2211   -2.8750 H   0  0  0  0  0  0  0  0  0  0  0  0
   -6.1322   -1.7605   -2.6658 H   0  0  0  0  0  0  0  0  0  0  0  0
   -5.7568   -0.7715   -1.2704 H   0  0  0  0  0  0  0  0  0  0  0  0
   -3.2124   -1.3578   -1.1289 N   0  0  0  0  0  0  0  0  0  0  0  0
   -1.8971   -1.8843   -0.8752 C   0  0  2  0  0  0  0  0  0  0  0  0
   -1.2676   -1.0599    0.2399 C   0  0  0  0  0  0  0  0  0  0  0  0
   -1.6270    0.0833    0.5138 O   0  0  0  0  0  0  0  0  0  0  0  0
   -1.0364   -1.8506   -2.1285 C   0  0  0  0  0  0  0  0  0  0  0  0
   -3.5631   -0.6202   -0.5206 H   0  0  0  0  0  0  0  0  0  0  0  0
   -2.0301   -2.9174   -0.5360 H   0  0  0  0  0  0  0  0  0  0  0  0
   -0.8921   -0.8236   -2.4833 H   0  0  0  0  0  0  0  0  0  0  0  0
   -0.0457   -2.2777   -1.9410 H   0  0  0  0  0  0  0  0  0  0  0  0
   -1.5052   -2.4193   -2.9387 H   0  0  0  0  0  0  0  0  0  0  0  0
   -0.2267   -1.7335    0.8672 N   0  0  0  0  0  0  0  0  0  0  0  0
    0.5363   -1.1590    1.9465 C   0  0  2  0  0  0  0  0  0  0  0  0
    0.8732    0.2730    1.5471 C   0  0  0  0  0  0  0  0  0  0  0  0
    0.7991    1.2213    2.3259 O   0  0  0  0  0  0  0  0  0  0  0  0
    1.8110   -1.9520    2.2256 C   0  0  0  0  0  0  0  0  0  0  0  0
    1.6258   -3.3502    2.8289 C   0  0  0  0  0  0  0  0  0  0  0  0
    0.5850   -3.4729    3.5377 O   0  5  0  0  0  0  0  0  0  0  0  0
    2.5174   -4.2024    2.5648 O   0  0  0  0  0  0  0  0  0  0  0  0
   -0.0113   -2.6869    0.5854 H   0  0  0  0  0  0  0  0  0  0  0  0
   -0.1206   -1.1434    2.8235 H   0  0  0  0  0  0  0  0  0  0  0  0
    2.4631   -1.3781    2.8982 H   0  0  0  0  0  0  0  0  0  0  0  0
    2.3723   -2.0897    1.2922 H   0  0  0  0  0  0  0  0  0  0  0  0
    1.3158    0.3581    0.2344 N   0  0  0  0  0  0  0  0  0  0  0  0
    1.7267    1.6024   -0.3732 C   0  0  2  0  0  0  0  0  0  0  0  0
    1.4041    1.5289   -1.8599 C   0  0  0  0  0  0  0  0  0  0  0  0
    1.2679    0.4677   -2.4650 O   0  0  0  0  0  0  0  0  0  0  0  0
    3.2082    1.8641   -0.1509 C   0  0  0  0  0  0  0  0  0  0  0  0
    1.3905   -0.4877   -0.3232 H   0  0  0  0  0  0  0  0  0  0  0  0
    1.1293    2.3940    0.0920 H   0  0  0  0  0  0  0  0  0  0  0  0
    3.8228    1.0812   -0.6100 H   0  0  0  0  0  0  0  0  0  0  0  0
    3.5119    2.8213   -0.5874 H   0  0  0  0  0  0  0  0  0  0  0  0
    3.4437    1.8870    0.9186 H   0  0  0  0  0  0  0  0  0  0  0  0
    1.3287    2.7873   -2.4404 N   0  0  0  0  0  0  0  0  0  0  0  0
    1.0471    2.9831   -3.8433 C   0  0  0  0  0  0  0  0  0  0  0  0
    1.4364    3.6131   -1.8588 H   0  0  0  0  0  0  0  0  0  0  0  0
    1.9923    3.0430   -4.4027 H   0  0  0  0  0  0  0  0  0  0  0  0
    0.4517    2.1378   -4.2191 H   0  0  0  0  0  0  0  0  0  0  0  0
    0.4822    3.9175   -3.9769 H   0  0  0  0  0  0  0  0  0  0  0  0
  1  3  1  0  0  0  0
  1  7  1  0  0  0  0
  1  2  2  0  0  0  0
 30 31  1  0  0  0  0
 31 39  1  0  0  0  0
 31 32  2  0  0  0  0
  8  9  1  0  0  0  0
  9 17  1  0  0  0  0
  9 10  2  0  0  0  0
 18 19  1  0  0  0  0
 19 29  1  0  0  0  0
 19 20  2  0  0  0  0
 21 22  1  0  0  0  0
 22 23  1  0  0  0  0
 22 24  2  0  0  0  0
 30 33  1  0  0  0  0
  8 11  1  0  0  0  0
 39 40  1  0  0  0  0
 18 21  1  0  0  0  0
 29 30  1  0  0  0  0
  7  8  1  0  0  0  0
 17 18  1  0  0  0  0
  3  4  1  0  0  0  0
  3  5  1  0  0  0  0
  3  6  1  0  0  0  0
 33 36  1  0  0  0  0
 33 37  1  0  0  0  0
 33 38  1  0  0  0  0
 11 14  1  0  0  0  0
 11 15  1  0  0  0  0
 11 16  1  0  0  0  0
 40 42  1  0  0  0  0
 40 43  1  0  0  0  0
 40 44  1  0  0  0  0
 21 27  1  0  0  0  0
 21 28  1  0  0  0  0
 30 35  1  0  0  0  0
  8 13  1  0  0  0  0
 18 26  1  0  0  0  0
 39 41  1  0  0  0  0
  7 12  1  0  0  0  0
 29 34  1  0  0  0  0
 17 25  1  0  0  0  0
M  CHG  1  23  -1
M  END
$$$$

  -OEChem-05262214473D

 44 43  0     1  0  0  0  0  0999 V2000
   -4.0256   -1.8030   -2.1581 C   0  0  0  0  0  0  0  0  0  0  0  0
   -3.7513   -2.6782   -2.9709 O   0  0  0  0  0  0  0  0  0  0  0  0
   -5.3491   -1.1169   -2.2339 C   0  0  0  0  0  0  0  0  0  0  0  0
   -5.3223   -0.2211   -2.8750 H   0  0  0  0  0  0  0  0  0  0  0  0
   -6.1322   -1.7605   -2.6658 H   0  0  0  0  0  0  0  0  0  0  0  0
   -5.7568   -0.7715   -1.2704 H   0  0  0  0  0  0  0  0  0  0  0  0
   -3.2124   -1.3578   -1.1289 N   0  0  0  0  0  0  0  0  0  0  0  0
   -1.8971   -1.8843   -0.8752 C   0  0  2  0  0  0  0  0  0  0  0  0
   -1.2676   -1.0599    0.2399 C   0  0  0  0  0  0  0  0  0  0  0  0
   -1.6270    0.0833    0.5138 O   0  0  0  0  0  0  0  0  0  0  0  0
   -1.0364   -1.8506   -2.1285 C   0  0  0  0  0  0  0  0  0  0  0  0
   -3.5631   -0.6202   -0.5206 H   0  0  0  0  0  0  0  0  0  0  0  0
   -2.0301   -2.9174   -0.5360 H   0  0  0  0  0  0  0  0  0  0  0  0
   -0.8921   -0.8236   -2.4833 H   0  0  0  0  0  0  0  0  0  0  0  0
   -0.0457   -2.2777   -1.9410 H   0  0  0  0  0  0  0  0  0  0  0  0
   -1.5052   -2.4193   -2.9387 H   0  0  0  0  0  0  0  0  0  0  0  0
   -0.2267   -1.7335    0.8672 N   0  0  0  0  0  0  0  0  0  0  0  0
    0.5363   -1.1590    1.9465 C   0  0  2  0  0  0  0  0  0  0  0  0
    0.8732    0.2730    1.5471 C   0  0  0  0  0  0  0  0  0  0  0  0
    1.0603    1.1709    2.3656 O   0  0  0  0  0  0  0  0  0  0  0  0
    1.8110   -1.9520    2.2256 C   0  0  0  0  0  0  0  0  0  0  0  0
    1.6258   -3.3502    2.8289 C   0  0  0  0  0  0  0  0  0  0  0  0
    0.5850   -3.4729    3.5377 O   0  5  0  0  0  0  0  0  0  0  0  0
    2.5174   -4.2024    2.5648 O   0  0  0  0  0  0  0  0  0  0  0  0
   -0.0113   -2.6869    0.5854 H   0  0  0  0  0  0  0  0  0  0  0  0
   -0.1206   -1.1434    2.8235 H   0  0  0  0  0  0  0  0  0  0  0  0
    2.4631   -1.3781    2.8982 H   0  0  0  0  0  0  0  0  0  0  0  0
    2.3723   -2.0897    1.2922 H   0  0  0  0  0  0  0  0  0  0  0  0
    0.9912    0.4170    0.1717 N   0  0  0  0  0  0  0  0  0  0  0  0
    1.3355    1.6712   -0.4566 C   0  0  2  0  0  0  0  0  0  0  0  0
    0.6593    1.7151   -1.8205 C   0  0  0  0  0  0  0  0  0  0  0  0
    0.3021    0.7060   -2.4250 O   0  0  0  0  0  0  0  0  0  0  0  0
    2.8422    1.8273   -0.5916 C   0  0  0  0  0  0  0  0  0  0  0  0
    0.8657   -0.3934   -0.4277 H   0  0  0  0  0  0  0  0  0  0  0  0
    0.9289    2.4654    0.1789 H   0  0  0  0  0  0  0  0  0  0  0  0
    3.2675    1.0403   -1.2251 H   0  0  0  0  0  0  0  0  0  0  0  0
    3.1025    2.7908   -1.0421 H   0  0  0  0  0  0  0  0  0  0  0  0
    3.3297    1.7656    0.3873 H   0  0  0  0  0  0  0  0  0  0  0  0
    0.5406    3.0111   -2.3027 N   0  0  0  0  0  0  0  0  0  0  0  0
   -0.0556    3.3152   -3.5826 C   0  0  0  0  0  0  0  0  0  0  0  0
    0.8469    3.7889   -1.7257 H   0  0  0  0  0  0  0  0  0  0  0  0
    0.7286    3.3542   -4.3530 H   0  0  0  0  0  0  0  0  0  0  0  0
   -0.7856    2.5342   -3.8418 H   0  0  0  0  0  0  0  0  0  0  0  0
   -0.5644    4.2889   -3.5278 H   0  0  0  0  0  0  0  0  0  0  0  0
  1  3  1  0  0  0  0
  1  7  1  0  0  0  0
  1  2  2  0  0  0  0
 30 31  1  0  0  0  0
 31 39  1  0  0  0  0
 31 32  2  0  0  0  0
  8  9  1  0  0  0  0
  9 17  1  0  0  0  0
  9 10  2  0  0  0  0
 18 19  1  0  0  0  0
 19 29  1  0  0  0  0
 19 20  2  0  0  0  0
 21 22  1  0  0  0  0
 22 23  1  0  0  0  0
 22 24  2  0  0  0  0
 30 33  1  0  0  0  0
  8 11  1  0  0  0  0
 39 40  1  0  0  0  0
 18 21  1  0  0  0  0
 29 30  1  0  0  0  0
  7  8  1  0  0  0  0
 17 18  1  0  0  0  0
  3  4  1  0  0  0  0
  3  5  1  0  0  0  0
  3  6  1  0  0  0  0
 33 36  1  0  0  0  0
 33 37  1  0  0  0  0
 33 38  1  0  0  0  0
 11 14  1  0  0  0  0
 11 15  1  0  0  0  0
 11 16  1  0  0  0  0
 40 42  1  0  0  0  0
 40 43  1  0  0  0  0
 40 44  1  0  0  0  0
 21 27  1  0  0  0  0
 21 28  1  0  0  0  0
 30 35  1  0  0  0  0
  8 13  1  0  0  0  0
 18 26  1  0  0  0  0
 39 41  1  0  0  0  0
  7 12  1  0  0  0  0
 29 34  1  0  0  0  0
 17 25  1  0  0  0  0
M  CHG  1  23  -1
M  END
$$$$

  -OEChem-05262214473D

 44 43  0     1  0  0  0  0  0999 V2000
   -4.0256   -1.8030   -2.1581 C   0  0  0  0  0  0  0  0  0  0  0  0
   -3.7513   -2.6782   -2.9709 O   0  0  0  0  0  0  0  0  0  0  0  0
   -5.3491   -1.1169   -2.2339 C   0  0  0  0  0  0  0  0  0  0  0  0
   -5.3223   -0.2211   -2.8750 H   0  0  0  0  0  0  0  0  0  0  0  0
   -6.1322   -1.7605   -2.6658 H   0  0  0  0  0  0  0  0  0  0  0  0
   -5.7568   -0.7715   -1.2704 H   0  0  0  0  0  0  0  0  0  0  0  0
   -3.2124   -1.3578   -1.1289 N   0  0  0  0  0  0  0  0  0  0  0  0
   -1.8971   -1.8843   -0.8752 C   0  0  2  0  0  0  0  0  0  0  0  0
   -1.2676   -1.0599    0.2399 C   0  0  0  0  0  0  0  0  0  0  0  0
   -1.6270    0.0833    0.5138 O   0  0  0  0  0  0  0  0  0  0  0  0
   -1.0364   -1.8506   -2.1285 C   0  0  0  0  0  0  0  0  0  0  0  0
   -3.5631   -0.6202   -0.5206 H   0  0  0  0  0  0  0  0  0  0  0  0
   -2.0301   -2.9174   -0.5360 H   0  0  0  0  0  0  0  0  0  0  0  0
   -0.8921   -0.8236   -2.4833 H   0  0  0  0  0  0  0  0  0  0  0  0
   -0.0457   -2.2777   -1.9410 H   0  0  0  0  0  0  0  0  0  0  0  0
   -1.5052   -2.4193   -2.9387 H   0  0  0  0  0  0  0  0  0  0  0  0
   -0.2267   -1.7335    0.8672 N   0  0  0  0  0  0  0  0  0  0  0  0
    0.5363   -1.1590    1.9465 C   0  0  2  0  0  0  0  0  0  0  0  0
    0.8732    0.2730    1.5471 C   0  0  0  0  0  0  0  0  0  0  0  0
    1.3189    1.1023    2.3376 O   0  0  0  0  0  0  0  0  0  0  0  0
    1.8110   -1.9520    2.2256 C   0  0  0  0  0  0  0  0  0  0  0  0
    1.6258   -3.3502    2.8289 C   0  0  0  0  0  0  0  0  0  0  0  0
    0.5850   -3.4729    3.5377 O   0  5  0  0  0  0  0  0  0  0  0  0
    2.5174   -4.2024    2.5648 O   0  0  0  0  0  0  0  0  0  0  0  0
   -0.0113   -2.6869    0.5854 H   0  0  0  0  0  0  0  0  0  0  0  0
   -0.1206   -1.1434    2.8235 H   0  0  0  0  0  0  0  0  0  0  0  0
    2.4631   -1.3781    2.8982 H   0  0  0  0  0  0  0  0  0  0  0  0
    2.3723   -2.0897    1.2922 H   0  0  0  0  0  0  0  0  0  0  0  0
    0.6665    0.4994    0.1935 N   0  0  0  0  0  0  0  0  0  0  0  0
    0.9420    1.7689   -0.4381 C   0  0  2  0  0  0  0  0  0  0  0  0
   -0.0380    1.9432   -1.5908 C   0  0  0  0  0  0  0  0  0  0  0  0
   -0.6049    0.9995   -2.1378 O   0  0  0  0  0  0  0  0  0  0  0  0
    2.3790    1.8417   -0.9305 C   0  0  0  0  0  0  0  0  0  0  0  0
    0.3398   -0.2607   -0.3958 H   0  0  0  0  0  0  0  0  0  0  0  0
    0.7614    2.5430    0.3157 H   0  0  0  0  0  0  0  0  0  0  0  0
    2.5788    1.0736   -1.6865 H   0  0  0  0  0  0  0  0  0  0  0  0
    2.5944    2.8151   -1.3834 H   0  0  0  0  0  0  0  0  0  0  0  0
    3.0821    1.6865   -0.1051 H   0  0  0  0  0  0  0  0  0  0  0  0
   -0.1720    3.2728   -1.9654 N   0  0  0  0  0  0  0  0  0  0  0  0
   -1.0348    3.6959   -3.0436 C   0  0  0  0  0  0  0  0  0  0  0  0
    0.3217    3.9911   -1.4438 H   0  0  0  0  0  0  0  0  0  0  0  0
   -0.4589    3.7376   -3.9799 H   0  0  0  0  0  0  0  0  0  0  0  0
   -1.8621    2.9793   -3.1538 H   0  0  0  0  0  0  0  0  0  0  0  0
   -1.4409    4.6930   -2.8184 H   0  0  0  0  0  0  0  0  0  0  0  0
  1  3  1  0  0  0  0
  1  7  1  0  0  0  0
  1  2  2  0  0  0  0
 30 31  1  0  0  0  0
 31 39  1  0  0  0  0
 31 32  2  0  0  0  0
  8  9  1  0  0  0  0
  9 17  1  0  0  0  0
  9 10  2  0  0  0  0
 18 19  1  0  0  0  0
 19 29  1  0  0  0  0
 19 20  2  0  0  0  0
 21 22  1  0  0  0  0
 22 23  1  0  0  0  0
 22 24  2  0  0  0  0
 30 33  1  0  0  0  0
  8 11  1  0  0  0  0
 39 40  1  0  0  0  0
 18 21  1  0  0  0  0
 29 30  1  0  0  0  0
  7  8  1  0  0  0  0
 17 18  1  0  0  0  0
  3  4  1  0  0  0  0
  3  5  1  0  0  0  0
  3  6  1  0  0  0  0
 33 36  1  0  0  0  0
 33 37  1  0  0  0  0
 33 38  1  0  0  0  0
 11 14  1  0  0  0  0
 11 15  1  0  0  0  0
 11 16  1  0  0  0  0
 40 42  1  0  0  0  0
 40 43  1  0  0  0  0
 40 44  1  0  0  0  0
 21 27  1  0  0  0  0
 21 28  1  0  0  0  0
 30 35  1  0  0  0  0
  8 13  1  0  0  0  0
 18 26  1  0  0  0  0
 39 41  1  0  0  0  0
  7 12  1  0  0  0  0
 29 34  1  0  0  0  0
 17 25  1  0  0  0  0
M  CHG  1  23  -1
M  END
$$$$

  -OEChem-05262214473D

 44 43  0     1  0  0  0  0  0999 V2000
   -4.0256   -1.8030   -2.1581 C   0  0  0  0  0  0  0  0  0  0  0  0
   -3.7513   -2.6782   -2.9709 O   0  0  0  0  0  0  0  0  0  0  0  0
   -5.3491   -1.1169   -2.2339 C   0  0  0  0  0  0  0  0  0  0  0  0
   -5.3223   -0.2211   -2.8750 H   0  0  0  0  0  0  0  0  0  0  0  0
   -6.1322   -1.7605   -2.6658 H   0  0  0  0  0  0  0  0  0  0  0  0
   -5.7568   -0.7715   -1.2704 H   0  0  0  0  0  0  0  0  0  0  0  0
   -3.2124   -1.3578   -1.1289 N   0  0  0  0  0  0  0  0  0  0  0  0
   -1.8971   -1.8843   -0.8752 C   0  0  2  0  0  0  0  0  0  0  0  0
   -1.2676   -1.0599    0.2399 C   0  0  0  0  0  0  0  0  0  0  0  0
   -1.6270    0.0833    0.5138 O   0  0  0  0  0  0  0  0  0  0  0  0
   -1.0364   -1.8506   -2.1285 C   0  0  0  0  0  0  0  0  0  0  0  0
   -3.5631   -0.6202   -0.5206 H   0  0  0  0  0  0  0  0  0  0  0  0
   -2.0301   -2.9174   -0.5360 H   0  0  0  0  0  0  0  0  0  0  0  0
   -0.8921   -0.8236   -2.4833 H   0  0  0  0  0  0  0  0  0  0  0  0
   -0.0457   -2.2777   -1.9410 H   0  0  0  0  0  0  0  0  0  0  0  0
   -1.5052   -2.4193   -2.9387 H   0  0  0  0  0  0  0  0  0  0  0  0
   -0.2267   -1.7335    0.8672 N   0  0  0  0  0  0  0  0  0  0  0  0
    0.5363   -1.1590    1.9465 C   0  0  2  0  0  0  0  0  0  0  0  0
    0.8732    0.2730    1.5471 C   0  0  0  0  0  0  0  0  0  0  0  0
    1.5572    1.0200    2.2438 O   0  0  0  0  0  0  0  0  0  0  0  0
    1.8110   -1.9520    2.2256 C   0  0  0  0  0  0  0  0  0  0  0  0
    1.6258   -3.3502    2.8289 C   0  0  0  0  0  0  0  0  0  0  0  0
    0.5850   -3.4729    3.5377 O   0  5  0  0  0  0  0  0  0  0  0  0
    2.5174   -4.2024    2.5648 O   0  0  0  0  0  0  0  0  0  0  0  0
   -0.0113   -2.6869    0.5854 H   0  0  0  0  0  0  0  0  0  0  0  0
   -0.1206   -1.1434    2.8235 H   0  0  0  0  0  0  0  0  0  0  0  0
    2.4631   -1.3781    2.8982 H   0  0  0  0  0  0  0  0  0  0  0  0
    2.3723   -2.0897    1.2922 H   0  0  0  0  0  0  0  0  0  0  0  0
    0.3637    0.5999    0.2981 N   0  0  0  0  0  0  0  0  0  0  0  0
    0.5730    1.8890   -0.3189 C   0  0  2  0  0  0  0  0  0  0  0  0
   -0.6401    2.1977   -1.1864 C   0  0  0  0  0  0  0  0  0  0  0  0
   -1.3912    1.3281   -1.6231 O   0  0  0  0  0  0  0  0  0  0  0  0
    1.8501    1.9065   -1.1444 C   0  0  0  0  0  0  0  0  0  0  0  0
   -0.1514   -0.0988   -0.2294 H   0  0  0  0  0  0  0  0  0  0  0  0
    0.6380    2.6215    0.4930 H   0  0  0  0  0  0  0  0  0  0  0  0
    1.8036    1.1789   -1.9629 H   0  0  0  0  0  0  0  0  0  0  0  0
    2.0222    2.8926   -1.5882 H   0  0  0  0  0  0  0  0  0  0  0  0
    2.7179    1.6551   -0.5251 H   0  0  0  0  0  0  0  0  0  0  0  0
   -0.7606    3.5547   -1.4513 N   0  0  0  0  0  0  0  0  0  0  0  0
   -1.8238    4.0992   -2.2632 C   0  0  0  0  0  0  0  0  0  0  0  0
   -0.1033    4.2059   -1.0322 H   0  0  0  0  0  0  0  0  0  0  0  0
   -1.4892    4.1672   -3.3089 H   0  0  0  0  0  0  0  0  0  0  0  0
   -2.7045    3.4430   -2.2021 H   0  0  0  0  0  0  0  0  0  0  0  0
   -2.0877    5.1022   -1.8969 H   0  0  0  0  0  0  0  0  0  0  0  0
  1  3  1  0  0  0  0
  1  7  1  0  0  0  0
  1  2  2  0  0  0  0
 30 31  1  0  0  0  0
 31 39  1  0  0  0  0
 31 32  2  0  0  0  0
  8  9  1  0  0  0  0
  9 17  1  0  0  0  0
  9 10  2  0  0  0  0
 18 19  1  0  0  0  0
 19 29  1  0  0  0  0
 19 20  2  0  0  0  0
 21 22  1  0  0  0  0
 22 23  1  0  0  0  0
 22 24  2  0  0  0  0
 30 33  1  0  0  0  0
  8 11  1  0  0  0  0
 39 40  1  0  0  0  0
 18 21  1  0  0  0  0
 29 30  1  0  0  0  0
  7  8  1  0  0  0  0
 17 18  1  0  0  0  0
  3  4  1  0  0  0  0
  3  5  1  0  0  0  0
  3  6  1  0  0  0  0
 33 36  1  0  0  0  0
 33 37  1  0  0  0  0
 33 38  1  0  0  0  0
 11 14  1  0  0  0  0
 11 15  1  0  0  0  0
 11 16  1  0  0  0  0
 40 42  1  0  0  0  0
 40 43  1  0  0  0  0
 40 44  1  0  0  0  0
 21 27  1  0  0  0  0
 21 28  1  0  0  0  0
 30 35  1  0  0  0  0
  8 13  1  0  0  0  0
 18 26  1  0  0  0  0
 39 41  1  0  0  0  0
  7 12  1  0  0  0  0
 29 34  1  0  0  0  0
 17 25  1  0  0  0  0
M  CHG  1  23  -1
M  END
$$$$

  -OEChem-05262214473D

 44 43  0     1  0  0  0  0  0999 V2000
   -4.0256   -1.8030   -2.1581 C   0  0  0  0  0  0  0  0  0  0  0  0
   -3.7513   -2.6782   -2.9709 O   0  0  0  0  0  0  0  0  0  0  0  0
   -5.3491   -1.1169   -2.2339 C   0  0  0  0  0  0  0  0  0  0  0  0
   -5.3223   -0.2211   -2.8750 H   0  0  0  0  0  0  0  0  0  0  0  0
   -6.1322   -1.7605   -2.6658 H   0  0  0  0  0  0  0  0  0  0  0  0
   -5.7568   -0.7715   -1.2704 H   0  0  0  0  0  0  0  0  0  0  0  0
   -3.2124   -1.3578   -1.1289 N   0  0  0  0  0  0  0  0  0  0  0  0
   -1.8971   -1.8843   -0.8752 C   0  0  2  0  0  0  0  0  0  0  0  0
   -1.2676   -1.0599    0.2399 C   0  0  0  0  0  0  0  0  0  0  0  0
   -1.6270    0.0833    0.5138 O   0  0  0  0  0  0  0  0  0  0  0  0
   -1.0364   -1.8506   -2.1285 C   0  0  0  0  0  0  0  0  0  0  0  0
   -3.5631   -0.6202   -0.5206 H   0  0  0  0  0  0  0  0  0  0  0  0
   -2.0301   -2.9174   -0.5360 H   0  0  0  0  0  0  0  0  0  0  0  0
   -0.8921   -0.8236   -2.4833 H   0  0  0  0  0  0  0  0  0  0  0  0
   -0.0457   -2.2777   -1.9410 H   0  0  0  0  0  0  0  0  0  0  0  0
   -1.5052   -2.4193   -2.9387 H   0  0  0  0  0  0  0  0  0  0  0  0
   -0.2267   -1.7335    0.8672 N   0  0  0  0  0  0  0  0  0  0  0  0
    0.5363   -1.1590    1.9465 C   0  0  2  0  0  0  0  0  0  0  0  0
    0.8732    0.2730    1.5471 C   0  0  0  0  0  0  0  0  0  0  0  0
    1.7590    0.9298    2.0905 O   0  0  0  0  0  0  0  0  0  0  0  0
    1.8110   -1.9520    2.2256 C   0  0  0  0  0  0  0  0  0  0  0  0
    1.6258   -3.3502    2.8289 C   0  0  0  0  0  0  0  0  0  0  0  0
    0.5850   -3.4729    3.5377 O   0  5  0  0  0  0  0  0  0  0  0  0
    2.5174   -4.2024    2.5648 O   0  0  0  0  0  0  0  0  0  0  0  0
   -0.0113   -2.6869    0.5854 H   0  0  0  0  0  0  0  0  0  0  0  0
   -0.1206   -1.1434    2.8235 H   0  0  0  0  0  0  0  0  0  0  0  0
    2.4631   -1.3781    2.8982 H   0  0  0  0  0  0  0  0  0  0  0  0
    2.3723   -2.0897    1.2922 H   0  0  0  0  0  0  0  0  0  0  0  0
    0.1035    0.7114    0.4786 N   0  0  0  0  0  0  0  0  0  0  0  0
    0.2537    2.0231   -0.1073 C   0  0  2  0  0  0  0  0  0  0  0  0
   -1.1062    2.4612   -0.6348 C   0  0  0  0  0  0  0  0  0  0  0  0
   -2.0034    1.6693   -0.9159 O   0  0  0  0  0  0  0  0  0  0  0  0
    1.2917    2.0171   -1.2187 C   0  0  0  0  0  0  0  0  0  0  0  0
   -0.5745    0.0815    0.0600 H   0  0  0  0  0  0  0  0  0  0  0  0
    0.5673    2.6955    0.6988 H   0  0  0  0  0  0  0  0  0  0  0  0
    0.9948    1.3490   -2.0353 H   0  0  0  0  0  0  0  0  0  0  0  0
    1.4250    3.0180   -1.6425 H   0  0  0  0  0  0  0  0  0  0  0  0
    2.2619    1.6734   -0.8441 H   0  0  0  0  0  0  0  0  0  0  0  0
   -1.1850    3.8374   -0.7955 N   0  0  0  0  0  0  0  0  0  0  0  0
   -2.3687    4.4976   -1.2944 C   0  0  0  0  0  0  0  0  0  0  0  0
   -0.3991    4.4186   -0.5190 H   0  0  0  0  0  0  0  0  0  0  0  0
   -2.2921    4.6136   -2.3856 H   0  0  0  0  0  0  0  0  0  0  0  0
   -3.2553    3.8935   -1.0514 H   0  0  0  0  0  0  0  0  0  0  0  0
   -2.4607    5.4886   -0.8261 H   0  0  0  0  0  0  0  0  0  0  0  0
  1  3  1  0  0  0  0
  1  7  1  0  0  0  0
  1  2  2  0  0  0  0
 30 31  1  0  0  0  0
 31 39  1  0  0  0  0
 31 32  2  0  0  0  0
  8  9  1  0  0  0  0
  9 17  1  0  0  0  0
  9 10  2  0  0  0  0
 18 19  1  0  0  0  0
 19 29  1  0  0  0  0
 19 20  2  0  0  0  0
 21 22  1  0  0  0  0
 22 23  1  0  0  0  0
 22 24  2  0  0  0  0
 30 33  1  0  0  0  0
  8 11  1  0  0  0  0
 39 40  1  0  0  0  0
 18 21  1  0  0  0  0
 29 30  1  0  0  0  0
  7  8  1  0  0  0  0
 17 18  1  0  0  0  0
  3  4  1  0  0  0  0
  3  5  1  0  0  0  0
  3  6  1  0  0  0  0
 33 36  1  0  0  0  0
 33 37  1  0  0  0  0
 33 38  1  0  0  0  0
 11 14  1  0  0  0  0
 11 15  1  0  0  0  0
 11 16  1  0  0  0  0
 40 42  1  0  0  0  0
 40 43  1  0  0  0  0
 40 44  1  0  0  0  0
 21 27  1  0  0  0  0
 21 28  1  0  0  0  0
 30 35  1  0  0  0  0
  8 13  1  0  0  0  0
 18 26  1  0  0  0  0
 39 41  1  0  0  0  0
  7 12  1  0  0  0  0
 29 34  1  0  0  0  0
 17 25  1  0  0  0  0
M  CHG  1  23  -1
M  END
$$$$

  -OEChem-05262214473D

 44 43  0     1  0  0  0  0  0999 V2000
   -4.0256   -1.8030   -2.1581 C   0  0  0  0  0  0  0  0  0  0  0  0
   -3.7513   -2.6782   -2.9709 O   0  0  0  0  0  0  0  0  0  0  0  0
   -5.3491   -1.1169   -2.2339 C   0  0  0  0  0  0  0  0  0  0  0  0
   -5.3223   -0.2211   -2.8750 H   0  0  0  0  0  0  0  0  0  0  0  0
   -6.1322   -1.7605   -2.6658 H   0  0  0  0  0  0  0  0  0  0  0  0
   -5.7568   -0.7715   -1.2704 H   0  0  0  0  0  0  0  0  0  0  0  0
   -3.2124   -1.3578   -1.1289 N   0  0  0  0  0  0  0  0  0  0  0  0
   -1.8971   -1.8843   -0.8752 C   0  0  2  0  0  0  0  0  0  0  0  0
   -1.2676   -1.0599    0.2399 C   0  0  0  0  0  0  0  0  0  0  0  0
   -1.6270    0.0833    0.5138 O   0  0  0  0  0  0  0  0  0  0  0  0
   -1.0364   -1.8506   -2.1285 C   0  0  0  0  0  0  0  0  0  0  0  0
   -3.5631   -0.6202   -0.5206 H   0  0  0  0  0  0  0  0  0  0  0  0
   -2.0301   -2.9174   -0.5360 H   0  0  0  0  0  0  0  0  0  0  0  0
   -0.8921   -0.8236   -2.4833 H   0  0  0  0  0  0  0  0  0  0  0  0
   -0.0457   -2.2777   -1.9410 H   0  0  0  0  0  0  0  0  0  0  0  0
   -1.5052   -2.4193   -2.9387 H   0  0  0  0  0  0  0  0  0  0  0  0
   -0.2267   -1.7335    0.8672 N   0  0  0  0  0  0  0  0  0  0  0  0
    0.5363   -1.1590    1.9465 C   0  0  2  0  0  0  0  0  0  0  0  0
    0.8732    0.2730    1.5471 C   0  0  0  0  0  0  0  0  0  0  0  0
    1.9105    0.8377    1.8882 O   0  0  0  0  0  0  0  0  0  0  0  0
    1.8110   -1.9520    2.2256 C   0  0  0  0  0  0  0  0  0  0  0  0
    1.6258   -3.3502    2.8289 C   0  0  0  0  0  0  0  0  0  0  0  0
    0.5850   -3.4729    3.5377 O   0  5  0  0  0  0  0  0  0  0  0  0
    2.5174   -4.2024    2.5648 O   0  0  0  0  0  0  0  0  0  0  0  0
   -0.0113   -2.6869    0.5854 H   0  0  0  0  0  0  0  0  0  0  0  0
   -0.1206   -1.1434    2.8235 H   0  0  0  0  0  0  0  0  0  0  0  0
    2.4631   -1.3781    2.8982 H   0  0  0  0  0  0  0  0  0  0  0  0
    2.3723   -2.0897    1.2922 H   0  0  0  0  0  0  0  0  0  0  0  0
   -0.0964    0.8265    0.7226 N   0  0  0  0  0  0  0  0  0  0  0  0
    0.0059    2.1623    0.1825 C   0  0  2  0  0  0  0  0  0  0  0  0
   -1.4043    2.7157    0.0264 C   0  0  0  0  0  0  0  0  0  0  0  0
   -2.3996    2.0000   -0.0645 O   0  0  0  0  0  0  0  0  0  0  0  0
    0.7417    2.1661   -1.1484 C   0  0  0  0  0  0  0  0  0  0  0  0
   -0.9006    0.2677    0.4527 H   0  0  0  0  0  0  0  0  0  0  0  0
    0.5540    2.7600    0.9189 H   0  0  0  0  0  0  0  0  0  0  0  0
    0.2075    1.5722   -1.8989 H   0  0  0  0  0  0  0  0  0  0  0  0
    0.8435    3.1827   -1.5425 H   0  0  0  0  0  0  0  0  0  0  0  0
    1.7451    1.7403   -1.0402 H   0  0  0  0  0  0  0  0  0  0  0  0
   -1.4163    4.1018   -0.0426 N   0  0  0  0  0  0  0  0  0  0  0  0
   -2.6326    4.8639   -0.2034 C   0  0  0  0  0  0  0  0  0  0  0  0
   -0.5457    4.6148    0.0608 H   0  0  0  0  0  0  0  0  0  0  0  0
   -2.8129    5.0464   -1.2731 H   0  0  0  0  0  0  0  0  0  0  0  0
   -3.4770    4.3002    0.2197 H   0  0  0  0  0  0  0  0  0  0  0  0
   -2.5344    5.8259    0.3210 H   0  0  0  0  0  0  0  0  0  0  0  0
  1  3  1  0  0  0  0
  1  7  1  0  0  0  0
  1  2  2  0  0  0  0
 30 31  1  0  0  0  0
 31 39  1  0  0  0  0
 31 32  2  0  0  0  0
  8  9  1  0  0  0  0
  9 17  1  0  0  0  0
  9 10  2  0  0  0  0
 18 19  1  0  0  0  0
 19 29  1  0  0  0  0
 19 20  2  0  0  0  0
 21 22  1  0  0  0  0
 22 23  1  0  0  0  0
 22 24  2  0  0  0  0
 30 33  1  0  0  0  0
  8 11  1  0  0  0  0
 39 40  1  0  0  0  0
 18 21  1  0  0  0  0
 29 30  1  0  0  0  0
  7  8  1  0  0  0  0
 17 18  1  0  0  0  0
  3  4  1  0  0  0  0
  3  5  1  0  0  0  0
  3  6  1  0  0  0  0
 33 36  1  0  0  0  0
 33 37  1  0  0  0  0
 33 38  1  0  0  0  0
 11 14  1  0  0  0  0
 11 15  1  0  0  0  0
 11 16  1  0  0  0  0
 40 42  1  0  0  0  0
 40 43  1  0  0  0  0
 40 44  1  0  0  0  0
 21 27  1  0  0  0  0
 21 28  1  0  0  0  0
 30 35  1  0  0  0  0
  8 13  1  0  0  0  0
 18 26  1  0  0  0  0
 39 41  1  0  0  0  0
  7 12  1  0  0  0  0
 29 34  1  0  0  0  0
 17 25  1  0  0  0  0
M  CHG  1  23  -1
M  END
$$$$

  -OEChem-05262214473D

 44 43  0     1  0  0  0  0  0999 V2000
   -4.0256   -1.8030   -2.1581 C   0  0  0  0  0  0  0  0  0  0  0  0
   -3.7513   -2.6782   -2.9709 O   0  0  0  0  0  0  0  0  0  0  0  0
   -5.3491   -1.1169   -2.2339 C   0  0  0  0  0  0  0  0  0  0  0  0
   -5.3223   -0.2211   -2.8750 H   0  0  0  0  0  0  0  0  0  0  0  0
   -6.1322   -1.7605   -2.6658 H   0  0  0  0  0  0  0  0  0  0  0  0
   -5.7568   -0.7715   -1.2704 H   0  0  0  0  0  0  0  0  0  0  0  0
   -3.2124   -1.3578   -1.1289 N   0  0  0  0  0  0  0  0  0  0  0  0
   -1.8971   -1.8843   -0.8752 C   0  0  2  0  0  0  0  0  0  0  0  0
   -1.2676   -1.0599    0.2399 C   0  0  0  0  0  0  0  0  0  0  0  0
   -1.6270    0.0833    0.5138 O   0  0  0  0  0  0  0  0  0  0  0  0
   -1.0364   -1.8506   -2.1285 C   0  0  0  0  0  0  0  0  0  0  0  0
   -3.5631   -0.6202   -0.5206 H   0  0  0  0  0  0  0  0  0  0  0  0
   -2.0301   -2.9174   -0.5360 H   0  0  0  0  0  0  0  0  0  0  0  0
   -0.8921   -0.8236   -2.4833 H   0  0  0  0  0  0  0  0  0  0  0  0
   -0.0457   -2.2777   -1.9410 H   0  0  0  0  0  0  0  0  0  0  0  0
   -1.5052   -2.4193   -2.9387 H   0  0  0  0  0  0  0  0  0  0  0  0
   -0.2267   -1.7335    0.8672 N   0  0  0  0  0  0  0  0  0  0  0  0
    0.5363   -1.1590    1.9465 C   0  0  2  0  0  0  0  0  0  0  0  0
    0.8732    0.2730    1.5471 C   0  0  0  0  0  0  0  0  0  0  0  0
    2.0014    0.7501    1.6507 O   0  0  0  0  0  0  0  0  0  0  0  0
    1.8110   -1.9520    2.2256 C   0  0  0  0  0  0  0  0  0  0  0  0
    1.6258   -3.3502    2.8289 C   0  0  0  0  0  0  0  0  0  0  0  0
    0.5850   -3.4729    3.5377 O   0  5  0  0  0  0  0  0  0  0  0  0
    2.5174   -4.2024    2.5648 O   0  0  0  0  0  0  0  0  0  0  0  0
   -0.0113   -2.6869    0.5854 H   0  0  0  0  0  0  0  0  0  0  0  0
   -0.1206   -1.1434    2.8235 H   0  0  0  0  0  0  0  0  0  0  0  0
    2.4631   -1.3781    2.8982 H   0  0  0  0  0  0  0  0  0  0  0  0
    2.3723   -2.0897    1.2922 H   0  0  0  0  0  0  0  0  0  0  0  0
   -0.2224    0.9373    1.0134 N   0  0  0  0  0  0  0  0  0  0  0  0
   -0.1536    2.2969    0.5306 C   0  0  2  0  0  0  0  0  0  0  0  0
   -1.5143    2.9440    0.7522 C   0  0  0  0  0  0  0  0  0  0  0  0
   -2.5529    2.2976    0.8731 O   0  0  0  0  0  0  0  0  0  0  0  0
    0.2377    2.3433   -0.9382 C   0  0  0  0  0  0  0  0  0  0  0  0
   -1.1074    0.4473    0.9219 H   0  0  0  0  0  0  0  0  0  0  0  0
    0.5991    2.8106    1.1385 H   0  0  0  0  0  0  0  0  0  0  0  0
   -0.5047    1.8335   -1.5630 H   0  0  0  0  0  0  0  0  0  0  0  0
    0.3172    3.3755   -1.2952 H   0  0  0  0  0  0  0  0  0  0  0  0
    1.2027    1.8511   -1.1002 H   0  0  0  0  0  0  0  0  0  0  0  0
   -1.4388    4.3298    0.7559 N   0  0  0  0  0  0  0  0  0  0  0  0
   -2.5973    5.1733    0.9356 C   0  0  0  0  0  0  0  0  0  0  0  0
   -0.5330    4.7811    0.6677 H   0  0  0  0  0  0  0  0  0  0  0  0
   -3.0161    5.4361   -0.0471 H   0  0  0  0  0  0  0  0  0  0  0  0
   -3.3546    4.6353    1.5247 H   0  0  0  0  0  0  0  0  0  0  0  0
   -2.3038    6.0910    1.4662 H   0  0  0  0  0  0  0  0  0  0  0  0
  1  3  1  0  0  0  0
  1  7  1  0  0  0  0
  1  2  2  0  0  0  0
 30 31  1  0  0  0  0
 31 39  1  0  0  0  0
 31 32  2  0  0  0  0
  8  9  1  0  0  0  0
  9 17  1  0  0  0  0
  9 10  2  0  0  0  0
 18 19  1  0  0  0  0
 19 29  1  0  0  0  0
 19 20  2  0  0  0  0
 21 22  1  0  0  0  0
 22 23  1  0  0  0  0
 22 24  2  0  0  0  0
 30 33  1  0  0  0  0
  8 11  1  0  0  0  0
 39 40  1  0  0  0  0
 18 21  1  0  0  0  0
 29 30  1  0  0  0  0
  7  8  1  0  0  0  0
 17 18  1  0  0  0  0
  3  4  1  0  0  0  0
  3  5  1  0  0  0  0
  3  6  1  0  0  0  0
 33 36  1  0  0  0  0
 33 37  1  0  0  0  0
 33 38  1  0  0  0  0
 11 14  1  0  0  0  0
 11 15  1  0  0  0  0
 11 16  1  0  0  0  0
 40 42  1  0  0  0  0
 40 43  1  0  0  0  0
 40 44  1  0  0  0  0
 21 27  1  0  0  0  0
 21 28  1  0  0  0  0
 30 35  1  0  0  0  0
  8 13  1  0  0  0  0
 18 26  1  0  0  0  0
 39 41  1  0  0  0  0
  7 12  1  0  0  0  0
 29 34  1  0  0  0  0
 17 25  1  0  0  0  0
M  CHG  1  23  -1
M  END
$$$$

  -OEChem-05262214473D

 44 43  0     1  0  0  0  0  0999 V2000
   -4.0256   -1.8030   -2.1581 C   0  0  0  0  0  0  0  0  0  0  0  0
   -3.7513   -2.6782   -2.9709 O   0  0  0  0  0  0  0  0  0  0  0  0
   -5.3491   -1.1169   -2.2339 C   0  0  0  0  0  0  0  0  0  0  0  0
   -5.3223   -0.2211   -2.8750 H   0  0  0  0  0  0  0  0  0  0  0  0
   -6.1322   -1.7605   -2.6658 H   0  0  0  0  0  0  0  0  0  0  0  0
   -5.7568   -0.7715   -1.2704 H   0  0  0  0  0  0  0  0  0  0  0  0
   -3.2124   -1.3578   -1.1289 N   0  0  0  0  0  0  0  0  0  0  0  0
   -1.8971   -1.8843   -0.8752 C   0  0  2  0  0  0  0  0  0  0  0  0
   -1.2676   -1.0599    0.2399 C   0  0  0  0  0  0  0  0  0  0  0  0
   -1.6270    0.0833    0.5138 O   0  0  0  0  0  0  0  0  0  0  0  0
   -1.0364   -1.8506   -2.1285 C   0  0  0  0  0  0  0  0  0  0  0  0
   -3.5631   -0.6202   -0.5206 H   0  0  0  0  0  0  0  0  0  0  0  0
   -2.0301   -2.9174   -0.5360 H   0  0  0  0  0  0  0  0  0  0  0  0
   -0.8921   -0.8236   -2.4833 H   0  0  0  0  0  0  0  0  0  0  0  0
   -0.0457   -2.2777   -1.9410 H   0  0  0  0  0  0  0  0  0  0  0  0
   -1.5052   -2.4193   -2.9387 H   0  0  0  0  0  0  0  0  0  0  0  0
   -0.2267   -1.7335    0.8672 N   0  0  0  0  0  0  0  0  0  0  0  0
    0.5363   -1.1590    1.9465 C   0  0  2  0  0  0  0  0  0  0  0  0
    0.8732    0.2730    1.5471 C   0  0  0  0  0  0  0  0  0  0  0  0
    2.0256    0.6729    1.3941 O   0  0  0  0  0  0  0  0  0  0  0  0
    1.8110   -1.9520    2.2256 C   0  0  0  0  0  0  0  0  0  0  0  0
    1.6258   -3.3502    2.8289 C   0  0  0  0  0  0  0  0  0  0  0  0
    0.5850   -3.4729    3.5377 O   0  5  0  0  0  0  0  0  0  0  0  0
    2.5174   -4.2024    2.5648 O   0  0  0  0  0  0  0  0  0  0  0  0
   -0.0113   -2.6869    0.5854 H   0  0  0  0  0  0  0  0  0  0  0  0
   -0.1206   -1.1434    2.8235 H   0  0  0  0  0  0  0  0  0  0  0  0
    2.4631   -1.3781    2.8982 H   0  0  0  0  0  0  0  0  0  0  0  0
    2.3723   -2.0897    1.2922 H   0  0  0  0  0  0  0  0  0  0  0  0
   -0.2658    1.0361    1.3313 N   0  0  0  0  0  0  0  0  0  0  0  0
   -0.2139    2.4178    0.9134 C   0  0  2  0  0  0  0  0  0  0  0  0
   -1.4286    3.1305    1.4930 C   0  0  0  0  0  0  0  0  0  0  0  0
   -2.4527    2.5418    1.8331 O   0  0  0  0  0  0  0  0  0  0  0  0
   -0.1860    2.5367   -0.6025 C   0  0  0  0  0  0  0  0  0  0  0  0
   -1.1810    0.6079    1.4357 H   0  0  0  0  0  0  0  0  0  0  0  0
    0.6995    2.8439    1.3425 H   0  0  0  0  0  0  0  0  0  0  0  0
   -1.0932    2.1149   -1.0504 H   0  0  0  0  0  0  0  0  0  0  0  0
   -0.1179    3.5832   -0.9172 H   0  0  0  0  0  0  0  0  0  0  0  0
    0.6718    1.9984   -1.0199 H   0  0  0  0  0  0  0  0  0  0  0  0
   -1.2508    4.5059    1.5457 N   0  0  0  0  0  0  0  0  0  0  0  0
   -2.2653    5.4046    2.0448 C   0  0  0  0  0  0  0  0  0  0  0  0
   -0.3620    4.9061    1.2604 H   0  0  0  0  0  0  0  0  0  0  0  0
   -2.8879    5.7562    1.2089 H   0  0  0  0  0  0  0  0  0  0  0  0
   -2.8963    4.8761    2.7747 H   0  0  0  0  0  0  0  0  0  0  0  0
   -1.7846    6.2660    2.5315 H   0  0  0  0  0  0  0  0  0  0  0  0
  1  3  1  0  0  0  0
  1  7  1  0  0  0  0
  1  2  2  0  0  0  0
 30 31  1  0  0  0  0
 31 39  1  0  0  0  0
 31 32  2  0  0  0  0
  8  9  1  0  0  0  0
  9 17  1  0  0  0  0
  9 10  2  0  0  0  0
 18 19  1  0  0  0  0
 19 29  1  0  0  0  0
 19 20  2  0  0  0  0
 21 22  1  0  0  0  0
 22 23  1  0  0  0  0
 22 24  2  0  0  0  0
 30 33  1  0  0  0  0
  8 11  1  0  0  0  0
 39 40  1  0  0  0  0
 18 21  1  0  0  0  0
 29 30  1  0  0  0  0
  7  8  1  0  0  0  0
 17 18  1  0  0  0  0
  3  4  1  0  0  0  0
  3  5  1  0  0  0  0
  3  6  1  0  0  0  0
 33 36  1  0  0  0  0
 33 37  1  0  0  0  0
 33 38  1  0  0  0  0
 11 14  1  0  0  0  0
 11 15  1  0  0  0  0
 11 16  1  0  0  0  0
 40 42  1  0  0  0  0
 40 43  1  0  0  0  0
 40 44  1  0  0  0  0
 21 27  1  0  0  0  0
 21 28  1  0  0  0  0
 30 35  1  0  0  0  0
  8 13  1  0  0  0  0
 18 26  1  0  0  0  0
 39 41  1  0  0  0  0
  7 12  1  0  0  0  0
 29 34  1  0  0  0  0
 17 25  1  0  0  0  0
M  CHG  1  23  -1
M  END
$$$$

  -OEChem-05262214473D

 44 43  0     1  0  0  0  0  0999 V2000
   -4.0256   -1.8030   -2.1581 C   0  0  0  0  0  0  0  0  0  0  0  0
   -3.7513   -2.6782   -2.9709 O   0  0  0  0  0  0  0  0  0  0  0  0
   -5.3491   -1.1169   -2.2339 C   0  0  0  0  0  0  0  0  0  0  0  0
   -5.3223   -0.2211   -2.8750 H   0  0  0  0  0  0  0  0  0  0  0  0
   -6.1322   -1.7605   -2.6658 H   0  0  0  0  0  0  0  0  0  0  0  0
   -5.7568   -0.7715   -1.2704 H   0  0  0  0  0  0  0  0  0  0  0  0
   -3.2124   -1.3578   -1.1289 N   0  0  0  0  0  0  0  0  0  0  0  0
   -1.8971   -1.8843   -0.8752 C   0  0  2  0  0  0  0  0  0  0  0  0
   -1.2676   -1.0599    0.2399 C   0  0  0  0  0  0  0  0  0  0  0  0
   -1.6270    0.0833    0.5138 O   0  0  0  0  0  0  0  0  0  0  0  0
   -1.0364   -1.8506   -2.1285 C   0  0  0  0  0  0  0  0  0  0  0  0
   -3.5631   -0.6202   -0.5206 H   0  0  0  0  0  0  0  0  0  0  0  0
   -2.0301   -2.9174   -0.5360 H   0  0  0  0  0  0  0  0  0  0  0  0
   -0.8921   -0.8236   -2.4833 H   0  0  0  0  0  0  0  0  0  0  0  0
   -0.0457   -2.2777   -1.9410 H   0  0  0  0  0  0  0  0  0  0  0  0
   -1.5052   -2.4193   -2.9387 H   0  0  0  0  0  0  0  0  0  0  0  0
   -0.2267   -1.7335    0.8672 N   0  0  0  0  0  0  0  0  0  0  0  0
    0.5363   -1.1590    1.9465 C   0  0  2  0  0  0  0  0  0  0  0  0
    0.8732    0.2730    1.5471 C   0  0  0  0  0  0  0  0  0  0  0  0
    1.9813    0.6113    1.1360 O   0  0  0  0  0  0  0  0  0  0  0  0
    1.8110   -1.9520    2.2256 C   0  0  0  0  0  0  0  0  0  0  0  0
    1.6258   -3.3502    2.8289 C   0  0  0  0  0  0  0  0  0  0  0  0
    0.5850   -3.4729    3.5377 O   0  5  0  0  0  0  0  0  0  0  0  0
    2.5174   -4.2024    2.5648 O   0  0  0  0  0  0  0  0  0  0  0  0
   -0.0113   -2.6869    0.5854 H   0  0  0  0  0  0  0  0  0  0  0  0
   -0.1206   -1.1434    2.8235 H   0  0  0  0  0  0  0  0  0  0  0  0
    2.4631   -1.3781    2.8982 H   0  0  0  0  0  0  0  0  0  0  0  0
    2.3723   -2.0897    1.2922 H   0  0  0  0  0  0  0  0  0  0  0  0
   -0.2238    1.1164    1.6546 N   0  0  0  0  0  0  0  0  0  0  0  0
   -0.1709    2.5168    1.3046 C   0  0  2  0  0  0  0  0  0  0  0  0
   -1.1531    3.2624    2.1984 C   0  0  0  0  0  0  0  0  0  0  0  0
   -2.1061    2.7159    2.7500 O   0  0  0  0  0  0  0  0  0  0  0  0
   -0.5006    2.7329   -0.1642 C   0  0  0  0  0  0  0  0  0  0  0  0
   -1.1162    0.7386    1.9591 H   0  0  0  0  0  0  0  0  0  0  0  0
    0.8483    2.8576    1.5171 H   0  0  0  0  0  0  0  0  0  0  0  0
   -1.5180    2.3974   -0.3960 H   0  0  0  0  0  0  0  0  0  0  0  0
   -0.4322    3.7918   -0.4345 H   0  0  0  0  0  0  0  0  0  0  0  0
    0.1885    2.1721   -0.8049 H   0  0  0  0  0  0  0  0  0  0  0  0
   -0.8653    4.6180    2.2730 N   0  0  0  0  0  0  0  0  0  0  0  0
   -1.6593    5.5420    3.0488 C   0  0  0  0  0  0  0  0  0  0  0  0
   -0.0441    4.9814    1.7984 H   0  0  0  0  0  0  0  0  0  0  0  0
   -2.4369    5.9849    2.4092 H   0  0  0  0  0  0  0  0  0  0  0  0
   -2.1333    5.0061    3.8843 H   0  0  0  0  0  0  0  0  0  0  0  0
   -1.0123    6.3389    3.4443 H   0  0  0  0  0  0  0  0  0  0  0  0
  1  3  1  0  0  0  0
  1  7  1  0  0  0  0
  1  2  2  0  0  0  0
 30 31  1  0  0  0  0
 31 39  1  0  0  0  0
 31 32  2  0  0  0  0
  8  9  1  0  0  0  0
  9 17  1  0  0  0  0
  9 10  2  0  0  0  0
 18 19  1  0  0  0  0
 19 29  1  0  0  0  0
 19 20  2  0  0  0  0
 21 22  1  0  0  0  0
 22 23  1  0  0  0  0
 22 24  2  0  0  0  0
 30 33  1  0  0  0  0
  8 11  1  0  0  0  0
 39 40  1  0  0  0  0
 18 21  1  0  0  0  0
 29 30  1  0  0  0  0
  7  8  1  0  0  0  0
 17 18  1  0  0  0  0
  3  4  1  0  0  0  0
  3  5  1  0  0  0  0
  3  6  1  0  0  0  0
 33 36  1  0  0  0  0
 33 37  1  0  0  0  0
 33 38  1  0  0  0  0
 11 14  1  0  0  0  0
 11 15  1  0  0  0  0
 11 16  1  0  0  0  0
 40 42  1  0  0  0  0
 40 43  1  0  0  0  0
 40 44  1  0  0  0  0
 21 27  1  0  0  0  0
 21 28  1  0  0  0  0
 30 35  1  0  0  0  0
  8 13  1  0  0  0  0
 18 26  1  0  0  0  0
 39 41  1  0  0  0  0
  7 12  1  0  0  0  0
 29 34  1  0  0  0  0
 17 25  1  0  0  0  0
M  CHG  1  23  -1
M  END
$$$$

  -OEChem-05262214473D

 44 43  0     1  0  0  0  0  0999 V2000
   -4.0256   -1.8030   -2.1581 C   0  0  0  0  0  0  0  0  0  0  0  0
   -3.7513   -2.6782   -2.9709 O   0  0  0  0  0  0  0  0  0  0  0  0
   -5.3491   -1.1169   -2.2339 C   0  0  0  0  0  0  0  0  0  0  0  0
   -5.3223   -0.2211   -2.8750 H   0  0  0  0  0  0  0  0  0  0  0  0
   -6.1322   -1.7605   -2.6658 H   0  0  0  0  0  0  0  0  0  0  0  0
   -5.7568   -0.7715   -1.2704 H   0  0  0  0  0  0  0  0  0  0  0  0
   -3.2124   -1.3578   -1.1289 N   0  0  0  0  0  0  0  0  0  0  0  0
   -1.8971   -1.8843   -0.8752 C   0  0  2  0  0  0  0  0  0  0  0  0
   -1.2676   -1.0599    0.2399 C   0  0  0  0  0  0  0  0  0  0  0  0
   -1.6270    0.0833    0.5138 O   0  0  0  0  0  0  0  0  0  0  0  0
   -1.0364   -1.8506   -2.1285 C   0  0  0  0  0  0  0  0  0  0  0  0
   -3.5631   -0.6202   -0.5206 H   0  0  0  0  0  0  0  0  0  0  0  0
   -2.0301   -2.9174   -0.5360 H   0  0  0  0  0  0  0  0  0  0  0  0
   -0.8921   -0.8236   -2.4833 H   0  0  0  0  0  0  0  0  0  0  0  0
   -0.0457   -2.2777   -1.9410 H   0  0  0  0  0  0  0  0  0  0  0  0
   -1.5052   -2.4193   -2.9387 H   0  0  0  0  0  0  0  0  0  0  0  0
   -0.2267   -1.7335    0.8672 N   0  0  0  0  0  0  0  0  0  0  0  0
    0.5363   -1.1590    1.9465 C   0  0  2  0  0  0  0  0  0  0  0  0
    0.8732    0.2730    1.5471 C   0  0  0  0  0  0  0  0  0  0  0  0
    1.8716    0.5696    0.8940 O   0  0  0  0  0  0  0  0  0  0  0  0
    1.8110   -1.9520    2.2256 C   0  0  0  0  0  0  0  0  0  0  0  0
    1.6258   -3.3502    2.8289 C   0  0  0  0  0  0  0  0  0  0  0  0
    0.5850   -3.4729    3.5377 O   0  5  0  0  0  0  0  0  0  0  0  0
    2.5174   -4.2024    2.5648 O   0  0  0  0  0  0  0  0  0  0  0  0
   -0.0113   -2.6869    0.5854 H   0  0  0  0  0  0  0  0  0  0  0  0
   -0.1206   -1.1434    2.8235 H   0  0  0  0  0  0  0  0  0  0  0  0
    2.4631   -1.3781    2.8982 H   0  0  0  0  0  0  0  0  0  0  0  0
    2.3723   -2.0897    1.2922 H   0  0  0  0  0  0  0  0  0  0  0  0
   -0.0992    1.1726    1.9613 N   0  0  0  0  0  0  0  0  0  0  0  0
   -0.0275    2.5871    1.6778 C   0  0  2  0  0  0  0  0  0  0  0  0
   -0.7065    3.3308    2.8203 C   0  0  0  0  0  0  0  0  0  0  0  0
   -1.5365    2.8082    3.5613 O   0  0  0  0  0  0  0  0  0  0  0  0
   -0.6845    2.9188    0.3470 C   0  0  0  0  0  0  0  0  0  0  0  0
   -0.9175    0.8305    2.4564 H   0  0  0  0  0  0  0  0  0  0  0  0
    1.0354    2.8507    1.6503 H   0  0  0  0  0  0  0  0  0  0  0  0
   -1.7500    2.6615    0.3554 H   0  0  0  0  0  0  0  0  0  0  0  0
   -0.6042    3.9870    0.1201 H   0  0  0  0  0  0  0  0  0  0  0  0
   -0.2143    2.3604   -0.4697 H   0  0  0  0  0  0  0  0  0  0  0  0
   -0.3085    4.6586    2.8882 N   0  0  0  0  0  0  0  0  0  0  0  0
   -0.8205    5.5763    3.8791 C   0  0  0  0  0  0  0  0  0  0  0  0
    0.3988    5.0018    2.2451 H   0  0  0  0  0  0  0  0  0  0  0  0
   -1.6940    6.1065    3.4720 H   0  0  0  0  0  0  0  0  0  0  0  0
   -1.1178    5.0165    4.7782 H   0  0  0  0  0  0  0  0  0  0  0  0
   -0.0394    6.3047    4.1424 H   0  0  0  0  0  0  0  0  0  0  0  0
  1  3  1  0  0  0  0
  1  7  1  0  0  0  0
  1  2  2  0  0  0  0
 30 31  1  0  0  0  0
 31 39  1  0  0  0  0
 31 32  2  0  0  0  0
  8  9  1  0  0  0  0
  9 17  1  0  0  0  0
  9 10  2  0  0  0  0
 18 19  1  0  0  0  0
 19 29  1  0  0  0  0
 19 20  2  0  0  0  0
 21 22  1  0  0  0  0
 22 23  1  0  0  0  0
 22 24  2  0  0  0  0
 30 33  1  0  0  0  0
  8 11  1  0  0  0  0
 39 40  1  0  0  0  0
 18 21  1  0  0  0  0
 29 30  1  0  0  0  0
  7  8  1  0  0  0  0
 17 18  1  0  0  0  0
  3  4  1  0  0  0  0
  3  5  1  0  0  0  0
  3  6  1  0  0  0  0
 33 36  1  0  0  0  0
 33 37  1  0  0  0  0
 33 38  1  0  0  0  0
 11 14  1  0  0  0  0
 11 15  1  0  0  0  0
 11 16  1  0  0  0  0
 40 42  1  0  0  0  0
 40 43  1  0  0  0  0
 40 44  1  0  0  0  0
 21 27  1  0  0  0  0
 21 28  1  0  0  0  0
 30 35  1  0  0  0  0
  8 13  1  0  0  0  0
 18 26  1  0  0  0  0
 39 41  1  0  0  0  0
  7 12  1  0  0  0  0
 29 34  1  0  0  0  0
 17 25  1  0  0  0  0
M  CHG  1  23  -1
M  END
$$$$

  -OEChem-05262214473D

 44 43  0     1  0  0  0  0  0999 V2000
   -4.0256   -1.8030   -2.1581 C   0  0  0  0  0  0  0  0  0  0  0  0
   -3.7513   -2.6782   -2.9709 O   0  0  0  0  0  0  0  0  0  0  0  0
   -5.3491   -1.1169   -2.2339 C   0  0  0  0  0  0  0  0  0  0  0  0
   -5.3223   -0.2211   -2.8750 H   0  0  0  0  0  0  0  0  0  0  0  0
   -6.1322   -1.7605   -2.6658 H   0  0  0  0  0  0  0  0  0  0  0  0
   -5.7568   -0.7715   -1.2704 H   0  0  0  0  0  0  0  0  0  0  0  0
   -3.2124   -1.3578   -1.1289 N   0  0  0  0  0  0  0  0  0  0  0  0
   -1.8971   -1.8843   -0.8752 C   0  0  2  0  0  0  0  0  0  0  0  0
   -1.2676   -1.0599    0.2399 C   0  0  0  0  0  0  0  0  0  0  0  0
   -1.6270    0.0833    0.5138 O   0  0  0  0  0  0  0  0  0  0  0  0
   -1.0364   -1.8506   -2.1285 C   0  0  0  0  0  0  0  0  0  0  0  0
   -3.5631   -0.6202   -0.5206 H   0  0  0  0  0  0  0  0  0  0  0  0
   -2.0301   -2.9174   -0.5360 H   0  0  0  0  0  0  0  0  0  0  0  0
   -0.8921   -0.8236   -2.4833 H   0  0  0  0  0  0  0  0  0  0  0  0
   -0.0457   -2.2777   -1.9410 H   0  0  0  0  0  0  0  0  0  0  0  0
   -1.5052   -2.4193   -2.9387 H   0  0  0  0  0  0  0  0  0  0  0  0
   -0.2267   -1.7335    0.8672 N   0  0  0  0  0  0  0  0  0  0  0  0
    0.5363   -1.1590    1.9465 C   0  0  2  0  0  0  0  0  0  0  0  0
    0.8732    0.2730    1.5471 C   0  0  0  0  0  0  0  0  0  0  0  0
    1.7039    0.5506    0.6845 O   0  0  0  0  0  0  0  0  0  0  0  0
    1.8110   -1.9520    2.2256 C   0  0  0  0  0  0  0  0  0  0  0  0
    1.6258   -3.3502    2.8289 C   0  0  0  0  0  0  0  0  0  0  0  0
    0.5850   -3.4729    3.5377 O   0  5  0  0  0  0  0  0  0  0  0  0
    2.5174   -4.2024    2.5648 O   0  0  0  0  0  0  0  0  0  0  0  0
   -0.0113   -2.6869    0.5854 H   0  0  0  0  0  0  0  0  0  0  0  0
   -0.1206   -1.1434    2.8235 H   0  0  0  0  0  0  0  0  0  0  0  0
    2.4631   -1.3781    2.8982 H   0  0  0  0  0  0  0  0  0  0  0  0
    2.3723   -2.0897    1.2922 H   0  0  0  0  0  0  0  0  0  0  0  0
    0.0996    1.2009    2.2304 N   0  0  0  0  0  0  0  0  0  0  0  0
    0.2065    2.6240    2.0073 C   0  0  2  0  0  0  0  0  0  0  0  0
   -0.1192    3.3310    3.3164 C   0  0  0  0  0  0  0  0  0  0  0  0
   -0.7828    2.8123    4.2118 O   0  0  0  0  0  0  0  0  0  0  0  0
   -0.7254    3.0815    0.8960 C   0  0  0  0  0  0  0  0  0  0  0  0
   -0.5984    0.8774    2.8936 H   0  0  0  0  0  0  0  0  0  0  0  0
    1.2481    2.8238    1.7331 H   0  0  0  0  0  0  0  0  0  0  0  0
   -1.7735    2.8895    1.1528 H   0  0  0  0  0  0  0  0  0  0  0  0
   -0.6224    4.1554    0.7088 H   0  0  0  0  0  0  0  0  0  0  0  0
   -0.5092    2.5504   -0.0372 H   0  0  0  0  0  0  0  0  0  0  0  0
    0.3816    4.6249    3.3494 N   0  0  0  0  0  0  0  0  0  0  0  0
    0.1940    5.5049    4.4791 C   0  0  0  0  0  0  0  0  0  0  0  0
    0.9366    4.9659    2.5700 H   0  0  0  0  0  0  0  0  0  0  0  0
   -0.7097    6.1129    4.3249 H   0  0  0  0  0  0  0  0  0  0  0  0
    0.0812    4.9065    5.3952 H   0  0  0  0  0  0  0  0  0  0  0  0
    1.0678    6.1657    4.5781 H   0  0  0  0  0  0  0  0  0  0  0  0
  1  3  1  0  0  0  0
  1  7  1  0  0  0  0
  1  2  2  0  0  0  0
 30 31  1  0  0  0  0
 31 39  1  0  0  0  0
 31 32  2  0  0  0  0
  8  9  1  0  0  0  0
  9 17  1  0  0  0  0
  9 10  2  0  0  0  0
 18 19  1  0  0  0  0
 19 29  1  0  0  0  0
 19 20  2  0  0  0  0
 21 22  1  0  0  0  0
 22 23  1  0  0  0  0
 22 24  2  0  0  0  0
 30 33  1  0  0  0  0
  8 11  1  0  0  0  0
 39 40  1  0  0  0  0
 18 21  1  0  0  0  0
 29 30  1  0  0  0  0
  7  8  1  0  0  0  0
 17 18  1  0  0  0  0
  3  4  1  0  0  0  0
  3  5  1  0  0  0  0
  3  6  1  0  0  0  0
 33 36  1  0  0  0  0
 33 37  1  0  0  0  0
 33 38  1  0  0  0  0
 11 14  1  0  0  0  0
 11 15  1  0  0  0  0
 11 16  1  0  0  0  0
 40 42  1  0  0  0  0
 40 43  1  0  0  0  0
 40 44  1  0  0  0  0
 21 27  1  0  0  0  0
 21 28  1  0  0  0  0
 30 35  1  0  0  0  0
  8 13  1  0  0  0  0
 18 26  1  0  0  0  0
 39 41  1  0  0  0  0
  7 12  1  0  0  0  0
 29 34  1  0  0  0  0
 17 25  1  0  0  0  0
M  CHG  1  23  -1
M  END
$$$$

  -OEChem-05262214473D

 44 43  0     1  0  0  0  0  0999 V2000
   -4.0256   -1.8030   -2.1581 C   0  0  0  0  0  0  0  0  0  0  0  0
   -3.7513   -2.6782   -2.9709 O   0  0  0  0  0  0  0  0  0  0  0  0
   -5.3491   -1.1169   -2.2339 C   0  0  0  0  0  0  0  0  0  0  0  0
   -5.3223   -0.2211   -2.8750 H   0  0  0  0  0  0  0  0  0  0  0  0
   -6.1322   -1.7605   -2.6658 H   0  0  0  0  0  0  0  0  0  0  0  0
   -5.7568   -0.7715   -1.2704 H   0  0  0  0  0  0  0  0  0  0  0  0
   -3.2124   -1.3578   -1.1289 N   0  0  0  0  0  0  0  0  0  0  0  0
   -1.8971   -1.8843   -0.8752 C   0  0  2  0  0  0  0  0  0  0  0  0
   -1.2676   -1.0599    0.2399 C   0  0  0  0  0  0  0  0  0  0  0  0
   -1.6270    0.0833    0.5138 O   0  0  0  0  0  0  0  0  0  0  0  0
   -1.0364   -1.8506   -2.1285 C   0  0  0  0  0  0  0  0  0  0  0  0
   -3.5631   -0.6202   -0.5206 H   0  0  0  0  0  0  0  0  0  0  0  0
   -2.0301   -2.9174   -0.5360 H   0  0  0  0  0  0  0  0  0  0  0  0
   -0.8921   -0.8236   -2.4833 H   0  0  0  0  0  0  0  0  0  0  0  0
   -0.0457   -2.2777   -1.9410 H   0  0  0  0  0  0  0  0  0  0  0  0
   -1.5052   -2.4193   -2.9387 H   0  0  0  0  0  0  0  0  0  0  0  0
   -0.2267   -1.7335    0.8672 N   0  0  0  0  0  0  0  0  0  0  0  0
    0.5363   -1.1590    1.9465 C   0  0  2  0  0  0  0  0  0  0  0  0
    0.8732    0.2730    1.5471 C   0  0  0  0  0  0  0  0  0  0  0  0
    1.4897    0.5556    0.5218 O   0  0  0  0  0  0  0  0  0  0  0  0
    1.8110   -1.9520    2.2256 C   0  0  0  0  0  0  0  0  0  0  0  0
    1.6258   -3.3502    2.8289 C   0  0  0  0  0  0  0  0  0  0  0  0
    0.5850   -3.4729    3.5377 O   0  5  0  0  0  0  0  0  0  0  0  0
    2.5174   -4.2024    2.5648 O   0  0  0  0  0  0  0  0  0  0  0  0
   -0.0113   -2.6869    0.5854 H   0  0  0  0  0  0  0  0  0  0  0  0
   -0.1206   -1.1434    2.8235 H   0  0  0  0  0  0  0  0  0  0  0  0
    2.4631   -1.3781    2.8982 H   0  0  0  0  0  0  0  0  0  0  0  0
    2.3723   -2.0897    1.2922 H   0  0  0  0  0  0  0  0  0  0  0  0
    0.3590    1.1994    2.4436 N   0  0  0  0  0  0  0  0  0  0  0  0
    0.5152    2.6249    2.2709 C   0  0  2  0  0  0  0  0  0  0  0  0
    0.5687    3.2630    3.6528 C   0  0  0  0  0  0  0  0  0  0  0  0
    0.1037    2.7279    4.6571 O   0  0  0  0  0  0  0  0  0  0  0  0
   -0.6202    3.2100    1.4456 C   0  0  0  0  0  0  0  0  0  0  0  0
   -0.1807    0.8761    3.2411 H   0  0  0  0  0  0  0  0  0  0  0  0
    1.4718    2.7786    1.7598 H   0  0  0  0  0  0  0  0  0  0  0  0
   -1.5869    3.0656    1.9418 H   0  0  0  0  0  0  0  0  0  0  0  0
   -0.4853    4.2857    1.2915 H   0  0  0  0  0  0  0  0  0  0  0  0
   -0.6759    2.7291    0.4631 H   0  0  0  0  0  0  0  0  0  0  0  0
    1.1581    4.5191    3.6251 N   0  0  0  0  0  0  0  0  0  0  0  0
    1.3149    5.3329    4.8080 C   0  0  0  0  0  0  0  0  0  0  0  0
    1.5327    4.8762    2.7511 H   0  0  0  0  0  0  0  0  0  0  0  0
    0.4488    6.0034    4.9098 H   0  0  0  0  0  0  0  0  0  0  0  0
    1.3819    4.6837    5.6934 H   0  0  0  0  0  0  0  0  0  0  0  0
    2.2338    5.9315    4.7219 H   0  0  0  0  0  0  0  0  0  0  0  0
  1  3  1  0  0  0  0
  1  7  1  0  0  0  0
  1  2  2  0  0  0  0
 30 31  1  0  0  0  0
 31 39  1  0  0  0  0
 31 32  2  0  0  0  0
  8  9  1  0  0  0  0
  9 17  1  0  0  0  0
  9 10  2  0  0  0  0
 18 19  1  0  0  0  0
 19 29  1  0  0  0  0
 19 20  2  0  0  0  0
 21 22  1  0  0  0  0
 22 23  1  0  0  0  0
 22 24  2  0  0  0  0
 30 33  1  0  0  0  0
  8 11  1  0  0  0  0
 39 40  1  0  0  0  0
 18 21  1  0  0  0  0
 29 30  1  0  0  0  0
  7  8  1  0  0  0  0
 17 18  1  0  0  0  0
  3  4  1  0  0  0  0
  3  5  1  0  0  0  0
  3  6  1  0  0  0  0
 33 36  1  0  0  0  0
 33 37  1  0  0  0  0
 33 38  1  0  0  0  0
 11 14  1  0  0  0  0
 11 15  1  0  0  0  0
 11 16  1  0  0  0  0
 40 42  1  0  0  0  0
 40 43  1  0  0  0  0
 40 44  1  0  0  0  0
 21 27  1  0  0  0  0
 21 28  1  0  0  0  0
 30 35  1  0  0  0  0
  8 13  1  0  0  0  0
 18 26  1  0  0  0  0
 39 41  1  0  0  0  0
  7 12  1  0  0  0  0
 29 34  1  0  0  0  0
 17 25  1  0  0  0  0
M  CHG  1  23  -1
M  END
$$$$

  -OEChem-05262214473D

 44 43  0     1  0  0  0  0  0999 V2000
   -4.0256   -1.8030   -2.1581 C   0  0  0  0  0  0  0  0  0  0  0  0
   -3.7513   -2.6782   -2.9709 O   0  0  0  0  0  0  0  0  0  0  0  0
   -5.3491   -1.1169   -2.2339 C   0  0  0  0  0  0  0  0  0  0  0  0
   -5.3223   -0.2211   -2.8750 H   0  0  0  0  0  0  0  0  0  0  0  0
   -6.1322   -1.7605   -2.6658 H   0  0  0  0  0  0  0  0  0  0  0  0
   -5.7568   -0.7715   -1.2704 H   0  0  0  0  0  0  0  0  0  0  0  0
   -3.2124   -1.3578   -1.1289 N   0  0  0  0  0  0  0  0  0  0  0  0
   -1.8971   -1.8843   -0.8752 C   0  0  2  0  0  0  0  0  0  0  0  0
   -1.2676   -1.0599    0.2399 C   0  0  0  0  0  0  0  0  0  0  0  0
   -1.6270    0.0833    0.5138 O   0  0  0  0  0  0  0  0  0  0  0  0
   -1.0364   -1.8506   -2.1285 C   0  0  0  0  0  0  0  0  0  0  0  0
   -3.5631   -0.6202   -0.5206 H   0  0  0  0  0  0  0  0  0  0  0  0
   -2.0301   -2.9174   -0.5360 H   0  0  0  0  0  0  0  0  0  0  0  0
   -0.8921   -0.8236   -2.4833 H   0  0  0  0  0  0  0  0  0  0  0  0
   -0.0457   -2.2777   -1.9410 H   0  0  0  0  0  0  0  0  0  0  0  0
   -1.5052   -2.4193   -2.9387 H   0  0  0  0  0  0  0  0  0  0  0  0
   -0.2267   -1.7335    0.8672 N   0  0  0  0  0  0  0  0  0  0  0  0
    0.5363   -1.1590    1.9465 C   0  0  2  0  0  0  0  0  0  0  0  0
    0.8732    0.2730    1.5471 C   0  0  0  0  0  0  0  0  0  0  0  0
    1.2437    0.5843    0.4170 O   0  0  0  0  0  0  0  0  0  0  0  0
    1.8110   -1.9520    2.2256 C   0  0  0  0  0  0  0  0  0  0  0  0
    1.6258   -3.3502    2.8289 C   0  0  0  0  0  0  0  0  0  0  0  0
    0.5850   -3.4729    3.5377 O   0  5  0  0  0  0  0  0  0  0  0  0
    2.5174   -4.2024    2.5648 O   0  0  0  0  0  0  0  0  0  0  0  0
   -0.0113   -2.6869    0.5854 H   0  0  0  0  0  0  0  0  0  0  0  0
   -0.1206   -1.1434    2.8235 H   0  0  0  0  0  0  0  0  0  0  0  0
    2.4631   -1.3781    2.8982 H   0  0  0  0  0  0  0  0  0  0  0  0
    2.3723   -2.0897    1.2922 H   0  0  0  0  0  0  0  0  0  0  0  0
    0.6612    1.1681    2.5864 N   0  0  0  0  0  0  0  0  0  0  0  0
    0.8775    2.5898    2.4505 C   0  0  2  0  0  0  0  0  0  0  0  0
    1.3103    3.1314    3.8065 C   0  0  0  0  0  0  0  0  0  0  0  0
    1.0625    2.5609    4.8668 O   0  0  0  0  0  0  0  0  0  0  0  0
   -0.3764    3.2956    1.9583 C   0  0  0  0  0  0  0  0  0  0  0  0
    0.3072    0.8266    3.4751 H   0  0  0  0  0  0  0  0  0  0  0  0
    1.6913    2.7183    1.7286 H   0  0  0  0  0  0  0  0  0  0  0  0
   -1.2028    3.1780    2.6686 H   0  0  0  0  0  0  0  0  0  0  0  0
   -0.2024    4.3689    1.8285 H   0  0  0  0  0  0  0  0  0  0  0  0
   -0.7032    2.8845    0.9971 H   0  0  0  0  0  0  0  0  0  0  0  0
    1.9680    4.3485    3.6966 N   0  0  0  0  0  0  0  0  0  0  0  0
    2.4659    5.0720    4.8432 C   0  0  0  0  0  0  0  0  0  0  0  0
    2.1464    4.7387    2.7759 H   0  0  0  0  0  0  0  0  0  0  0  0
    1.7027    5.7857    5.1868 H   0  0  0  0  0  0  0  0  0  0  0  0
    2.6956    4.3631    5.6524 H   0  0  0  0  0  0  0  0  0  0  0  0
    3.3791    5.6180    4.5639 H   0  0  0  0  0  0  0  0  0  0  0  0
  1  3  1  0  0  0  0
  1  7  1  0  0  0  0
  1  2  2  0  0  0  0
 30 31  1  0  0  0  0
 31 39  1  0  0  0  0
 31 32  2  0  0  0  0
  8  9  1  0  0  0  0
  9 17  1  0  0  0  0
  9 10  2  0  0  0  0
 18 19  1  0  0  0  0
 19 29  1  0  0  0  0
 19 20  2  0  0  0  0
 21 22  1  0  0  0  0
 22 23  1  0  0  0  0
 22 24  2  0  0  0  0
 30 33  1  0  0  0  0
  8 11  1  0  0  0  0
 39 40  1  0  0  0  0
 18 21  1  0  0  0  0
 29 30  1  0  0  0  0
  7  8  1  0  0  0  0
 17 18  1  0  0  0  0
  3  4  1  0  0  0  0
  3  5  1  0  0  0  0
  3  6  1  0  0  0  0
 33 36  1  0  0  0  0
 33 37  1  0  0  0  0
 33 38  1  0  0  0  0
 11 14  1  0  0  0  0
 11 15  1  0  0  0  0
 11 16  1  0  0  0  0
 40 42  1  0  0  0  0
 40 43  1  0  0  0  0
 40 44  1  0  0  0  0
 21 27  1  0  0  0  0
 21 28  1  0  0  0  0
 30 35  1  0  0  0  0
  8 13  1  0  0  0  0
 18 26  1  0  0  0  0
 39 41  1  0  0  0  0
  7 12  1  0  0  0  0
 29 34  1  0  0  0  0
 17 25  1  0  0  0  0
M  CHG  1  23  -1
M  END
$$$$

  -OEChem-05262214473D

 44 43  0     1  0  0  0  0  0999 V2000
   -4.0256   -1.8030   -2.1581 C   0  0  0  0  0  0  0  0  0  0  0  0
   -3.7513   -2.6782   -2.9709 O   0  0  0  0  0  0  0  0  0  0  0  0
   -5.3491   -1.1169   -2.2339 C   0  0  0  0  0  0  0  0  0  0  0  0
   -5.3223   -0.2211   -2.8750 H   0  0  0  0  0  0  0  0  0  0  0  0
   -6.1322   -1.7605   -2.6658 H   0  0  0  0  0  0  0  0  0  0  0  0
   -5.7568   -0.7715   -1.2704 H   0  0  0  0  0  0  0  0  0  0  0  0
   -3.2124   -1.3578   -1.1289 N   0  0  0  0  0  0  0  0  0  0  0  0
   -1.8971   -1.8843   -0.8752 C   0  0  2  0  0  0  0  0  0  0  0  0
   -1.2676   -1.0599    0.2399 C   0  0  0  0  0  0  0  0  0  0  0  0
   -1.6270    0.0833    0.5138 O   0  0  0  0  0  0  0  0  0  0  0  0
   -1.0364   -1.8506   -2.1285 C   0  0  0  0  0  0  0  0  0  0  0  0
   -3.5631   -0.6202   -0.5206 H   0  0  0  0  0  0  0  0  0  0  0  0
   -2.0301   -2.9174   -0.5360 H   0  0  0  0  0  0  0  0  0  0  0  0
   -0.8921   -0.8236   -2.4833 H   0  0  0  0  0  0  0  0  0  0  0  0
   -0.0457   -2.2777   -1.9410 H   0  0  0  0  0  0  0  0  0  0  0  0
   -1.5052   -2.4193   -2.9387 H   0  0  0  0  0  0  0  0  0  0  0  0
   -0.2267   -1.7335    0.8672 N   0  0  0  0  0  0  0  0  0  0  0  0
    0.5363   -1.1590    1.9465 C   0  0  2  0  0  0  0  0  0  0  0  0
    0.8732    0.2730    1.5471 C   0  0  0  0  0  0  0  0  0  0  0  0
    0.9824    0.6347    0.3773 O   0  0  0  0  0  0  0  0  0  0  0  0
    1.8110   -1.9520    2.2256 C   0  0  0  0  0  0  0  0  0  0  0  0
    1.6258   -3.3502    2.8289 C   0  0  0  0  0  0  0  0  0  0  0  0
    0.5850   -3.4729    3.5377 O   0  5  0  0  0  0  0  0  0  0  0  0
    2.5174   -4.2024    2.5648 O   0  0  0  0  0  0  0  0  0  0  0  0
   -0.0113   -2.6869    0.5854 H   0  0  0  0  0  0  0  0  0  0  0  0
   -0.1206   -1.1434    2.8235 H   0  0  0  0  0  0  0  0  0  0  0  0
    2.4631   -1.3781    2.8982 H   0  0  0  0  0  0  0  0  0  0  0  0
    2.3723   -2.0897    1.2922 H   0  0  0  0  0  0  0  0  0  0  0  0
    0.9857    1.1092    2.6491 N   0  0  0  0  0  0  0  0  0  0  0  0
    1.2687    2.5210    2.5339 C   0  0  2  0  0  0  0  0  0  0  0  0
    2.0550    2.9452    3.7672 C   0  0  0  0  0  0  0  0  0  0  0  0
    2.0283    2.3225    4.8268 O   0  0  0  0  0  0  0  0  0  0  0  0
   -0.0104    3.3325    2.3990 C   0  0  0  0  0  0  0  0  0  0  0  0
    0.8319    0.7323    3.5797 H   0  0  0  0  0  0  0  0  0  0  0  0
    1.8917    2.6469    1.6417 H   0  0  0  0  0  0  0  0  0  0  0  0
   -0.6475    3.2189    3.2837 H   0  0  0  0  0  0  0  0  0  0  0  0
    0.2070    4.3994    2.2832 H   0  0  0  0  0  0  0  0  0  0  0  0
   -0.5892    3.0058    1.5284 H   0  0  0  0  0  0  0  0  0  0  0  0
    2.7561    4.1247    3.5590 N   0  0  0  0  0  0  0  0  0  0  0  0
    3.5686    4.7398    4.5825 C   0  0  0  0  0  0  0  0  0  0  0  0
    2.7360    4.5629    2.6428 H   0  0  0  0  0  0  0  0  0  0  0  0
    2.9664    5.4745    5.1371 H   0  0  0  0  0  0  0  0  0  0  0  0
    3.9329    3.9668    5.2751 H   0  0  0  0  0  0  0  0  0  0  0  0
    4.4257    5.2465    4.1148 H   0  0  0  0  0  0  0  0  0  0  0  0
  1  3  1  0  0  0  0
  1  7  1  0  0  0  0
  1  2  2  0  0  0  0
 30 31  1  0  0  0  0
 31 39  1  0  0  0  0
 31 32  2  0  0  0  0
  8  9  1  0  0  0  0
  9 17  1  0  0  0  0
  9 10  2  0  0  0  0
 18 19  1  0  0  0  0
 19 29  1  0  0  0  0
 19 20  2  0  0  0  0
 21 22  1  0  0  0  0
 22 23  1  0  0  0  0
 22 24  2  0  0  0  0
 30 33  1  0  0  0  0
  8 11  1  0  0  0  0
 39 40  1  0  0  0  0
 18 21  1  0  0  0  0
 29 30  1  0  0  0  0
  7  8  1  0  0  0  0
 17 18  1  0  0  0  0
  3  4  1  0  0  0  0
  3  5  1  0  0  0  0
  3  6  1  0  0  0  0
 33 36  1  0  0  0  0
 33 37  1  0  0  0  0
 33 38  1  0  0  0  0
 11 14  1  0  0  0  0
 11 15  1  0  0  0  0
 11 16  1  0  0  0  0
 40 42  1  0  0  0  0
 40 43  1  0  0  0  0
 40 44  1  0  0  0  0
 21 27  1  0  0  0  0
 21 28  1  0  0  0  0
 30 35  1  0  0  0  0
  8 13  1  0  0  0  0
 18 26  1  0  0  0  0
 39 41  1  0  0  0  0
  7 12  1  0  0  0  0
 29 34  1  0  0  0  0
 17 25  1  0  0  0  0
M  CHG  1  23  -1
M  END
$$$$

  -OEChem-05262214473D

 44 43  0     1  0  0  0  0  0999 V2000
   -4.0256   -1.8030   -2.1581 C   0  0  0  0  0  0  0  0  0  0  0  0
   -3.7513   -2.6782   -2.9709 O   0  0  0  0  0  0  0  0  0  0  0  0
   -5.3491   -1.1169   -2.2339 C   0  0  0  0  0  0  0  0  0  0  0  0
   -5.3223   -0.2211   -2.8750 H   0  0  0  0  0  0  0  0  0  0  0  0
   -6.1322   -1.7605   -2.6658 H   0  0  0  0  0  0  0  0  0  0  0  0
   -5.7568   -0.7715   -1.2704 H   0  0  0  0  0  0  0  0  0  0  0  0
   -3.2124   -1.3578   -1.1289 N   0  0  0  0  0  0  0  0  0  0  0  0
   -1.8971   -1.8843   -0.8752 C   0  0  2  0  0  0  0  0  0  0  0  0
   -1.2676   -1.0599    0.2399 C   0  0  0  0  0  0  0  0  0  0  0  0
   -1.6270    0.0833    0.5138 O   0  0  0  0  0  0  0  0  0  0  0  0
   -1.0364   -1.8506   -2.1285 C   0  0  0  0  0  0  0  0  0  0  0  0
   -3.5631   -0.6202   -0.5206 H   0  0  0  0  0  0  0  0  0  0  0  0
   -2.0301   -2.9174   -0.5360 H   0  0  0  0  0  0  0  0  0  0  0  0
   -0.8921   -0.8236   -2.4833 H   0  0  0  0  0  0  0  0  0  0  0  0
   -0.0457   -2.2777   -1.9410 H   0  0  0  0  0  0  0  0  0  0  0  0
   -1.5052   -2.4193   -2.9387 H   0  0  0  0  0  0  0  0  0  0  0  0
   -0.2267   -1.7335    0.8672 N   0  0  0  0  0  0  0  0  0  0  0  0
    0.5363   -1.1590    1.9465 C   0  0  2  0  0  0  0  0  0  0  0  0
    0.8732    0.2730    1.5471 C   0  0  0  0  0  0  0  0  0  0  0  0
    0.7238    0.7033    0.4053 O   0  0  0  0  0  0  0  0  0  0  0  0
    1.8110   -1.9520    2.2256 C   0  0  0  0  0  0  0  0  0  0  0  0
    1.6258   -3.3502    2.8289 C   0  0  0  0  0  0  0  0  0  0  0  0
    0.5850   -3.4729    3.5377 O   0  5  0  0  0  0  0  0  0  0  0  0
    2.5174   -4.2024    2.5648 O   0  0  0  0  0  0  0  0  0  0  0  0
   -0.0113   -2.6869    0.5854 H   0  0  0  0  0  0  0  0  0  0  0  0
   -0.1206   -1.1434    2.8235 H   0  0  0  0  0  0  0  0  0  0  0  0
    2.4631   -1.3781    2.8982 H   0  0  0  0  0  0  0  0  0  0  0  0
    2.3723   -2.0897    1.2922 H   0  0  0  0  0  0  0  0  0  0  0  0
    1.3105    1.0268    2.6273 N   0  0  0  0  0  0  0  0  0  0  0  0
    1.6622    2.4232    2.5153 C   0  0  2  0  0  0  0  0  0  0  0  0
    2.7523    2.7171    3.5375 C   0  0  0  0  0  0  0  0  0  0  0  0
    2.9353    2.0290    4.5396 O   0  0  0  0  0  0  0  0  0  0  0  0
    0.4529    3.3180    2.7379 C   0  0  0  0  0  0  0  0  0  0  0  0
    1.3579    0.5996    3.5477 H   0  0  0  0  0  0  0  0  0  0  0  0
    2.0593    2.5693    1.5049 H   0  0  0  0  0  0  0  0  0  0  0  0
    0.0412    3.1855    3.7451 H   0  0  0  0  0  0  0  0  0  0  0  0
    0.7151    4.3751    2.6245 H   0  0  0  0  0  0  0  0  0  0  0  0
   -0.3417    3.0849    2.0208 H   0  0  0  0  0  0  0  0  0  0  0  0
    3.4688    3.8630    3.2216 N   0  0  0  0  0  0  0  0  0  0  0  0
    4.5478    4.3591    4.0435 C   0  0  0  0  0  0  0  0  0  0  0  0
    3.2611    4.3607    2.3609 H   0  0  0  0  0  0  0  0  0  0  0  0
    4.1539    5.0911    4.7640 H   0  0  0  0  0  0  0  0  0  0  0  0
    5.0095    3.5217    4.5871 H   0  0  0  0  0  0  0  0  0  0  0  0
    5.3022    4.8424    3.4054 H   0  0  0  0  0  0  0  0  0  0  0  0
  1  3  1  0  0  0  0
  1  7  1  0  0  0  0
  1  2  2  0  0  0  0
 30 31  1  0  0  0  0
 31 39  1  0  0  0  0
 31 32  2  0  0  0  0
  8  9  1  0  0  0  0
  9 17  1  0  0  0  0
  9 10  2  0  0  0  0
 18 19  1  0  0  0  0
 19 29  1  0  0  0  0
 19 20  2  0  0  0  0
 21 22  1  0  0  0  0
 22 23  1  0  0  0  0
 22 24  2  0  0  0  0
 30 33  1  0  0  0  0
  8 11  1  0  0  0  0
 39 40  1  0  0  0  0
 18 21  1  0  0  0  0
 29 30  1  0  0  0  0
  7  8  1  0  0  0  0
 17 18  1  0  0  0  0
  3  4  1  0  0  0  0
  3  5  1  0  0  0  0
  3  6  1  0  0  0  0
 33 36  1  0  0  0  0
 33 37  1  0  0  0  0
 33 38  1  0  0  0  0
 11 14  1  0  0  0  0
 11 15  1  0  0  0  0
 11 16  1  0  0  0  0
 40 42  1  0  0  0  0
 40 43  1  0  0  0  0
 40 44  1  0  0  0  0
 21 27  1  0  0  0  0
 21 28  1  0  0  0  0
 30 35  1  0  0  0  0
  8 13  1  0  0  0  0
 18 26  1  0  0  0  0
 39 41  1  0  0  0  0
  7 12  1  0  0  0  0
 29 34  1  0  0  0  0
 17 25  1  0  0  0  0
M  CHG  1  23  -1
M  END
$$$$

  -OEChem-05262214473D

 44 43  0     1  0  0  0  0  0999 V2000
   -4.0256   -1.8030   -2.1581 C   0  0  0  0  0  0  0  0  0  0  0  0
   -3.7513   -2.6782   -2.9709 O   0  0  0  0  0  0  0  0  0  0  0  0
   -5.3491   -1.1169   -2.2339 C   0  0  0  0  0  0  0  0  0  0  0  0
   -5.3223   -0.2211   -2.8750 H   0  0  0  0  0  0  0  0  0  0  0  0
   -6.1322   -1.7605   -2.6658 H   0  0  0  0  0  0  0  0  0  0  0  0
   -5.7568   -0.7715   -1.2704 H   0  0  0  0  0  0  0  0  0  0  0  0
   -3.2124   -1.3578   -1.1289 N   0  0  0  0  0  0  0  0  0  0  0  0
   -1.8971   -1.8843   -0.8752 C   0  0  2  0  0  0  0  0  0  0  0  0
   -1.2676   -1.0599    0.2399 C   0  0  0  0  0  0  0  0  0  0  0  0
   -1.6270    0.0833    0.5138 O   0  0  0  0  0  0  0  0  0  0  0  0
   -1.0364   -1.8506   -2.1285 C   0  0  0  0  0  0  0  0  0  0  0  0
   -3.5631   -0.6202   -0.5206 H   0  0  0  0  0  0  0  0  0  0  0  0
   -2.0301   -2.9174   -0.5360 H   0  0  0  0  0  0  0  0  0  0  0  0
   -0.8921   -0.8236   -2.4833 H   0  0  0  0  0  0  0  0  0  0  0  0
   -0.0457   -2.2777   -1.9410 H   0  0  0  0  0  0  0  0  0  0  0  0
   -1.5052   -2.4193   -2.9387 H   0  0  0  0  0  0  0  0  0  0  0  0
   -0.2267   -1.7335    0.8672 N   0  0  0  0  0  0  0  0  0  0  0  0
    0.5363   -1.1590    1.9465 C   0  0  2  0  0  0  0  0  0  0  0  0
    0.5511    0.3504    1.7336 C   0  0  0  0  0  0  0  0  0  0  0  0
   -0.0450    0.9032    0.8115 O   0  0  0  0  0  0  0  0  0  0  0  0
    1.9603   -1.7084    1.9904 C   0  0  0  0  0  0  0  0  0  0  0  0
    2.1110   -3.1803    2.3955 C   0  0  0  0  0  0  0  0  0  0  0  0
    1.2013   -3.5986    3.1690 O   0  5  0  0  0  0  0  0  0  0  0  0
    3.1090   -3.7953    1.9300 O   0  0  0  0  0  0  0  0  0  0  0  0
   -0.0113   -2.6869    0.5854 H   0  0  0  0  0  0  0  0  0  0  0  0
   -0.0051   -1.3871    2.8716 H   0  0  0  0  0  0  0  0  0  0  0  0
    2.5677   -1.1052    2.6790 H   0  0  0  0  0  0  0  0  0  0  0  0
    2.4246   -1.6110    1.0004 H   0  0  0  0  0  0  0  0  0  0  0  0
    1.2649    1.0100    2.7244 N   0  0  0  0  0  0  0  0  0  0  0  0
    1.4008    2.4474    2.7650 C   0  0  2  0  0  0  0  0  0  0  0  0
    2.7479    2.7748    3.3957 C   0  0  0  0  0  0  0  0  0  0  0  0
    3.3524    1.9952    4.1290 O   0  0  0  0  0  0  0  0  0  0  0  0
    0.2646    3.0888    3.5462 C   0  0  0  0  0  0  0  0  0  0  0  0
    1.6863    0.4738    3.4772 H   0  0  0  0  0  0  0  0  0  0  0  0
    1.3889    2.7957    1.7264 H   0  0  0  0  0  0  0  0  0  0  0  0
    0.2604    2.7518    4.5893 H   0  0  0  0  0  0  0  0  0  0  0  0
    0.3535    4.1802    3.5519 H   0  0  0  0  0  0  0  0  0  0  0  0
   -0.7051    2.8279    3.1088 H   0  0  0  0  0  0  0  0  0  0  0  0
    3.1751    4.0565    3.0781 N   0  0  0  0  0  0  0  0  0  0  0  0
    4.4180    4.6072    3.5658 C   0  0  0  0  0  0  0  0  0  0  0  0
    2.6191    4.6267    2.4476 H   0  0  0  0  0  0  0  0  0  0  0  0
    4.2344    5.1568    4.5008 H   0  0  0  0  0  0  0  0  0  0  0  0
    5.1315    3.7915    3.7542 H   0  0  0  0  0  0  0  0  0  0  0  0
    4.8353    5.2929    2.8136 H   0  0  0  0  0  0  0  0  0  0  0  0
  1  3  1  0  0  0  0
  1  7  1  0  0  0  0
  1  2  2  0  0  0  0
 30 31  1  0  0  0  0
 31 39  1  0  0  0  0
 31 32  2  0  0  0  0
  8  9  1  0  0  0  0
  9 17  1  0  0  0  0
  9 10  2  0  0  0  0
 18 19  1  0  0  0  0
 19 29  1  0  0  0  0
 19 20  2  0  0  0  0
 21 22  1  0  0  0  0
 22 23  1  0  0  0  0
 22 24  2  0  0  0  0
 30 33  1  0  0  0  0
  8 11  1  0  0  0  0
 39 40  1  0  0  0  0
 18 21  1  0  0  0  0
 29 30  1  0  0  0  0
  7  8  1  0  0  0  0
 17 18  1  0  0  0  0
  3  4  1  0  0  0  0
  3  5  1  0  0  0  0
  3  6  1  0  0  0  0
 33 36  1  0  0  0  0
 33 37  1  0  0  0  0
 33 38  1  0  0  0  0
 11 14  1  0  0  0  0
 11 15  1  0  0  0  0
 11 16  1  0  0  0  0
 40 42  1  0  0  0  0
 40 43  1  0  0  0  0
 40 44  1  0  0  0  0
 21 27  1  0  0  0  0
 21 28  1  0  0  0  0
 30 35  1  0  0  0  0
  8 13  1  0  0  0  0
 18 26  1  0  0  0  0
 39 41  1  0  0  0  0
  7 12  1  0  0  0  0
 29 34  1  0  0  0  0
 17 25  1  0  0  0  0
M  CHG  1  23  -1
M  END
$$$$

  -OEChem-05262214473D

 44 43  0     1  0  0  0  0  0999 V2000
   -4.0256   -1.8030   -2.1581 C   0  0  0  0  0  0  0  0  0  0  0  0
   -3.7513   -2.6782   -2.9709 O   0  0  0  0  0  0  0  0  0  0  0  0
   -5.3491   -1.1169   -2.2339 C   0  0  0  0  0  0  0  0  0  0  0  0
   -5.3223   -0.2211   -2.8750 H   0  0  0  0  0  0  0  0  0  0  0  0
   -6.1322   -1.7605   -2.6658 H   0  0  0  0  0  0  0  0  0  0  0  0
   -5.7568   -0.7715   -1.2704 H   0  0  0  0  0  0  0  0  0  0  0  0
   -3.2124   -1.3578   -1.1289 N   0  0  0  0  0  0  0  0  0  0  0  0
   -1.8971   -1.8843   -0.8752 C   0  0  2  0  0  0  0  0  0  0  0  0
   -1.2676   -1.0599    0.2399 C   0  0  0  0  0  0  0  0  0  0  0  0
   -1.6270    0.0833    0.5138 O   0  0  0  0  0  0  0  0  0  0  0  0
   -1.0364   -1.8506   -2.1285 C   0  0  0  0  0  0  0  0  0  0  0  0
   -3.5631   -0.6202   -0.5206 H   0  0  0  0  0  0  0  0  0  0  0  0
   -2.0301   -2.9174   -0.5360 H   0  0  0  0  0  0  0  0  0  0  0  0
   -0.8921   -0.8236   -2.4833 H   0  0  0  0  0  0  0  0  0  0  0  0
   -0.0457   -2.2777   -1.9410 H   0  0  0  0  0  0  0  0  0  0  0  0
   -1.5052   -2.4193   -2.9387 H   0  0  0  0  0  0  0  0  0  0  0  0
   -0.2267   -1.7335    0.8672 N   0  0  0  0  0  0  0  0  0  0  0  0
    0.5363   -1.1590    1.9465 C   0  0  2  0  0  0  0  0  0  0  0  0
    0.5511    0.3504    1.7336 C   0  0  0  0  0  0  0  0  0  0  0  0
   -0.2408    0.9309    0.9939 O   0  0  0  0  0  0  0  0  0  0  0  0
    1.9603   -1.7084    1.9904 C   0  0  0  0  0  0  0  0  0  0  0  0
    2.1110   -3.1803    2.3955 C   0  0  0  0  0  0  0  0  0  0  0  0
    1.2013   -3.5986    3.1690 O   0  5  0  0  0  0  0  0  0  0  0  0
    3.1090   -3.7953    1.9300 O   0  0  0  0  0  0  0  0  0  0  0  0
   -0.0113   -2.6869    0.5854 H   0  0  0  0  0  0  0  0  0  0  0  0
   -0.0051   -1.3871    2.8716 H   0  0  0  0  0  0  0  0  0  0  0  0
    2.5677   -1.1052    2.6790 H   0  0  0  0  0  0  0  0  0  0  0  0
    2.4246   -1.6110    1.0004 H   0  0  0  0  0  0  0  0  0  0  0  0
    1.5185    0.9768    2.5069 N   0  0  0  0  0  0  0  0  0  0  0  0
    1.7126    2.4081    2.5081 C   0  0  2  0  0  0  0  0  0  0  0  0
    3.1873    2.6825    2.7717 C   0  0  0  0  0  0  0  0  0  0  0  0
    3.9307    1.8765    3.3274 O   0  0  0  0  0  0  0  0  0  0  0  0
    0.8387    3.0842    3.5531 C   0  0  0  0  0  0  0  0  0  0  0  0
    2.0989    0.4205    3.1277 H   0  0  0  0  0  0  0  0  0  0  0  0
    1.4476    2.7641    1.5066 H   0  0  0  0  0  0  0  0  0  0  0  0
    1.0895    2.7400    4.5631 H   0  0  0  0  0  0  0  0  0  0  0  0
    0.9658    4.1716    3.5333 H   0  0  0  0  0  0  0  0  0  0  0  0
   -0.2196    2.8613    3.3794 H   0  0  0  0  0  0  0  0  0  0  0  0
    3.5653    3.9504    2.3524 N   0  0  0  0  0  0  0  0  0  0  0  0
    4.9109    4.4527    2.5040 C   0  0  0  0  0  0  0  0  0  0  0  0
    2.8875    4.5446    1.8843 H   0  0  0  0  0  0  0  0  0  0  0  0
    4.9931    5.0017    3.4537 H   0  0  0  0  0  0  0  0  0  0  0  0
    5.6186    3.6106    2.5050 H   0  0  0  0  0  0  0  0  0  0  0  0
    5.1462    5.1283    1.6685 H   0  0  0  0  0  0  0  0  0  0  0  0
  1  3  1  0  0  0  0
  1  7  1  0  0  0  0
  1  2  2  0  0  0  0
 30 31  1  0  0  0  0
 31 39  1  0  0  0  0
 31 32  2  0  0  0  0
  8  9  1  0  0  0  0
  9 17  1  0  0  0  0
  9 10  2  0  0  0  0
 18 19  1  0  0  0  0
 19 29  1  0  0  0  0
 19 20  2  0  0  0  0
 21 22  1  0  0  0  0
 22 23  1  0  0  0  0
 22 24  2  0  0  0  0
 30 33  1  0  0  0  0
  8 11  1  0  0  0  0
 39 40  1  0  0  0  0
 18 21  1  0  0  0  0
 29 30  1  0  0  0  0
  7  8  1  0  0  0  0
 17 18  1  0  0  0  0
  3  4  1  0  0  0  0
  3  5  1  0  0  0  0
  3  6  1  0  0  0  0
 33 36  1  0  0  0  0
 33 37  1  0  0  0  0
 33 38  1  0  0  0  0
 11 14  1  0  0  0  0
 11 15  1  0  0  0  0
 11 16  1  0  0  0  0
 40 42  1  0  0  0  0
 40 43  1  0  0  0  0
 40 44  1  0  0  0  0
 21 27  1  0  0  0  0
 21 28  1  0  0  0  0
 30 35  1  0  0  0  0
  8 13  1  0  0  0  0
 18 26  1  0  0  0  0
 39 41  1  0  0  0  0
  7 12  1  0  0  0  0
 29 34  1  0  0  0  0
 17 25  1  0  0  0  0
M  CHG  1  23  -1
M  END
$$$$

  -OEChem-05262214473D

 44 43  0     1  0  0  0  0  0999 V2000
   -4.0256   -1.8030   -2.1581 C   0  0  0  0  0  0  0  0  0  0  0  0
   -3.7513   -2.6782   -2.9709 O   0  0  0  0  0  0  0  0  0  0  0  0
   -5.3491   -1.1169   -2.2339 C   0  0  0  0  0  0  0  0  0  0  0  0
   -5.3223   -0.2211   -2.8750 H   0  0  0  0  0  0  0  0  0  0  0  0
   -6.1322   -1.7605   -2.6658 H   0  0  0  0  0  0  0  0  0  0  0  0
   -5.7568   -0.7715   -1.2704 H   0  0  0  0  0  0  0  0  0  0  0  0
   -3.2124   -1.3578   -1.1289 N   0  0  0  0  0  0  0  0  0  0  0  0
   -1.8971   -1.8843   -0.8752 C   0  0  2  0  0  0  0  0  0  0  0  0
   -1.2676   -1.0599    0.2399 C   0  0  0  0  0  0  0  0  0  0  0  0
   -1.6270    0.0833    0.5138 O   0  0  0  0  0  0  0  0  0  0  0  0
   -1.0364   -1.8506   -2.1285 C   0  0  0  0  0  0  0  0  0  0  0  0
   -3.5631   -0.6202   -0.5206 H   0  0  0  0  0  0  0  0  0  0  0  0
   -2.0301   -2.9174   -0.5360 H   0  0  0  0  0  0  0  0  0  0  0  0
   -0.8921   -0.8236   -2.4833 H   0  0  0  0  0  0  0  0  0  0  0  0
   -0.0457   -2.2777   -1.9410 H   0  0  0  0  0  0  0  0  0  0  0  0
   -1.5052   -2.4193   -2.9387 H   0  0  0  0  0  0  0  0  0  0  0  0
   -0.2267   -1.7335    0.8672 N   0  0  0  0  0  0  0  0  0  0  0  0
    0.5363   -1.1590    1.9465 C   0  0  2  0  0  0  0  0  0  0  0  0
    0.5511    0.3504    1.7336 C   0  0  0  0  0  0  0  0  0  0  0  0
   -0.3822    0.9642    1.2203 O   0  0  0  0  0  0  0  0  0  0  0  0
    1.9603   -1.7084    1.9904 C   0  0  0  0  0  0  0  0  0  0  0  0
    2.1110   -3.1803    2.3955 C   0  0  0  0  0  0  0  0  0  0  0  0
    1.2013   -3.5986    3.1690 O   0  5  0  0  0  0  0  0  0  0  0  0
    3.1090   -3.7953    1.9300 O   0  0  0  0  0  0  0  0  0  0  0  0
   -0.0113   -2.6869    0.5854 H   0  0  0  0  0  0  0  0  0  0  0  0
   -0.0051   -1.3871    2.8716 H   0  0  0  0  0  0  0  0  0  0  0  0
    2.5677   -1.1052    2.6790 H   0  0  0  0  0  0  0  0  0  0  0  0
    2.4246   -1.6110    1.0004 H   0  0  0  0  0  0  0  0  0  0  0  0
    1.7065    0.9362    2.2317 N   0  0  0  0  0  0  0  0  0  0  0  0
    1.9465    2.3596    2.1800 C   0  0  2  0  0  0  0  0  0  0  0  0
    3.4485    2.5791    2.0562 C   0  0  0  0  0  0  0  0  0  0  0  0
    4.2795    1.7429    2.4045 O   0  0  0  0  0  0  0  0  0  0  0  0
    1.3947    3.0589    3.4126 C   0  0  0  0  0  0  0  0  0  0  0  0
    2.4059    0.3549    2.6842 H   0  0  0  0  0  0  0  0  0  0  0  0
    1.4469    2.7320    1.2790 H   0  0  0  0  0  0  0  0  0  0  0  0
    1.8833    2.6987    4.3253 H   0  0  0  0  0  0  0  0  0  0  0  0
    1.5521    4.1412    3.3585 H   0  0  0  0  0  0  0  0  0  0  0  0
    0.3199    2.8753    3.5164 H   0  0  0  0  0  0  0  0  0  0  0  0
    3.7525    3.8355    1.5512 N   0  0  0  0  0  0  0  0  0  0  0  0
    5.1094    4.2882    1.3517 C   0  0  0  0  0  0  0  0  0  0  0  0
    2.9995    4.4571    1.2712 H   0  0  0  0  0  0  0  0  0  0  0  0
    5.4521    4.8271    2.2474 H   0  0  0  0  0  0  0  0  0  0  0  0
    5.7625    3.4213    1.1732 H   0  0  0  0  0  0  0  0  0  0  0  0
    5.1472    4.9611    0.4823 H   0  0  0  0  0  0  0  0  0  0  0  0
  1  3  1  0  0  0  0
  1  7  1  0  0  0  0
  1  2  2  0  0  0  0
 30 31  1  0  0  0  0
 31 39  1  0  0  0  0
 31 32  2  0  0  0  0
  8  9  1  0  0  0  0
  9 17  1  0  0  0  0
  9 10  2  0  0  0  0
 18 19  1  0  0  0  0
 19 29  1  0  0  0  0
 19 20  2  0  0  0  0
 21 22  1  0  0  0  0
 22 23  1  0  0  0  0
 22 24  2  0  0  0  0
 30 33  1  0  0  0  0
  8 11  1  0  0  0  0
 39 40  1  0  0  0  0
 18 21  1  0  0  0  0
 29 30  1  0  0  0  0
  7  8  1  0  0  0  0
 17 18  1  0  0  0  0
  3  4  1  0  0  0  0
  3  5  1  0  0  0  0
  3  6  1  0  0  0  0
 33 36  1  0  0  0  0
 33 37  1  0  0  0  0
 33 38  1  0  0  0  0
 11 14  1  0  0  0  0
 11 15  1  0  0  0  0
 11 16  1  0  0  0  0
 40 42  1  0  0  0  0
 40 43  1  0  0  0  0
 40 44  1  0  0  0  0
 21 27  1  0  0  0  0
 21 28  1  0  0  0  0
 30 35  1  0  0  0  0
  8 13  1  0  0  0  0
 18 26  1  0  0  0  0
 39 41  1  0  0  0  0
  7 12  1  0  0  0  0
 29 34  1  0  0  0  0
 17 25  1  0  0  0  0
M  CHG  1  23  -1
M  END
$$$$

  -OEChem-05262214473D

 44 43  0     1  0  0  0  0  0999 V2000
   -4.0256   -1.8030   -2.1581 C   0  0  0  0  0  0  0  0  0  0  0  0
   -3.7513   -2.6782   -2.9709 O   0  0  0  0  0  0  0  0  0  0  0  0
   -5.3491   -1.1169   -2.2339 C   0  0  0  0  0  0  0  0  0  0  0  0
   -5.3223   -0.2211   -2.8750 H   0  0  0  0  0  0  0  0  0  0  0  0
   -6.1322   -1.7605   -2.6658 H   0  0  0  0  0  0  0  0  0  0  0  0
   -5.7568   -0.7715   -1.2704 H   0  0  0  0  0  0  0  0  0  0  0  0
   -3.2124   -1.3578   -1.1289 N   0  0  0  0  0  0  0  0  0  0  0  0
   -1.8971   -1.8843   -0.8752 C   0  0  2  0  0  0  0  0  0  0  0  0
   -1.2676   -1.0599    0.2399 C   0  0  0  0  0  0  0  0  0  0  0  0
   -1.6270    0.0833    0.5138 O   0  0  0  0  0  0  0  0  0  0  0  0
   -1.0364   -1.8506   -2.1285 C   0  0  0  0  0  0  0  0  0  0  0  0
   -3.5631   -0.6202   -0.5206 H   0  0  0  0  0  0  0  0  0  0  0  0
   -2.0301   -2.9174   -0.5360 H   0  0  0  0  0  0  0  0  0  0  0  0
   -0.8921   -0.8236   -2.4833 H   0  0  0  0  0  0  0  0  0  0  0  0
   -0.0457   -2.2777   -1.9410 H   0  0  0  0  0  0  0  0  0  0  0  0
   -1.5052   -2.4193   -2.9387 H   0  0  0  0  0  0  0  0  0  0  0  0
   -0.2267   -1.7335    0.8672 N   0  0  0  0  0  0  0  0  0  0  0  0
    0.5363   -1.1590    1.9465 C   0  0  2  0  0  0  0  0  0  0  0  0
    0.5511    0.3504    1.7336 C   0  0  0  0  0  0  0  0  0  0  0  0
   -0.4596    1.0009    1.4753 O   0  0  0  0  0  0  0  0  0  0  0  0
    1.9603   -1.7084    1.9904 C   0  0  0  0  0  0  0  0  0  0  0  0
    2.1110   -3.1803    2.3955 C   0  0  0  0  0  0  0  0  0  0  0  0
    1.2013   -3.5986    3.1690 O   0  5  0  0  0  0  0  0  0  0  0  0
    3.1090   -3.7953    1.9300 O   0  0  0  0  0  0  0  0  0  0  0  0
   -0.0113   -2.6869    0.5854 H   0  0  0  0  0  0  0  0  0  0  0  0
   -0.0051   -1.3871    2.8716 H   0  0  0  0  0  0  0  0  0  0  0  0
    2.5677   -1.1052    2.6790 H   0  0  0  0  0  0  0  0  0  0  0  0
    2.4246   -1.6110    1.0004 H   0  0  0  0  0  0  0  0  0  0  0  0
    1.8161    0.8908    1.9176 N   0  0  0  0  0  0  0  0  0  0  0  0
    2.0866    2.3050    1.8030 C   0  0  2  0  0  0  0  0  0  0  0  0
    3.5137    2.4715    1.2979 C   0  0  0  0  0  0  0  0  0  0  0  0
    4.3752    1.6036    1.4233 O   0  0  0  0  0  0  0  0  0  0  0  0
    1.8950    3.0148    3.1342 C   0  0  0  0  0  0  0  0  0  0  0  0
    2.5864    0.2816    2.1770 H   0  0  0  0  0  0  0  0  0  0  0  0
    1.3868    2.7016    1.0593 H   0  0  0  0  0  0  0  0  0  0  0  0
    2.5876    2.6307    3.8920 H   0  0  0  0  0  0  0  0  0  0  0  0
    2.0726    4.0911    3.0393 H   0  0  0  0  0  0  0  0  0  0  0  0
    0.8766    2.8691    3.5105 H   0  0  0  0  0  0  0  0  0  0  0  0
    3.7238    3.7199    0.7291 N   0  0  0  0  0  0  0  0  0  0  0  0
    4.9998    4.1251    0.1874 C   0  0  0  0  0  0  0  0  0  0  0  0
    2.9473    4.3700    0.6500 H   0  0  0  0  0  0  0  0  0  0  0  0
    5.5800    4.6449    0.9641 H   0  0  0  0  0  0  0  0  0  0  0  0
    5.5533    3.2367   -0.1507 H   0  0  0  0  0  0  0  0  0  0  0  0
    4.8382    4.8024   -0.6641 H   0  0  0  0  0  0  0  0  0  0  0  0
  1  3  1  0  0  0  0
  1  7  1  0  0  0  0
  1  2  2  0  0  0  0
 30 31  1  0  0  0  0
 31 39  1  0  0  0  0
 31 32  2  0  0  0  0
  8  9  1  0  0  0  0
  9 17  1  0  0  0  0
  9 10  2  0  0  0  0
 18 19  1  0  0  0  0
 19 29  1  0  0  0  0
 19 20  2  0  0  0  0
 21 22  1  0  0  0  0
 22 23  1  0  0  0  0
 22 24  2  0  0  0  0
 30 33  1  0  0  0  0
  8 11  1  0  0  0  0
 39 40  1  0  0  0  0
 18 21  1  0  0  0  0
 29 30  1  0  0  0  0
  7  8  1  0  0  0  0
 17 18  1  0  0  0  0
  3  4  1  0  0  0  0
  3  5  1  0  0  0  0
  3  6  1  0  0  0  0
 33 36  1  0  0  0  0
 33 37  1  0  0  0  0
 33 38  1  0  0  0  0
 11 14  1  0  0  0  0
 11 15  1  0  0  0  0
 11 16  1  0  0  0  0
 40 42  1  0  0  0  0
 40 43  1  0  0  0  0
 40 44  1  0  0  0  0
 21 27  1  0  0  0  0
 21 28  1  0  0  0  0
 30 35  1  0  0  0  0
  8 13  1  0  0  0  0
 18 26  1  0  0  0  0
 39 41  1  0  0  0  0
  7 12  1  0  0  0  0
 29 34  1  0  0  0  0
 17 25  1  0  0  0  0
M  CHG  1  23  -1
M  END
$$$$

  -OEChem-05262214473D

 44 43  0     1  0  0  0  0  0999 V2000
   -4.0256   -1.8030   -2.1581 C   0  0  0  0  0  0  0  0  0  0  0  0
   -3.7513   -2.6782   -2.9709 O   0  0  0  0  0  0  0  0  0  0  0  0
   -5.3491   -1.1169   -2.2339 C   0  0  0  0  0  0  0  0  0  0  0  0
   -5.3223   -0.2211   -2.8750 H   0  0  0  0  0  0  0  0  0  0  0  0
   -6.1322   -1.7605   -2.6658 H   0  0  0  0  0  0  0  0  0  0  0  0
   -5.7568   -0.7715   -1.2704 H   0  0  0  0  0  0  0  0  0  0  0  0
   -3.2124   -1.3578   -1.1289 N   0  0  0  0  0  0  0  0  0  0  0  0
   -1.8971   -1.8843   -0.8752 C   0  0  2  0  0  0  0  0  0  0  0  0
   -1.2676   -1.0599    0.2399 C   0  0  0  0  0  0  0  0  0  0  0  0
   -1.6270    0.0833    0.5138 O   0  0  0  0  0  0  0  0  0  0  0  0
   -1.0364   -1.8506   -2.1285 C   0  0  0  0  0  0  0  0  0  0  0  0
   -3.5631   -0.6202   -0.5206 H   0  0  0  0  0  0  0  0  0  0  0  0
   -2.0301   -2.9174   -0.5360 H   0  0  0  0  0  0  0  0  0  0  0  0
   -0.8921   -0.8236   -2.4833 H   0  0  0  0  0  0  0  0  0  0  0  0
   -0.0457   -2.2777   -1.9410 H   0  0  0  0  0  0  0  0  0  0  0  0
   -1.5052   -2.4193   -2.9387 H   0  0  0  0  0  0  0  0  0  0  0  0
   -0.2267   -1.7335    0.8672 N   0  0  0  0  0  0  0  0  0  0  0  0
    0.5363   -1.1590    1.9465 C   0  0  2  0  0  0  0  0  0  0  0  0
    0.5511    0.3504    1.7336 C   0  0  0  0  0  0  0  0  0  0  0  0
   -0.4676    1.0385    1.7416 O   0  0  0  0  0  0  0  0  0  0  0  0
    1.9603   -1.7084    1.9904 C   0  0  0  0  0  0  0  0  0  0  0  0
    2.1110   -3.1803    2.3955 C   0  0  0  0  0  0  0  0  0  0  0  0
    1.2013   -3.5986    3.1690 O   0  5  0  0  0  0  0  0  0  0  0  0
    3.1090   -3.7953    1.9300 O   0  0  0  0  0  0  0  0  0  0  0  0
   -0.0113   -2.6869    0.5854 H   0  0  0  0  0  0  0  0  0  0  0  0
   -0.0051   -1.3871    2.8716 H   0  0  0  0  0  0  0  0  0  0  0  0
    2.5677   -1.1052    2.6790 H   0  0  0  0  0  0  0  0  0  0  0  0
    2.4246   -1.6110    1.0004 H   0  0  0  0  0  0  0  0  0  0  0  0
    1.8399    0.8438    1.5860 N   0  0  0  0  0  0  0  0  0  0  0  0
    2.1233    2.2482    1.4028 C   0  0  2  0  0  0  0  0  0  0  0  0
    3.3785    2.3671    0.5484 C   0  0  0  0  0  0  0  0  0  0  0  0
    4.2111    1.4680    0.4507 O   0  0  0  0  0  0  0  0  0  0  0  0
    2.3052    2.9547    2.7371 C   0  0  0  0  0  0  0  0  0  0  0  0
    2.6282    0.2056    1.6406 H   0  0  0  0  0  0  0  0  0  0  0  0
    1.2713    2.6750    0.8625 H   0  0  0  0  0  0  0  0  0  0  0  0
    3.1544    2.5407    3.2929 H   0  0  0  0  0  0  0  0  0  0  0  0
    2.4917    4.0247    2.5974 H   0  0  0  0  0  0  0  0  0  0  0  0
    1.4127    2.8429    3.3621 H   0  0  0  0  0  0  0  0  0  0  0  0
    3.4811    3.6113   -0.0580 N   0  0  0  0  0  0  0  0  0  0  0  0
    4.5897    3.9744   -0.9095 C   0  0  0  0  0  0  0  0  0  0  0  0
    2.7346    4.2893    0.0631 H   0  0  0  0  0  0  0  0  0  0  0  0
    5.3681    4.4674   -0.3087 H   0  0  0  0  0  0  0  0  0  0  0  0
    5.0054    3.0692   -1.3762 H   0  0  0  0  0  0  0  0  0  0  0  0
    4.2401    4.6632   -1.6927 H   0  0  0  0  0  0  0  0  0  0  0  0
  1  3  1  0  0  0  0
  1  7  1  0  0  0  0
  1  2  2  0  0  0  0
 30 31  1  0  0  0  0
 31 39  1  0  0  0  0
 31 32  2  0  0  0  0
  8  9  1  0  0  0  0
  9 17  1  0  0  0  0
  9 10  2  0  0  0  0
 18 19  1  0  0  0  0
 19 29  1  0  0  0  0
 19 20  2  0  0  0  0
 21 22  1  0  0  0  0
 22 23  1  0  0  0  0
 22 24  2  0  0  0  0
 30 33  1  0  0  0  0
  8 11  1  0  0  0  0
 39 40  1  0  0  0  0
 18 21  1  0  0  0  0
 29 30  1  0  0  0  0
  7  8  1  0  0  0  0
 17 18  1  0  0  0  0
  3  4  1  0  0  0  0
  3  5  1  0  0  0  0
  3  6  1  0  0  0  0
 33 36  1  0  0  0  0
 33 37  1  0  0  0  0
 33 38  1  0  0  0  0
 11 14  1  0  0  0  0
 11 15  1  0  0  0  0
 11 16  1  0  0  0  0
 40 42  1  0  0  0  0
 40 43  1  0  0  0  0
 40 44  1  0  0  0  0
 21 27  1  0  0  0  0
 21 28  1  0  0  0  0
 30 35  1  0  0  0  0
  8 13  1  0  0  0  0
 18 26  1  0  0  0  0
 39 41  1  0  0  0  0
  7 12  1  0  0  0  0
 29 34  1  0  0  0  0
 17 25  1  0  0  0  0
M  CHG  1  23  -1
M  END
$$$$

  -OEChem-05262214473D

 44 43  0     1  0  0  0  0  0999 V2000
   -4.0256   -1.8030   -2.1581 C   0  0  0  0  0  0  0  0  0  0  0  0
   -3.7513   -2.6782   -2.9709 O   0  0  0  0  0  0  0  0  0  0  0  0
   -5.3491   -1.1169   -2.2339 C   0  0  0  0  0  0  0  0  0  0  0  0
   -5.3223   -0.2211   -2.8750 H   0  0  0  0  0  0  0  0  0  0  0  0
   -6.1322   -1.7605   -2.6658 H   0  0  0  0  0  0  0  0  0  0  0  0
   -5.7568   -0.7715   -1.2704 H   0  0  0  0  0  0  0  0  0  0  0  0
   -3.2124   -1.3578   -1.1289 N   0  0  0  0  0  0  0  0  0  0  0  0
   -1.8971   -1.8843   -0.8752 C   0  0  2  0  0  0  0  0  0  0  0  0
   -1.2676   -1.0599    0.2399 C   0  0  0  0  0  0  0  0  0  0  0  0
   -1.6270    0.0833    0.5138 O   0  0  0  0  0  0  0  0  0  0  0  0
   -1.0364   -1.8506   -2.1285 C   0  0  0  0  0  0  0  0  0  0  0  0
   -3.5631   -0.6202   -0.5206 H   0  0  0  0  0  0  0  0  0  0  0  0
   -2.0301   -2.9174   -0.5360 H   0  0  0  0  0  0  0  0  0  0  0  0
   -0.8921   -0.8236   -2.4833 H   0  0  0  0  0  0  0  0  0  0  0  0
   -0.0457   -2.2777   -1.9410 H   0  0  0  0  0  0  0  0  0  0  0  0
   -1.5052   -2.4193   -2.9387 H   0  0  0  0  0  0  0  0  0  0  0  0
   -0.2267   -1.7335    0.8672 N   0  0  0  0  0  0  0  0  0  0  0  0
    0.5363   -1.1590    1.9465 C   0  0  2  0  0  0  0  0  0  0  0  0
    0.5511    0.3504    1.7336 C   0  0  0  0  0  0  0  0  0  0  0  0
   -0.4057    1.0745    2.0009 O   0  0  0  0  0  0  0  0  0  0  0  0
    1.9603   -1.7084    1.9904 C   0  0  0  0  0  0  0  0  0  0  0  0
    2.1110   -3.1803    2.3955 C   0  0  0  0  0  0  0  0  0  0  0  0
    1.2013   -3.5986    3.1690 O   0  5  0  0  0  0  0  0  0  0  0  0
    3.1090   -3.7953    1.9300 O   0  0  0  0  0  0  0  0  0  0  0  0
   -0.0113   -2.6869    0.5854 H   0  0  0  0  0  0  0  0  0  0  0  0
   -0.0051   -1.3871    2.8716 H   0  0  0  0  0  0  0  0  0  0  0  0
    2.5677   -1.1052    2.6790 H   0  0  0  0  0  0  0  0  0  0  0  0
    2.4246   -1.6110    1.0004 H   0  0  0  0  0  0  0  0  0  0  0  0
    1.7761    0.7984    1.2595 N   0  0  0  0  0  0  0  0  0  0  0  0
    2.0542    2.1931    1.0066 C   0  0  2  0  0  0  0  0  0  0  0  0
    3.0520    2.2731   -0.1412 C   0  0  0  0  0  0  0  0  0  0  0  0
    3.7984    1.3455   -0.4470 O   0  0  0  0  0  0  0  0  0  0  0  0
    2.5975    2.8829    2.2482 C   0  0  0  0  0  0  0  0  0  0  0  0
    2.5283    0.1320    1.1117 H   0  0  0  0  0  0  0  0  0  0  0  0
    1.1083    2.6539    0.7018 H   0  0  0  0  0  0  0  0  0  0  0  0
    3.5451    2.4347    2.5687 H   0  0  0  0  0  0  0  0  0  0  0  0
    2.7809    3.9465    2.0630 H   0  0  0  0  0  0  0  0  0  0  0  0
    1.8915    2.7986    3.0814 H   0  0  0  0  0  0  0  0  0  0  0  0
    3.0412    3.5171   -0.7564 N   0  0  0  0  0  0  0  0  0  0  0  0
    3.9070    3.8465   -1.8644 C   0  0  0  0  0  0  0  0  0  0  0  0
    2.3758    4.2205   -0.4494 H   0  0  0  0  0  0  0  0  0  0  0  0
    4.8309    4.3069   -1.4842 H   0  0  0  0  0  0  0  0  0  0  0  0
    4.1559    2.9303   -2.4200 H   0  0  0  0  0  0  0  0  0  0  0  0
    3.3938    4.5530   -2.5333 H   0  0  0  0  0  0  0  0  0  0  0  0
  1  3  1  0  0  0  0
  1  7  1  0  0  0  0
  1  2  2  0  0  0  0
 30 31  1  0  0  0  0
 31 39  1  0  0  0  0
 31 32  2  0  0  0  0
  8  9  1  0  0  0  0
  9 17  1  0  0  0  0
  9 10  2  0  0  0  0
 18 19  1  0  0  0  0
 19 29  1  0  0  0  0
 19 20  2  0  0  0  0
 21 22  1  0  0  0  0
 22 23  1  0  0  0  0
 22 24  2  0  0  0  0
 30 33  1  0  0  0  0
  8 11  1  0  0  0  0
 39 40  1  0  0  0  0
 18 21  1  0  0  0  0
 29 30  1  0  0  0  0
  7  8  1  0  0  0  0
 17 18  1  0  0  0  0
  3  4  1  0  0  0  0
  3  5  1  0  0  0  0
  3  6  1  0  0  0  0
 33 36  1  0  0  0  0
 33 37  1  0  0  0  0
 33 38  1  0  0  0  0
 11 14  1  0  0  0  0
 11 15  1  0  0  0  0
 11 16  1  0  0  0  0
 40 42  1  0  0  0  0
 40 43  1  0  0  0  0
 40 44  1  0  0  0  0
 21 27  1  0  0  0  0
 21 28  1  0  0  0  0
 30 35  1  0  0  0  0
  8 13  1  0  0  0  0
 18 26  1  0  0  0  0
 39 41  1  0  0  0  0
  7 12  1  0  0  0  0
 29 34  1  0  0  0  0
 17 25  1  0  0  0  0
M  CHG  1  23  -1
M  END
$$$$

  -OEChem-05262214473D

 44 43  0     1  0  0  0  0  0999 V2000
   -4.0256   -1.8030   -2.1581 C   0  0  0  0  0  0  0  0  0  0  0  0
   -3.7513   -2.6782   -2.9709 O   0  0  0  0  0  0  0  0  0  0  0  0
   -5.3491   -1.1169   -2.2339 C   0  0  0  0  0  0  0  0  0  0  0  0
   -5.3223   -0.2211   -2.8750 H   0  0  0  0  0  0  0  0  0  0  0  0
   -6.1322   -1.7605   -2.6658 H   0  0  0  0  0  0  0  0  0  0  0  0
   -5.7568   -0.7715   -1.2704 H   0  0  0  0  0  0  0  0  0  0  0  0
   -3.2124   -1.3578   -1.1289 N   0  0  0  0  0  0  0  0  0  0  0  0
   -1.8971   -1.8843   -0.8752 C   0  0  2  0  0  0  0  0  0  0  0  0
   -1.2676   -1.0599    0.2399 C   0  0  0  0  0  0  0  0  0  0  0  0
   -1.6270    0.0833    0.5138 O   0  0  0  0  0  0  0  0  0  0  0  0
   -1.0364   -1.8506   -2.1285 C   0  0  0  0  0  0  0  0  0  0  0  0
   -3.5631   -0.6202   -0.5206 H   0  0  0  0  0  0  0  0  0  0  0  0
   -2.0301   -2.9174   -0.5360 H   0  0  0  0  0  0  0  0  0  0  0  0
   -0.8921   -0.8236   -2.4833 H   0  0  0  0  0  0  0  0  0  0  0  0
   -0.0457   -2.2777   -1.9410 H   0  0  0  0  0  0  0  0  0  0  0  0
   -1.5052   -2.4193   -2.9387 H   0  0  0  0  0  0  0  0  0  0  0  0
   -0.2267   -1.7335    0.8672 N   0  0  0  0  0  0  0  0  0  0  0  0
    0.5363   -1.1590    1.9465 C   0  0  2  0  0  0  0  0  0  0  0  0
    0.5511    0.3504    1.7336 C   0  0  0  0  0  0  0  0  0  0  0  0
   -0.2783    1.1063    2.2356 O   0  0  0  0  0  0  0  0  0  0  0  0
    1.9603   -1.7084    1.9904 C   0  0  0  0  0  0  0  0  0  0  0  0
    2.1110   -3.1803    2.3955 C   0  0  0  0  0  0  0  0  0  0  0  0
    1.2013   -3.5986    3.1690 O   0  5  0  0  0  0  0  0  0  0  0  0
    3.1090   -3.7953    1.9300 O   0  0  0  0  0  0  0  0  0  0  0  0
   -0.0113   -2.6869    0.5854 H   0  0  0  0  0  0  0  0  0  0  0  0
   -0.0051   -1.3871    2.8716 H   0  0  0  0  0  0  0  0  0  0  0  0
    2.5677   -1.1052    2.6790 H   0  0  0  0  0  0  0  0  0  0  0  0
    2.4246   -1.6110    1.0004 H   0  0  0  0  0  0  0  0  0  0  0  0
    1.6292    0.7576    0.9604 N   0  0  0  0  0  0  0  0  0  0  0  0
    1.8839    2.1432    0.6416 C   0  0  2  0  0  0  0  0  0  0  0  0
    2.5565    2.1957   -0.7238 C   0  0  0  0  0  0  0  0  0  0  0  0
    3.1654    1.2443   -1.2087 O   0  0  0  0  0  0  0  0  0  0  0  0
    2.7520    2.8042    1.7009 C   0  0  0  0  0  0  0  0  0  0  0  0
    2.2936    0.0658    0.6261 H   0  0  0  0  0  0  0  0  0  0  0  0
    0.9089    2.6399    0.5884 H   0  0  0  0  0  0  0  0  0  0  0  0
    3.7331    2.3201    1.7688 H   0  0  0  0  0  0  0  0  0  0  0  0
    2.9205    3.8618    1.4726 H   0  0  0  0  0  0  0  0  0  0  0  0
    2.2804    2.7393    2.6874 H   0  0  0  0  0  0  0  0  0  0  0  0
    2.4338    3.4438   -1.3184 N   0  0  0  0  0  0  0  0  0  0  0  0
    2.9983    3.7499   -2.6121 C   0  0  0  0  0  0  0  0  0  0  0  0
    1.8954    4.1684   -0.8527 H   0  0  0  0  0  0  0  0  0  0  0  0
    4.0048    4.1742   -2.4824 H   0  0  0  0  0  0  0  0  0  0  0  0
    3.0629    2.8295   -3.2109 H   0  0  0  0  0  0  0  0  0  0  0  0
    2.3569    4.4792   -3.1286 H   0  0  0  0  0  0  0  0  0  0  0  0
  1  3  1  0  0  0  0
  1  7  1  0  0  0  0
  1  2  2  0  0  0  0
 30 31  1  0  0  0  0
 31 39  1  0  0  0  0
 31 32  2  0  0  0  0
  8  9  1  0  0  0  0
  9 17  1  0  0  0  0
  9 10  2  0  0  0  0
 18 19  1  0  0  0  0
 19 29  1  0  0  0  0
 19 20  2  0  0  0  0
 21 22  1  0  0  0  0
 22 23  1  0  0  0  0
 22 24  2  0  0  0  0
 30 33  1  0  0  0  0
  8 11  1  0  0  0  0
 39 40  1  0  0  0  0
 18 21  1  0  0  0  0
 29 30  1  0  0  0  0
  7  8  1  0  0  0  0
 17 18  1  0  0  0  0
  3  4  1  0  0  0  0
  3  5  1  0  0  0  0
  3  6  1  0  0  0  0
 33 36  1  0  0  0  0
 33 37  1  0  0  0  0
 33 38  1  0  0  0  0
 11 14  1  0  0  0  0
 11 15  1  0  0  0  0
 11 16  1  0  0  0  0
 40 42  1  0  0  0  0
 40 43  1  0  0  0  0
 40 44  1  0  0  0  0
 21 27  1  0  0  0  0
 21 28  1  0  0  0  0
 30 35  1  0  0  0  0
  8 13  1  0  0  0  0
 18 26  1  0  0  0  0
 39 41  1  0  0  0  0
  7 12  1  0  0  0  0
 29 34  1  0  0  0  0
 17 25  1  0  0  0  0
M  CHG  1  23  -1
M  END
$$$$

  -OEChem-05262214473D

 44 43  0     1  0  0  0  0  0999 V2000
   -4.0256   -1.8030   -2.1581 C   0  0  0  0  0  0  0  0  0  0  0  0
   -3.7513   -2.6782   -2.9709 O   0  0  0  0  0  0  0  0  0  0  0  0
   -5.3491   -1.1169   -2.2339 C   0  0  0  0  0  0  0  0  0  0  0  0
   -5.3223   -0.2211   -2.8750 H   0  0  0  0  0  0  0  0  0  0  0  0
   -6.1322   -1.7605   -2.6658 H   0  0  0  0  0  0  0  0  0  0  0  0
   -5.7568   -0.7715   -1.2704 H   0  0  0  0  0  0  0  0  0  0  0  0
   -3.2124   -1.3578   -1.1289 N   0  0  0  0  0  0  0  0  0  0  0  0
   -1.8971   -1.8843   -0.8752 C   0  0  2  0  0  0  0  0  0  0  0  0
   -1.2676   -1.0599    0.2399 C   0  0  0  0  0  0  0  0  0  0  0  0
   -1.6270    0.0833    0.5138 O   0  0  0  0  0  0  0  0  0  0  0  0
   -1.0364   -1.8506   -2.1285 C   0  0  0  0  0  0  0  0  0  0  0  0
   -3.5631   -0.6202   -0.5206 H   0  0  0  0  0  0  0  0  0  0  0  0
   -2.0301   -2.9174   -0.5360 H   0  0  0  0  0  0  0  0  0  0  0  0
   -0.8921   -0.8236   -2.4833 H   0  0  0  0  0  0  0  0  0  0  0  0
   -0.0457   -2.2777   -1.9410 H   0  0  0  0  0  0  0  0  0  0  0  0
   -1.5052   -2.4193   -2.9387 H   0  0  0  0  0  0  0  0  0  0  0  0
   -0.2267   -1.7335    0.8672 N   0  0  0  0  0  0  0  0  0  0  0  0
    0.5363   -1.1590    1.9465 C   0  0  2  0  0  0  0  0  0  0  0  0
    0.5511    0.3504    1.7336 C   0  0  0  0  0  0  0  0  0  0  0  0
   -0.0938    1.1319    2.4297 O   0  0  0  0  0  0  0  0  0  0  0  0
    1.9603   -1.7084    1.9904 C   0  0  0  0  0  0  0  0  0  0  0  0
    2.1110   -3.1803    2.3955 C   0  0  0  0  0  0  0  0  0  0  0  0
    1.2013   -3.5986    3.1690 O   0  5  0  0  0  0  0  0  0  0  0  0
    3.1090   -3.7953    1.9300 O   0  0  0  0  0  0  0  0  0  0  0  0
   -0.0113   -2.6869    0.5854 H   0  0  0  0  0  0  0  0  0  0  0  0
   -0.0051   -1.3871    2.8716 H   0  0  0  0  0  0  0  0  0  0  0  0
    2.5677   -1.1052    2.6790 H   0  0  0  0  0  0  0  0  0  0  0  0
    2.4246   -1.6110    1.0004 H   0  0  0  0  0  0  0  0  0  0  0  0
    1.4092    0.7243    0.7090 N   0  0  0  0  0  0  0  0  0  0  0  0
    1.6241    2.1022    0.3325 C   0  0  2  0  0  0  0  0  0  0  0  0
    1.9258    2.1404   -1.1598 C   0  0  0  0  0  0  0  0  0  0  0  0
    2.3550    1.1713   -1.7824 O   0  0  0  0  0  0  0  0  0  0  0  0
    2.7581    2.7240    1.1325 C   0  0  0  0  0  0  0  0  0  0  0  0
    1.9401    0.0116    0.2171 H   0  0  0  0  0  0  0  0  0  0  0  0
    0.6868    2.6338    0.5299 H   0  0  0  0  0  0  0  0  0  0  0  0
    3.7055    2.2046    0.9476 H   0  0  0  0  0  0  0  0  0  0  0  0
    2.9009    3.7765    0.8662 H   0  0  0  0  0  0  0  0  0  0  0  0
    2.5530    2.6688    2.2070 H   0  0  0  0  0  0  0  0  0  0  0  0
    1.7004    3.3963   -1.7058 N   0  0  0  0  0  0  0  0  0  0  0  0
    1.9254    3.6914   -3.1017 C   0  0  0  0  0  0  0  0  0  0  0  0
    1.3262    4.1363   -1.1193 H   0  0  0  0  0  0  0  0  0  0  0  0
    2.9464    4.0784   -3.2352 H   0  0  0  0  0  0  0  0  0  0  0  0
    1.8008    2.7736   -3.6950 H   0  0  0  0  0  0  0  0  0  0  0  0
    1.2001    4.4468   -3.4381 H   0  0  0  0  0  0  0  0  0  0  0  0
  1  3  1  0  0  0  0
  1  7  1  0  0  0  0
  1  2  2  0  0  0  0
 30 31  1  0  0  0  0
 31 39  1  0  0  0  0
 31 32  2  0  0  0  0
  8  9  1  0  0  0  0
  9 17  1  0  0  0  0
  9 10  2  0  0  0  0
 18 19  1  0  0  0  0
 19 29  1  0  0  0  0
 19 20  2  0  0  0  0
 21 22  1  0  0  0  0
 22 23  1  0  0  0  0
 22 24  2  0  0  0  0
 30 33  1  0  0  0  0
  8 11  1  0  0  0  0
 39 40  1  0  0  0  0
 18 21  1  0  0  0  0
 29 30  1  0  0  0  0
  7  8  1  0  0  0  0
 17 18  1  0  0  0  0
  3  4  1  0  0  0  0
  3  5  1  0  0  0  0
  3  6  1  0  0  0  0
 33 36  1  0  0  0  0
 33 37  1  0  0  0  0
 33 38  1  0  0  0  0
 11 14  1  0  0  0  0
 11 15  1  0  0  0  0
 11 16  1  0  0  0  0
 40 42  1  0  0  0  0
 40 43  1  0  0  0  0
 40 44  1  0  0  0  0
 21 27  1  0  0  0  0
 21 28  1  0  0  0  0
 30 35  1  0  0  0  0
  8 13  1  0  0  0  0
 18 26  1  0  0  0  0
 39 41  1  0  0  0  0
  7 12  1  0  0  0  0
 29 34  1  0  0  0  0
 17 25  1  0  0  0  0
M  CHG  1  23  -1
M  END
$$$$

  -OEChem-05262214473D

 44 43  0     1  0  0  0  0  0999 V2000
   -4.0256   -1.8030   -2.1581 C   0  0  0  0  0  0  0  0  0  0  0  0
   -3.7513   -2.6782   -2.9709 O   0  0  0  0  0  0  0  0  0  0  0  0
   -5.3491   -1.1169   -2.2339 C   0  0  0  0  0  0  0  0  0  0  0  0
   -5.3223   -0.2211   -2.8750 H   0  0  0  0  0  0  0  0  0  0  0  0
   -6.1322   -1.7605   -2.6658 H   0  0  0  0  0  0  0  0  0  0  0  0
   -5.7568   -0.7715   -1.2704 H   0  0  0  0  0  0  0  0  0  0  0  0
   -3.2124   -1.3578   -1.1289 N   0  0  0  0  0  0  0  0  0  0  0  0
   -1.8971   -1.8843   -0.8752 C   0  0  2  0  0  0  0  0  0  0  0  0
   -1.2676   -1.0599    0.2399 C   0  0  0  0  0  0  0  0  0  0  0  0
   -1.6270    0.0833    0.5138 O   0  0  0  0  0  0  0  0  0  0  0  0
   -1.0364   -1.8506   -2.1285 C   0  0  0  0  0  0  0  0  0  0  0  0
   -3.5631   -0.6202   -0.5206 H   0  0  0  0  0  0  0  0  0  0  0  0
   -2.0301   -2.9174   -0.5360 H   0  0  0  0  0  0  0  0  0  0  0  0
   -0.8921   -0.8236   -2.4833 H   0  0  0  0  0  0  0  0  0  0  0  0
   -0.0457   -2.2777   -1.9410 H   0  0  0  0  0  0  0  0  0  0  0  0
   -1.5052   -2.4193   -2.9387 H   0  0  0  0  0  0  0  0  0  0  0  0
   -0.2267   -1.7335    0.8672 N   0  0  0  0  0  0  0  0  0  0  0  0
    0.5363   -1.1590    1.9465 C   0  0  2  0  0  0  0  0  0  0  0  0
    0.5511    0.3504    1.7336 C   0  0  0  0  0  0  0  0  0  0  0  0
    0.1350    1.1494    2.5700 O   0  0  0  0  0  0  0  0  0  0  0  0
    1.9603   -1.7084    1.9904 C   0  0  0  0  0  0  0  0  0  0  0  0
    2.1110   -3.1803    2.3955 C   0  0  0  0  0  0  0  0  0  0  0  0
    1.2013   -3.5986    3.1690 O   0  5  0  0  0  0  0  0  0  0  0  0
    3.1090   -3.7953    1.9300 O   0  0  0  0  0  0  0  0  0  0  0  0
   -0.0113   -2.6869    0.5854 H   0  0  0  0  0  0  0  0  0  0  0  0
   -0.0051   -1.3871    2.8716 H   0  0  0  0  0  0  0  0  0  0  0  0
    2.5677   -1.1052    2.6790 H   0  0  0  0  0  0  0  0  0  0  0  0
    2.4246   -1.6110    1.0004 H   0  0  0  0  0  0  0  0  0  0  0  0
    1.1311    0.7008    0.5224 N   0  0  0  0  0  0  0  0  0  0  0  0
    1.2924    2.0727    0.1004 C   0  0  2  0  0  0  0  0  0  0  0  0
    1.2029    2.1109   -1.4195 C   0  0  0  0  0  0  0  0  0  0  0  0
    1.4226    1.1315   -2.1292 O   0  0  0  0  0  0  0  0  0  0  0  0
    2.6155    2.6477    0.5816 C   0  0  0  0  0  0  0  0  0  0  0  0
    1.4918   -0.0270   -0.0875 H   0  0  0  0  0  0  0  0  0  0  0  0
    0.4570    2.6361    0.5303 H   0  0  0  0  0  0  0  0  0  0  0  0
    3.4642    2.0960    0.1613 H   0  0  0  0  0  0  0  0  0  0  0  0
    2.7235    3.6963    0.2854 H   0  0  0  0  0  0  0  0  0  0  0  0
    2.6906    2.5922    1.6730 H   0  0  0  0  0  0  0  0  0  0  0  0
    0.8911    3.3779   -1.8922 N   0  0  0  0  0  0  0  0  0  0  0  0
    0.7615    3.6748   -3.2997 C   0  0  0  0  0  0  0  0  0  0  0  0
    0.7068    4.1266   -1.2310 H   0  0  0  0  0  0  0  0  0  0  0  0
    1.7276    4.0260   -3.6914 H   0  0  0  0  0  0  0  0  0  0  0  0
    0.4556    2.7664   -3.8393 H   0  0  0  0  0  0  0  0  0  0  0  0
    0.0022    4.4582   -3.4407 H   0  0  0  0  0  0  0  0  0  0  0  0
  1  3  1  0  0  0  0
  1  7  1  0  0  0  0
  1  2  2  0  0  0  0
 30 31  1  0  0  0  0
 31 39  1  0  0  0  0
 31 32  2  0  0  0  0
  8  9  1  0  0  0  0
  9 17  1  0  0  0  0
  9 10  2  0  0  0  0
 18 19  1  0  0  0  0
 19 29  1  0  0  0  0
 19 20  2  0  0  0  0
 21 22  1  0  0  0  0
 22 23  1  0  0  0  0
 22 24  2  0  0  0  0
 30 33  1  0  0  0  0
  8 11  1  0  0  0  0
 39 40  1  0  0  0  0
 18 21  1  0  0  0  0
 29 30  1  0  0  0  0
  7  8  1  0  0  0  0
 17 18  1  0  0  0  0
  3  4  1  0  0  0  0
  3  5  1  0  0  0  0
  3  6  1  0  0  0  0
 33 36  1  0  0  0  0
 33 37  1  0  0  0  0
 33 38  1  0  0  0  0
 11 14  1  0  0  0  0
 11 15  1  0  0  0  0
 11 16  1  0  0  0  0
 40 42  1  0  0  0  0
 40 43  1  0  0  0  0
 40 44  1  0  0  0  0
 21 27  1  0  0  0  0
 21 28  1  0  0  0  0
 30 35  1  0  0  0  0
  8 13  1  0  0  0  0
 18 26  1  0  0  0  0
 39 41  1  0  0  0  0
  7 12  1  0  0  0  0
 29 34  1  0  0  0  0
 17 25  1  0  0  0  0
M  CHG  1  23  -1
M  END
$$$$

  -OEChem-05262214473D

 44 43  0     1  0  0  0  0  0999 V2000
   -4.0256   -1.8030   -2.1581 C   0  0  0  0  0  0  0  0  0  0  0  0
   -3.7513   -2.6782   -2.9709 O   0  0  0  0  0  0  0  0  0  0  0  0
   -5.3491   -1.1169   -2.2339 C   0  0  0  0  0  0  0  0  0  0  0  0
   -5.3223   -0.2211   -2.8750 H   0  0  0  0  0  0  0  0  0  0  0  0
   -6.1322   -1.7605   -2.6658 H   0  0  0  0  0  0  0  0  0  0  0  0
   -5.7568   -0.7715   -1.2704 H   0  0  0  0  0  0  0  0  0  0  0  0
   -3.2124   -1.3578   -1.1289 N   0  0  0  0  0  0  0  0  0  0  0  0
   -1.8971   -1.8843   -0.8752 C   0  0  2  0  0  0  0  0  0  0  0  0
   -1.2676   -1.0599    0.2399 C   0  0  0  0  0  0  0  0  0  0  0  0
   -1.6270    0.0833    0.5138 O   0  0  0  0  0  0  0  0  0  0  0  0
   -1.0364   -1.8506   -2.1285 C   0  0  0  0  0  0  0  0  0  0  0  0
   -3.5631   -0.6202   -0.5206 H   0  0  0  0  0  0  0  0  0  0  0  0
   -2.0301   -2.9174   -0.5360 H   0  0  0  0  0  0  0  0  0  0  0  0
   -0.8921   -0.8236   -2.4833 H   0  0  0  0  0  0  0  0  0  0  0  0
   -0.0457   -2.2777   -1.9410 H   0  0  0  0  0  0  0  0  0  0  0  0
   -1.5052   -2.4193   -2.9387 H   0  0  0  0  0  0  0  0  0  0  0  0
   -0.2267   -1.7335    0.8672 N   0  0  0  0  0  0  0  0  0  0  0  0
    0.5363   -1.1590    1.9465 C   0  0  2  0  0  0  0  0  0  0  0  0
    0.5511    0.3504    1.7336 C   0  0  0  0  0  0  0  0  0  0  0  0
    0.3926    1.1578    2.6470 O   0  0  0  0  0  0  0  0  0  0  0  0
    1.9603   -1.7084    1.9904 C   0  0  0  0  0  0  0  0  0  0  0  0
    2.1110   -3.1803    2.3955 C   0  0  0  0  0  0  0  0  0  0  0  0
    1.2013   -3.5986    3.1690 O   0  5  0  0  0  0  0  0  0  0  0  0
    3.1090   -3.7953    1.9300 O   0  0  0  0  0  0  0  0  0  0  0  0
   -0.0113   -2.6869    0.5854 H   0  0  0  0  0  0  0  0  0  0  0  0
   -0.0051   -1.3871    2.8716 H   0  0  0  0  0  0  0  0  0  0  0  0
    2.5677   -1.1052    2.6790 H   0  0  0  0  0  0  0  0  0  0  0  0
    2.4246   -1.6110    1.0004 H   0  0  0  0  0  0  0  0  0  0  0  0
    0.8137    0.6885    0.4134 N   0  0  0  0  0  0  0  0  0  0  0  0
    0.9115    2.0568   -0.0388 C   0  0  2  0  0  0  0  0  0  0  0  0
    0.4370    2.1091   -1.4851 C   0  0  0  0  0  0  0  0  0  0  0  0
    0.4316    1.1277   -2.2252 O   0  0  0  0  0  0  0  0  0  0  0  0
    2.3337    2.5806    0.0859 C   0  0  0  0  0  0  0  0  0  0  0  0
    0.9794   -0.0473   -0.2670 H   0  0  0  0  0  0  0  0  0  0  0  0
    0.2353    2.6466    0.5895 H   0  0  0  0  0  0  0  0  0  0  0  0
    3.0258    2.0019   -0.5367 H   0  0  0  0  0  0  0  0  0  0  0  0
    2.4004    3.6268   -0.2305 H   0  0  0  0  0  0  0  0  0  0  0  0
    2.6839    2.5145    1.1216 H   0  0  0  0  0  0  0  0  0  0  0  0
    0.0609    3.3899   -1.8649 N   0  0  0  0  0  0  0  0  0  0  0  0
   -0.4141    3.7014   -3.1928 C   0  0  0  0  0  0  0  0  0  0  0  0
    0.0796    4.1399   -1.1802 H   0  0  0  0  0  0  0  0  0  0  0  0
    0.4315    4.0206   -3.8198 H   0  0  0  0  0  0  0  0  0  0  0  0
   -0.8809    2.8084   -3.6340 H   0  0  0  0  0  0  0  0  0  0  0  0
   -1.1551    4.5124   -3.1362 H   0  0  0  0  0  0  0  0  0  0  0  0
  1  3  1  0  0  0  0
  1  7  1  0  0  0  0
  1  2  2  0  0  0  0
 30 31  1  0  0  0  0
 31 39  1  0  0  0  0
 31 32  2  0  0  0  0
  8  9  1  0  0  0  0
  9 17  1  0  0  0  0
  9 10  2  0  0  0  0
 18 19  1  0  0  0  0
 19 29  1  0  0  0  0
 19 20  2  0  0  0  0
 21 22  1  0  0  0  0
 22 23  1  0  0  0  0
 22 24  2  0  0  0  0
 30 33  1  0  0  0  0
  8 11  1  0  0  0  0
 39 40  1  0  0  0  0
 18 21  1  0  0  0  0
 29 30  1  0  0  0  0
  7  8  1  0  0  0  0
 17 18  1  0  0  0  0
  3  4  1  0  0  0  0
  3  5  1  0  0  0  0
  3  6  1  0  0  0  0
 33 36  1  0  0  0  0
 33 37  1  0  0  0  0
 33 38  1  0  0  0  0
 11 14  1  0  0  0  0
 11 15  1  0  0  0  0
 11 16  1  0  0  0  0
 40 42  1  0  0  0  0
 40 43  1  0  0  0  0
 40 44  1  0  0  0  0
 21 27  1  0  0  0  0
 21 28  1  0  0  0  0
 30 35  1  0  0  0  0
  8 13  1  0  0  0  0
 18 26  1  0  0  0  0
 39 41  1  0  0  0  0
  7 12  1  0  0  0  0
 29 34  1  0  0  0  0
 17 25  1  0  0  0  0
M  CHG  1  23  -1
M  END
$$$$

  -OEChem-05262214473D

 44 43  0     1  0  0  0  0  0999 V2000
   -4.0256   -1.8030   -2.1581 C   0  0  0  0  0  0  0  0  0  0  0  0
   -3.7513   -2.6782   -2.9709 O   0  0  0  0  0  0  0  0  0  0  0  0
   -5.3491   -1.1169   -2.2339 C   0  0  0  0  0  0  0  0  0  0  0  0
   -5.3223   -0.2211   -2.8750 H   0  0  0  0  0  0  0  0  0  0  0  0
   -6.1322   -1.7605   -2.6658 H   0  0  0  0  0  0  0  0  0  0  0  0
   -5.7568   -0.7715   -1.2704 H   0  0  0  0  0  0  0  0  0  0  0  0
   -3.2124   -1.3578   -1.1289 N   0  0  0  0  0  0  0  0  0  0  0  0
   -1.8971   -1.8843   -0.8752 C   0  0  2  0  0  0  0  0  0  0  0  0
   -1.2676   -1.0599    0.2399 C   0  0  0  0  0  0  0  0  0  0  0  0
   -1.6270    0.0833    0.5138 O   0  0  0  0  0  0  0  0  0  0  0  0
   -1.0364   -1.8506   -2.1285 C   0  0  0  0  0  0  0  0  0  0  0  0
   -3.5631   -0.6202   -0.5206 H   0  0  0  0  0  0  0  0  0  0  0  0
   -2.0301   -2.9174   -0.5360 H   0  0  0  0  0  0  0  0  0  0  0  0
   -0.8921   -0.8236   -2.4833 H   0  0  0  0  0  0  0  0  0  0  0  0
   -0.0457   -2.2777   -1.9410 H   0  0  0  0  0  0  0  0  0  0  0  0
   -1.5052   -2.4193   -2.9387 H   0  0  0  0  0  0  0  0  0  0  0  0
   -0.2267   -1.7335    0.8672 N   0  0  0  0  0  0  0  0  0  0  0  0
    0.5363   -1.1590    1.9465 C   0  0  2  0  0  0  0  0  0  0  0  0
    0.5511    0.3504    1.7336 C   0  0  0  0  0  0  0  0  0  0  0  0
    0.6615    1.1563    2.6553 O   0  0  0  0  0  0  0  0  0  0  0  0
    1.9603   -1.7084    1.9904 C   0  0  0  0  0  0  0  0  0  0  0  0
    2.1110   -3.1803    2.3955 C   0  0  0  0  0  0  0  0  0  0  0  0
    1.2013   -3.5986    3.1690 O   0  5  0  0  0  0  0  0  0  0  0  0
    3.1090   -3.7953    1.9300 O   0  0  0  0  0  0  0  0  0  0  0  0
   -0.0113   -2.6869    0.5854 H   0  0  0  0  0  0  0  0  0  0  0  0
   -0.0051   -1.3871    2.8716 H   0  0  0  0  0  0  0  0  0  0  0  0
    2.5677   -1.1052    2.6790 H   0  0  0  0  0  0  0  0  0  0  0  0
    2.4246   -1.6110    1.0004 H   0  0  0  0  0  0  0  0  0  0  0  0
    0.4789    0.6884    0.3895 N   0  0  0  0  0  0  0  0  0  0  0  0
    0.5073    2.0556   -0.0758 C   0  0  2  0  0  0  0  0  0  0  0  0
   -0.3197    2.1353   -1.3522 C   0  0  0  0  0  0  0  0  0  0  0  0
   -0.5503    1.1600   -2.0640 O   0  0  0  0  0  0  0  0  0  0  0  0
    1.9321    2.5271   -0.3209 C   0  0  0  0  0  0  0  0  0  0  0  0
    0.4377   -0.0479   -0.3091 H   0  0  0  0  0  0  0  0  0  0  0  0
    0.0366    2.6647    0.7037 H   0  0  0  0  0  0  0  0  0  0  0  0
    2.4200    1.9286   -1.0988 H   0  0  0  0  0  0  0  0  0  0  0  0
    1.9537    3.5725   -0.6461 H   0  0  0  0  0  0  0  0  0  0  0  0
    2.5334    2.4411    0.5906 H   0  0  0  0  0  0  0  0  0  0  0  0
   -0.7336    3.4314   -1.6258 N   0  0  0  0  0  0  0  0  0  0  0  0
   -1.5213    3.7693   -2.7882 C   0  0  0  0  0  0  0  0  0  0  0  0
   -0.5127    4.1753   -0.9704 H   0  0  0  0  0  0  0  0  0  0  0  0
   -0.8535    4.0625   -3.6117 H   0  0  0  0  0  0  0  0  0  0  0  0
   -2.1178    2.8968   -3.0930 H   0  0  0  0  0  0  0  0  0  0  0  0
   -2.1929    4.6059   -2.5454 H   0  0  0  0  0  0  0  0  0  0  0  0
  1  3  1  0  0  0  0
  1  7  1  0  0  0  0
  1  2  2  0  0  0  0
 30 31  1  0  0  0  0
 31 39  1  0  0  0  0
 31 32  2  0  0  0  0
  8  9  1  0  0  0  0
  9 17  1  0  0  0  0
  9 10  2  0  0  0  0
 18 19  1  0  0  0  0
 19 29  1  0  0  0  0
 19 20  2  0  0  0  0
 21 22  1  0  0  0  0
 22 23  1  0  0  0  0
 22 24  2  0  0  0  0
 30 33  1  0  0  0  0
  8 11  1  0  0  0  0
 39 40  1  0  0  0  0
 18 21  1  0  0  0  0
 29 30  1  0  0  0  0
  7  8  1  0  0  0  0
 17 18  1  0  0  0  0
  3  4  1  0  0  0  0
  3  5  1  0  0  0  0
  3  6  1  0  0  0  0
 33 36  1  0  0  0  0
 33 37  1  0  0  0  0
 33 38  1  0  0  0  0
 11 14  1  0  0  0  0
 11 15  1  0  0  0  0
 11 16  1  0  0  0  0
 40 42  1  0  0  0  0
 40 43  1  0  0  0  0
 40 44  1  0  0  0  0
 21 27  1  0  0  0  0
 21 28  1  0  0  0  0
 30 35  1  0  0  0  0
  8 13  1  0  0  0  0
 18 26  1  0  0  0  0
 39 41  1  0  0  0  0
  7 12  1  0  0  0  0
 29 34  1  0  0  0  0
 17 25  1  0  0  0  0
M  CHG  1  23  -1
M  END
$$$$

  -OEChem-05262214473D

 44 43  0     1  0  0  0  0  0999 V2000
   -4.0256   -1.8030   -2.1581 C   0  0  0  0  0  0  0  0  0  0  0  0
   -3.7513   -2.6782   -2.9709 O   0  0  0  0  0  0  0  0  0  0  0  0
   -5.3491   -1.1169   -2.2339 C   0  0  0  0  0  0  0  0  0  0  0  0
   -5.3223   -0.2211   -2.8750 H   0  0  0  0  0  0  0  0  0  0  0  0
   -6.1322   -1.7605   -2.6658 H   0  0  0  0  0  0  0  0  0  0  0  0
   -5.7568   -0.7715   -1.2704 H   0  0  0  0  0  0  0  0  0  0  0  0
   -3.2124   -1.3578   -1.1289 N   0  0  0  0  0  0  0  0  0  0  0  0
   -1.8971   -1.8843   -0.8752 C   0  0  2  0  0  0  0  0  0  0  0  0
   -1.2676   -1.0599    0.2399 C   0  0  0  0  0  0  0  0  0  0  0  0
   -1.6270    0.0833    0.5138 O   0  0  0  0  0  0  0  0  0  0  0  0
   -1.0364   -1.8506   -2.1285 C   0  0  0  0  0  0  0  0  0  0  0  0
   -3.5631   -0.6202   -0.5206 H   0  0  0  0  0  0  0  0  0  0  0  0
   -2.0301   -2.9174   -0.5360 H   0  0  0  0  0  0  0  0  0  0  0  0
   -0.8921   -0.8236   -2.4833 H   0  0  0  0  0  0  0  0  0  0  0  0
   -0.0457   -2.2777   -1.9410 H   0  0  0  0  0  0  0  0  0  0  0  0
   -1.5052   -2.4193   -2.9387 H   0  0  0  0  0  0  0  0  0  0  0  0
   -0.2267   -1.7335    0.8672 N   0  0  0  0  0  0  0  0  0  0  0  0
    0.5363   -1.1590    1.9465 C   0  0  2  0  0  0  0  0  0  0  0  0
    0.5511    0.3504    1.7336 C   0  0  0  0  0  0  0  0  0  0  0  0
    0.9233    1.1452    2.5944 O   0  0  0  0  0  0  0  0  0  0  0  0
    1.9603   -1.7084    1.9904 C   0  0  0  0  0  0  0  0  0  0  0  0
    2.1110   -3.1803    2.3955 C   0  0  0  0  0  0  0  0  0  0  0  0
    1.2013   -3.5986    3.1690 O   0  5  0  0  0  0  0  0  0  0  0  0
    3.1090   -3.7953    1.9300 O   0  0  0  0  0  0  0  0  0  0  0  0
   -0.0113   -2.6869    0.5854 H   0  0  0  0  0  0  0  0  0  0  0  0
   -0.0051   -1.3871    2.8716 H   0  0  0  0  0  0  0  0  0  0  0  0
    2.5677   -1.1052    2.6790 H   0  0  0  0  0  0  0  0  0  0  0  0
    2.4246   -1.6110    1.0004 H   0  0  0  0  0  0  0  0  0  0  0  0
    0.1492    0.7005    0.4521 N   0  0  0  0  0  0  0  0  0  0  0  0
    0.1073    2.0690   -0.0078 C   0  0  2  0  0  0  0  0  0  0  0  0
   -1.0156    2.1875   -1.0298 C   0  0  0  0  0  0  0  0  0  0  0  0
   -1.4563    1.2263   -1.6566 O   0  0  0  0  0  0  0  0  0  0  0  0
    1.4380    2.4911   -0.6110 C   0  0  0  0  0  0  0  0  0  0  0  0
   -0.0964   -0.0289   -0.2109 H   0  0  0  0  0  0  0  0  0  0  0  0
   -0.1254    2.6890    0.8648 H   0  0  0  0  0  0  0  0  0  0  0  0
    1.6881    1.8810   -1.4867 H   0  0  0  0  0  0  0  0  0  0  0  0
    1.4136    3.5373   -0.9332 H   0  0  0  0  0  0  0  0  0  0  0  0
    2.2492    2.3770    0.1161 H   0  0  0  0  0  0  0  0  0  0  0  0
   -1.4383    3.4996   -1.1910 N   0  0  0  0  0  0  0  0  0  0  0  0
   -2.4846    3.8739   -2.1135 C   0  0  0  0  0  0  0  0  0  0  0  0
   -1.0298    4.2304   -0.6158 H   0  0  0  0  0  0  0  0  0  0  0  0
   -2.0399    4.1489   -3.0813 H   0  0  0  0  0  0  0  0  0  0  0  0
   -3.1707    3.0255   -2.2533 H   0  0  0  0  0  0  0  0  0  0  0  0
   -3.0407    4.7323   -1.7084 H   0  0  0  0  0  0  0  0  0  0  0  0
  1  3  1  0  0  0  0
  1  7  1  0  0  0  0
  1  2  2  0  0  0  0
 30 31  1  0  0  0  0
 31 39  1  0  0  0  0
 31 32  2  0  0  0  0
  8  9  1  0  0  0  0
  9 17  1  0  0  0  0
  9 10  2  0  0  0  0
 18 19  1  0  0  0  0
 19 29  1  0  0  0  0
 19 20  2  0  0  0  0
 21 22  1  0  0  0  0
 22 23  1  0  0  0  0
 22 24  2  0  0  0  0
 30 33  1  0  0  0  0
  8 11  1  0  0  0  0
 39 40  1  0  0  0  0
 18 21  1  0  0  0  0
 29 30  1  0  0  0  0
  7  8  1  0  0  0  0
 17 18  1  0  0  0  0
  3  4  1  0  0  0  0
  3  5  1  0  0  0  0
  3  6  1  0  0  0  0
 33 36  1  0  0  0  0
 33 37  1  0  0  0  0
 33 38  1  0  0  0  0
 11 14  1  0  0  0  0
 11 15  1  0  0  0  0
 11 16  1  0  0  0  0
 40 42  1  0  0  0  0
 40 43  1  0  0  0  0
 40 44  1  0  0  0  0
 21 27  1  0  0  0  0
 21 28  1  0  0  0  0
 30 35  1  0  0  0  0
  8 13  1  0  0  0  0
 18 26  1  0  0  0  0
 39 41  1  0  0  0  0
  7 12  1  0  0  0  0
 29 34  1  0  0  0  0
 17 25  1  0  0  0  0
M  CHG  1  23  -1
M  END
$$$$

  -OEChem-05262214473D

 44 43  0     1  0  0  0  0  0999 V2000
   -4.0256   -1.8030   -2.1581 C   0  0  0  0  0  0  0  0  0  0  0  0
   -3.7513   -2.6782   -2.9709 O   0  0  0  0  0  0  0  0  0  0  0  0
   -5.3491   -1.1169   -2.2339 C   0  0  0  0  0  0  0  0  0  0  0  0
   -5.3223   -0.2211   -2.8750 H   0  0  0  0  0  0  0  0  0  0  0  0
   -6.1322   -1.7605   -2.6658 H   0  0  0  0  0  0  0  0  0  0  0  0
   -5.7568   -0.7715   -1.2704 H   0  0  0  0  0  0  0  0  0  0  0  0
   -3.2124   -1.3578   -1.1289 N   0  0  0  0  0  0  0  0  0  0  0  0
   -1.8971   -1.8843   -0.8752 C   0  0  2  0  0  0  0  0  0  0  0  0
   -1.2676   -1.0599    0.2399 C   0  0  0  0  0  0  0  0  0  0  0  0
   -1.6270    0.0833    0.5138 O   0  0  0  0  0  0  0  0  0  0  0  0
   -1.0364   -1.8506   -2.1285 C   0  0  0  0  0  0  0  0  0  0  0  0
   -3.5631   -0.6202   -0.5206 H   0  0  0  0  0  0  0  0  0  0  0  0
   -2.0301   -2.9174   -0.5360 H   0  0  0  0  0  0  0  0  0  0  0  0
   -0.8921   -0.8236   -2.4833 H   0  0  0  0  0  0  0  0  0  0  0  0
   -0.0457   -2.2777   -1.9410 H   0  0  0  0  0  0  0  0  0  0  0  0
   -1.5052   -2.4193   -2.9387 H   0  0  0  0  0  0  0  0  0  0  0  0
   -0.2267   -1.7335    0.8672 N   0  0  0  0  0  0  0  0  0  0  0  0
    0.5363   -1.1590    1.9465 C   0  0  2  0  0  0  0  0  0  0  0  0
    0.5511    0.3504    1.7336 C   0  0  0  0  0  0  0  0  0  0  0  0
    1.1601    1.1251    2.4685 O   0  0  0  0  0  0  0  0  0  0  0  0
    1.9603   -1.7084    1.9904 C   0  0  0  0  0  0  0  0  0  0  0  0
    2.1110   -3.1803    2.3955 C   0  0  0  0  0  0  0  0  0  0  0  0
    1.2013   -3.5986    3.1690 O   0  5  0  0  0  0  0  0  0  0  0  0
    3.1090   -3.7953    1.9300 O   0  0  0  0  0  0  0  0  0  0  0  0
   -0.0113   -2.6869    0.5854 H   0  0  0  0  0  0  0  0  0  0  0  0
   -0.0051   -1.3871    2.8716 H   0  0  0  0  0  0  0  0  0  0  0  0
    2.5677   -1.1052    2.6790 H   0  0  0  0  0  0  0  0  0  0  0  0
    2.4246   -1.6110    1.0004 H   0  0  0  0  0  0  0  0  0  0  0  0
   -0.1527    0.7239    0.5972 N   0  0  0  0  0  0  0  0  0  0  0  0
   -0.2611    2.0964    0.1603 C   0  0  2  0  0  0  0  0  0  0  0  0
   -1.6033    2.2624   -0.5400 C   0  0  0  0  0  0  0  0  0  0  0  0
   -2.2247    1.3221   -1.0308 O   0  0  0  0  0  0  0  0  0  0  0  0
    0.8851    2.4748   -0.7648 C   0  0  0  0  0  0  0  0  0  0  0  0
   -0.5864    0.0086    0.0209 H   0  0  0  0  0  0  0  0  0  0  0  0
   -0.2396    2.7179    1.0621 H   0  0  0  0  0  0  0  0  0  0  0  0
    0.8800    1.8625   -1.6739 H   0  0  0  0  0  0  0  0  0  0  0  0
    0.8172    3.5235   -1.0722 H   0  0  0  0  0  0  0  0  0  0  0  0
    1.8508    2.3265   -0.2696 H   0  0  0  0  0  0  0  0  0  0  0  0
   -2.0050    3.5899   -0.5903 N   0  0  0  0  0  0  0  0  0  0  0  0
   -3.2385    4.0080   -1.2146 C   0  0  0  0  0  0  0  0  0  0  0  0
   -1.4364    4.3014   -0.1406 H   0  0  0  0  0  0  0  0  0  0  0  0
   -3.0468    4.2740   -2.2647 H   0  0  0  0  0  0  0  0  0  0  0  0
   -3.9679    3.1858   -1.1720 H   0  0  0  0  0  0  0  0  0  0  0  0
   -3.6404    4.8828   -0.6825 H   0  0  0  0  0  0  0  0  0  0  0  0
  1  3  1  0  0  0  0
  1  7  1  0  0  0  0
  1  2  2  0  0  0  0
 30 31  1  0  0  0  0
 31 39  1  0  0  0  0
 31 32  2  0  0  0  0
  8  9  1  0  0  0  0
  9 17  1  0  0  0  0
  9 10  2  0  0  0  0
 18 19  1  0  0  0  0
 19 29  1  0  0  0  0
 19 20  2  0  0  0  0
 21 22  1  0  0  0  0
 22 23  1  0  0  0  0
 22 24  2  0  0  0  0
 30 33  1  0  0  0  0
  8 11  1  0  0  0  0
 39 40  1  0  0  0  0
 18 21  1  0  0  0  0
 29 30  1  0  0  0  0
  7  8  1  0  0  0  0
 17 18  1  0  0  0  0
  3  4  1  0  0  0  0
  3  5  1  0  0  0  0
  3  6  1  0  0  0  0
 33 36  1  0  0  0  0
 33 37  1  0  0  0  0
 33 38  1  0  0  0  0
 11 14  1  0  0  0  0
 11 15  1  0  0  0  0
 11 16  1  0  0  0  0
 40 42  1  0  0  0  0
 40 43  1  0  0  0  0
 40 44  1  0  0  0  0
 21 27  1  0  0  0  0
 21 28  1  0  0  0  0
 30 35  1  0  0  0  0
  8 13  1  0  0  0  0
 18 26  1  0  0  0  0
 39 41  1  0  0  0  0
  7 12  1  0  0  0  0
 29 34  1  0  0  0  0
 17 25  1  0  0  0  0
M  CHG  1  23  -1
M  END
$$$$

  -OEChem-05262214473D

 44 43  0     1  0  0  0  0  0999 V2000
   -4.0256   -1.8030   -2.1581 C   0  0  0  0  0  0  0  0  0  0  0  0
   -3.7513   -2.6782   -2.9709 O   0  0  0  0  0  0  0  0  0  0  0  0
   -5.3491   -1.1169   -2.2339 C   0  0  0  0  0  0  0  0  0  0  0  0
   -5.3223   -0.2211   -2.8750 H   0  0  0  0  0  0  0  0  0  0  0  0
   -6.1322   -1.7605   -2.6658 H   0  0  0  0  0  0  0  0  0  0  0  0
   -5.7568   -0.7715   -1.2704 H   0  0  0  0  0  0  0  0  0  0  0  0
   -3.2124   -1.3578   -1.1289 N   0  0  0  0  0  0  0  0  0  0  0  0
   -1.8971   -1.8843   -0.8752 C   0  0  2  0  0  0  0  0  0  0  0  0
   -1.2676   -1.0599    0.2399 C   0  0  0  0  0  0  0  0  0  0  0  0
   -1.6270    0.0833    0.5138 O   0  0  0  0  0  0  0  0  0  0  0  0
   -1.0364   -1.8506   -2.1285 C   0  0  0  0  0  0  0  0  0  0  0  0
   -3.5631   -0.6202   -0.5206 H   0  0  0  0  0  0  0  0  0  0  0  0
   -2.0301   -2.9174   -0.5360 H   0  0  0  0  0  0  0  0  0  0  0  0
   -0.8921   -0.8236   -2.4833 H   0  0  0  0  0  0  0  0  0  0  0  0
   -0.0457   -2.2777   -1.9410 H   0  0  0  0  0  0  0  0  0  0  0  0
   -1.5052   -2.4193   -2.9387 H   0  0  0  0  0  0  0  0  0  0  0  0
   -0.2267   -1.7335    0.8672 N   0  0  0  0  0  0  0  0  0  0  0  0
    0.5363   -1.1590    1.9465 C   0  0  2  0  0  0  0  0  0  0  0  0
    0.5511    0.3504    1.7336 C   0  0  0  0  0  0  0  0  0  0  0  0
    1.3559    1.0975    2.2861 O   0  0  0  0  0  0  0  0  0  0  0  0
    1.9603   -1.7084    1.9904 C   0  0  0  0  0  0  0  0  0  0  0  0
    2.1110   -3.1803    2.3955 C   0  0  0  0  0  0  0  0  0  0  0  0
    1.2013   -3.5986    3.1690 O   0  5  0  0  0  0  0  0  0  0  0  0
    3.1090   -3.7953    1.9300 O   0  0  0  0  0  0  0  0  0  0  0  0
   -0.0113   -2.6869    0.5854 H   0  0  0  0  0  0  0  0  0  0  0  0
   -0.0051   -1.3871    2.8716 H   0  0  0  0  0  0  0  0  0  0  0  0
    2.5677   -1.1052    2.6790 H   0  0  0  0  0  0  0  0  0  0  0  0
    2.4246   -1.6110    1.0004 H   0  0  0  0  0  0  0  0  0  0  0  0
   -0.4063    0.7570    0.8147 N   0  0  0  0  0  0  0  0  0  0  0  0
   -0.5729    2.1356    0.4172 C   0  0  2  0  0  0  0  0  0  0  0  0
   -2.0427    2.3547    0.0840 C   0  0  0  0  0  0  0  0  0  0  0  0
   -2.8030    1.4408   -0.2291 O   0  0  0  0  0  0  0  0  0  0  0  0
    0.3110    2.4794   -0.7716 C   0  0  0  0  0  0  0  0  0  0  0  0
   -0.9989    0.0619    0.3704 H   0  0  0  0  0  0  0  0  0  0  0  0
   -0.2984    2.7495    1.2820 H   0  0  0  0  0  0  0  0  0  0  0  0
    0.0509    1.8743   -1.6477 H   0  0  0  0  0  0  0  0  0  0  0  0
    0.2049    3.5322   -1.0537 H   0  0  0  0  0  0  0  0  0  0  0  0
    1.3653    2.2931   -0.5402 H   0  0  0  0  0  0  0  0  0  0  0  0
   -2.3952    3.6960    0.1353 N   0  0  0  0  0  0  0  0  0  0  0  0
   -3.7314    4.1626   -0.1529 C   0  0  0  0  0  0  0  0  0  0  0  0
   -1.7049    4.3835    0.4227 H   0  0  0  0  0  0  0  0  0  0  0  0
   -3.8056    4.4291   -1.2175 H   0  0  0  0  0  0  0  0  0  0  0  0
   -4.4551    3.3668    0.0771 H   0  0  0  0  0  0  0  0  0  0  0  0
   -3.9514    5.0473    0.4626 H   0  0  0  0  0  0  0  0  0  0  0  0
  1  3  1  0  0  0  0
  1  7  1  0  0  0  0
  1  2  2  0  0  0  0
 30 31  1  0  0  0  0
 31 39  1  0  0  0  0
 31 32  2  0  0  0  0
  8  9  1  0  0  0  0
  9 17  1  0  0  0  0
  9 10  2  0  0  0  0
 18 19  1  0  0  0  0
 19 29  1  0  0  0  0
 19 20  2  0  0  0  0
 21 22  1  0  0  0  0
 22 23  1  0  0  0  0
 22 24  2  0  0  0  0
 30 33  1  0  0  0  0
  8 11  1  0  0  0  0
 39 40  1  0  0  0  0
 18 21  1  0  0  0  0
 29 30  1  0  0  0  0
  7  8  1  0  0  0  0
 17 18  1  0  0  0  0
  3  4  1  0  0  0  0
  3  5  1  0  0  0  0
  3  6  1  0  0  0  0
 33 36  1  0  0  0  0
 33 37  1  0  0  0  0
 33 38  1  0  0  0  0
 11 14  1  0  0  0  0
 11 15  1  0  0  0  0
 11 16  1  0  0  0  0
 40 42  1  0  0  0  0
 40 43  1  0  0  0  0
 40 44  1  0  0  0  0
 21 27  1  0  0  0  0
 21 28  1  0  0  0  0
 30 35  1  0  0  0  0
  8 13  1  0  0  0  0
 18 26  1  0  0  0  0
 39 41  1  0  0  0  0
  7 12  1  0  0  0  0
 29 34  1  0  0  0  0
 17 25  1  0  0  0  0
M  CHG  1  23  -1
M  END
$$$$

  -OEChem-05262214473D

 44 43  0     1  0  0  0  0  0999 V2000
   -4.0256   -1.8030   -2.1581 C   0  0  0  0  0  0  0  0  0  0  0  0
   -3.7513   -2.6782   -2.9709 O   0  0  0  0  0  0  0  0  0  0  0  0
   -5.3491   -1.1169   -2.2339 C   0  0  0  0  0  0  0  0  0  0  0  0
   -5.3223   -0.2211   -2.8750 H   0  0  0  0  0  0  0  0  0  0  0  0
   -6.1322   -1.7605   -2.6658 H   0  0  0  0  0  0  0  0  0  0  0  0
   -5.7568   -0.7715   -1.2704 H   0  0  0  0  0  0  0  0  0  0  0  0
   -3.2124   -1.3578   -1.1289 N   0  0  0  0  0  0  0  0  0  0  0  0
   -1.8971   -1.8843   -0.8752 C   0  0  2  0  0  0  0  0  0  0  0  0
   -1.2676   -1.0599    0.2399 C   0  0  0  0  0  0  0  0  0  0  0  0
   -1.6270    0.0833    0.5138 O   0  0  0  0  0  0  0  0  0  0  0  0
   -1.0364   -1.8506   -2.1285 C   0  0  0  0  0  0  0  0  0  0  0  0
   -3.5631   -0.6202   -0.5206 H   0  0  0  0  0  0  0  0  0  0  0  0
   -2.0301   -2.9174   -0.5360 H   0  0  0  0  0  0  0  0  0  0  0  0
   -0.8921   -0.8236   -2.4833 H   0  0  0  0  0  0  0  0  0  0  0  0
   -0.0457   -2.2777   -1.9410 H   0  0  0  0  0  0  0  0  0  0  0  0
   -1.5052   -2.4193   -2.9387 H   0  0  0  0  0  0  0  0  0  0  0  0
   -0.2267   -1.7335    0.8672 N   0  0  0  0  0  0  0  0  0  0  0  0
    0.5363   -1.1590    1.9465 C   0  0  2  0  0  0  0  0  0  0  0  0
    0.5511    0.3504    1.7336 C   0  0  0  0  0  0  0  0  0  0  0  0
    1.4973    1.0641    2.0597 O   0  0  0  0  0  0  0  0  0  0  0  0
    1.9603   -1.7084    1.9904 C   0  0  0  0  0  0  0  0  0  0  0  0
    2.1110   -3.1803    2.3955 C   0  0  0  0  0  0  0  0  0  0  0  0
    1.2013   -3.5986    3.1690 O   0  5  0  0  0  0  0  0  0  0  0  0
    3.1090   -3.7953    1.9300 O   0  0  0  0  0  0  0  0  0  0  0  0
   -0.0113   -2.6869    0.5854 H   0  0  0  0  0  0  0  0  0  0  0  0
   -0.0051   -1.3871    2.8716 H   0  0  0  0  0  0  0  0  0  0  0  0
    2.5677   -1.1052    2.6790 H   0  0  0  0  0  0  0  0  0  0  0  0
    2.4246   -1.6110    1.0004 H   0  0  0  0  0  0  0  0  0  0  0  0
   -0.5943    0.7977    1.0899 N   0  0  0  0  0  0  0  0  0  0  0  0
   -0.8068    2.1842    0.7453 C   0  0  2  0  0  0  0  0  0  0  0  0
   -2.3040    2.4581    0.7995 C   0  0  0  0  0  0  0  0  0  0  0  0
   -3.1518    1.5744    0.6938 O   0  0  0  0  0  0  0  0  0  0  0  0
   -0.2450    2.5047   -0.6311 C   0  0  0  0  0  0  0  0  0  0  0  0
   -1.3059    0.1275    0.8138 H   0  0  0  0  0  0  0  0  0  0  0  0
   -0.2977    2.7816    1.5095 H   0  0  0  0  0  0  0  0  0  0  0  0
   -0.7429    1.9156   -1.4099 H   0  0  0  0  0  0  0  0  0  0  0  0
   -0.3815    3.5625   -0.8788 H   0  0  0  0  0  0  0  0  0  0  0  0
    0.8258    2.2790   -0.6772 H   0  0  0  0  0  0  0  0  0  0  0  0
   -2.5824    3.8109    0.9365 N   0  0  0  0  0  0  0  0  0  0  0  0
   -3.9298    4.3270    0.9994 C   0  0  0  0  0  0  0  0  0  0  0  0
   -1.8168    4.4710    1.0359 H   0  0  0  0  0  0  0  0  0  0  0  0
   -4.2646    4.6037   -0.0112 H   0  0  0  0  0  0  0  0  0  0  0  0
   -4.5990    3.5560    1.4089 H   0  0  0  0  0  0  0  0  0  0  0  0
   -3.9524    5.2146    1.6488 H   0  0  0  0  0  0  0  0  0  0  0  0
  1  3  1  0  0  0  0
  1  7  1  0  0  0  0
  1  2  2  0  0  0  0
 30 31  1  0  0  0  0
 31 39  1  0  0  0  0
 31 32  2  0  0  0  0
  8  9  1  0  0  0  0
  9 17  1  0  0  0  0
  9 10  2  0  0  0  0
 18 19  1  0  0  0  0
 19 29  1  0  0  0  0
 19 20  2  0  0  0  0
 21 22  1  0  0  0  0
 22 23  1  0  0  0  0
 22 24  2  0  0  0  0
 30 33  1  0  0  0  0
  8 11  1  0  0  0  0
 39 40  1  0  0  0  0
 18 21  1  0  0  0  0
 29 30  1  0  0  0  0
  7  8  1  0  0  0  0
 17 18  1  0  0  0  0
  3  4  1  0  0  0  0
  3  5  1  0  0  0  0
  3  6  1  0  0  0  0
 33 36  1  0  0  0  0
 33 37  1  0  0  0  0
 33 38  1  0  0  0  0
 11 14  1  0  0  0  0
 11 15  1  0  0  0  0
 11 16  1  0  0  0  0
 40 42  1  0  0  0  0
 40 43  1  0  0  0  0
 40 44  1  0  0  0  0
 21 27  1  0  0  0  0
 21 28  1  0  0  0  0
 30 35  1  0  0  0  0
  8 13  1  0  0  0  0
 18 26  1  0  0  0  0
 39 41  1  0  0  0  0
  7 12  1  0  0  0  0
 29 34  1  0  0  0  0
 17 25  1  0  0  0  0
M  CHG  1  23  -1
M  END
$$$$

  -OEChem-05262214473D

 44 43  0     1  0  0  0  0  0999 V2000
   -4.0256   -1.8030   -2.1581 C   0  0  0  0  0  0  0  0  0  0  0  0
   -3.7513   -2.6782   -2.9709 O   0  0  0  0  0  0  0  0  0  0  0  0
   -5.3491   -1.1169   -2.2339 C   0  0  0  0  0  0  0  0  0  0  0  0
   -5.3223   -0.2211   -2.8750 H   0  0  0  0  0  0  0  0  0  0  0  0
   -6.1322   -1.7605   -2.6658 H   0  0  0  0  0  0  0  0  0  0  0  0
   -5.7568   -0.7715   -1.2704 H   0  0  0  0  0  0  0  0  0  0  0  0
   -3.2124   -1.3578   -1.1289 N   0  0  0  0  0  0  0  0  0  0  0  0
   -1.8971   -1.8843   -0.8752 C   0  0  2  0  0  0  0  0  0  0  0  0
   -1.2676   -1.0599    0.2399 C   0  0  0  0  0  0  0  0  0  0  0  0
   -1.6270    0.0833    0.5138 O   0  0  0  0  0  0  0  0  0  0  0  0
   -1.0364   -1.8506   -2.1285 C   0  0  0  0  0  0  0  0  0  0  0  0
   -3.5631   -0.6202   -0.5206 H   0  0  0  0  0  0  0  0  0  0  0  0
   -2.0301   -2.9174   -0.5360 H   0  0  0  0  0  0  0  0  0  0  0  0
   -0.8921   -0.8236   -2.4833 H   0  0  0  0  0  0  0  0  0  0  0  0
   -0.0457   -2.2777   -1.9410 H   0  0  0  0  0  0  0  0  0  0  0  0
   -1.5052   -2.4193   -2.9387 H   0  0  0  0  0  0  0  0  0  0  0  0
   -0.2267   -1.7335    0.8672 N   0  0  0  0  0  0  0  0  0  0  0  0
    0.5363   -1.1590    1.9465 C   0  0  2  0  0  0  0  0  0  0  0  0
    0.5511    0.3504    1.7336 C   0  0  0  0  0  0  0  0  0  0  0  0
    1.5747    1.0274    1.8047 O   0  0  0  0  0  0  0  0  0  0  0  0
    1.9603   -1.7084    1.9904 C   0  0  0  0  0  0  0  0  0  0  0  0
    2.1110   -3.1803    2.3955 C   0  0  0  0  0  0  0  0  0  0  0  0
    1.2013   -3.5986    3.1690 O   0  5  0  0  0  0  0  0  0  0  0  0
    3.1090   -3.7953    1.9300 O   0  0  0  0  0  0  0  0  0  0  0  0
   -0.0113   -2.6869    0.5854 H   0  0  0  0  0  0  0  0  0  0  0  0
   -0.0051   -1.3871    2.8716 H   0  0  0  0  0  0  0  0  0  0  0  0
    2.5677   -1.1052    2.6790 H   0  0  0  0  0  0  0  0  0  0  0  0
    2.4246   -1.6110    1.0004 H   0  0  0  0  0  0  0  0  0  0  0  0
   -0.7039    0.8430    1.4040 N   0  0  0  0  0  0  0  0  0  0  0  0
   -0.9469    2.2387    1.1223 C   0  0  2  0  0  0  0  0  0  0  0  0
   -2.3692    2.5657    1.5579 C   0  0  0  0  0  0  0  0  0  0  0  0
   -3.2475    1.7137    1.6749 O   0  0  0  0  0  0  0  0  0  0  0  0
   -0.7452    2.5488   -0.3528 C   0  0  0  0  0  0  0  0  0  0  0  0
   -1.4865    0.2008    1.3210 H   0  0  0  0  0  0  0  0  0  0  0  0
   -0.2376    2.8120    1.7292 H   0  0  0  0  0  0  0  0  0  0  0  0
   -1.4472    1.9836   -0.9767 H   0  0  0  0  0  0  0  0  0  0  0  0
   -0.9019    3.6127   -0.5596 H   0  0  0  0  0  0  0  0  0  0  0  0
    0.2691    2.2853   -0.6713 H   0  0  0  0  0  0  0  0  0  0  0  0
   -2.5537    3.9265    1.7587 N   0  0  0  0  0  0  0  0  0  0  0  0
   -3.8203    4.4901    2.1637 C   0  0  0  0  0  0  0  0  0  0  0  0
   -1.7647    4.5581    1.6570 H   0  0  0  0  0  0  0  0  0  0  0  0
   -4.3925    4.7859    1.2720 H   0  0  0  0  0  0  0  0  0  0  0  0
   -4.3898    3.7406    2.7328 H   0  0  0  0  0  0  0  0  0  0  0  0
   -3.6433    5.3733    2.7952 H   0  0  0  0  0  0  0  0  0  0  0  0
  1  3  1  0  0  0  0
  1  7  1  0  0  0  0
  1  2  2  0  0  0  0
 30 31  1  0  0  0  0
 31 39  1  0  0  0  0
 31 32  2  0  0  0  0
  8  9  1  0  0  0  0
  9 17  1  0  0  0  0
  9 10  2  0  0  0  0
 18 19  1  0  0  0  0
 19 29  1  0  0  0  0
 19 20  2  0  0  0  0
 21 22  1  0  0  0  0
 22 23  1  0  0  0  0
 22 24  2  0  0  0  0
 30 33  1  0  0  0  0
  8 11  1  0  0  0  0
 39 40  1  0  0  0  0
 18 21  1  0  0  0  0
 29 30  1  0  0  0  0
  7  8  1  0  0  0  0
 17 18  1  0  0  0  0
  3  4  1  0  0  0  0
  3  5  1  0  0  0  0
  3  6  1  0  0  0  0
 33 36  1  0  0  0  0
 33 37  1  0  0  0  0
 33 38  1  0  0  0  0
 11 14  1  0  0  0  0
 11 15  1  0  0  0  0
 11 16  1  0  0  0  0
 40 42  1  0  0  0  0
 40 43  1  0  0  0  0
 40 44  1  0  0  0  0
 21 27  1  0  0  0  0
 21 28  1  0  0  0  0
 30 35  1  0  0  0  0
  8 13  1  0  0  0  0
 18 26  1  0  0  0  0
 39 41  1  0  0  0  0
  7 12  1  0  0  0  0
 29 34  1  0  0  0  0
 17 25  1  0  0  0  0
M  CHG  1  23  -1
M  END
$$$$

  -OEChem-05262214473D

 44 43  0     1  0  0  0  0  0999 V2000
   -4.0256   -1.8030   -2.1581 C   0  0  0  0  0  0  0  0  0  0  0  0
   -3.7513   -2.6782   -2.9709 O   0  0  0  0  0  0  0  0  0  0  0  0
   -5.3491   -1.1169   -2.2339 C   0  0  0  0  0  0  0  0  0  0  0  0
   -5.3223   -0.2211   -2.8750 H   0  0  0  0  0  0  0  0  0  0  0  0
   -6.1322   -1.7605   -2.6658 H   0  0  0  0  0  0  0  0  0  0  0  0
   -5.7568   -0.7715   -1.2704 H   0  0  0  0  0  0  0  0  0  0  0  0
   -3.2124   -1.3578   -1.1289 N   0  0  0  0  0  0  0  0  0  0  0  0
   -1.8971   -1.8843   -0.8752 C   0  0  2  0  0  0  0  0  0  0  0  0
   -1.2676   -1.0599    0.2399 C   0  0  0  0  0  0  0  0  0  0  0  0
   -1.6270    0.0833    0.5138 O   0  0  0  0  0  0  0  0  0  0  0  0
   -1.0364   -1.8506   -2.1285 C   0  0  0  0  0  0  0  0  0  0  0  0
   -3.5631   -0.6202   -0.5206 H   0  0  0  0  0  0  0  0  0  0  0  0
   -2.0301   -2.9174   -0.5360 H   0  0  0  0  0  0  0  0  0  0  0  0
   -0.8921   -0.8236   -2.4833 H   0  0  0  0  0  0  0  0  0  0  0  0
   -0.0457   -2.2777   -1.9410 H   0  0  0  0  0  0  0  0  0  0  0  0
   -1.5052   -2.4193   -2.9387 H   0  0  0  0  0  0  0  0  0  0  0  0
   -0.2267   -1.7335    0.8672 N   0  0  0  0  0  0  0  0  0  0  0  0
    0.5363   -1.1590    1.9465 C   0  0  2  0  0  0  0  0  0  0  0  0
    0.5511    0.3504    1.7336 C   0  0  0  0  0  0  0  0  0  0  0  0
    1.5827    0.9898    1.5385 O   0  0  0  0  0  0  0  0  0  0  0  0
    1.9603   -1.7084    1.9904 C   0  0  0  0  0  0  0  0  0  0  0  0
    2.1110   -3.1803    2.3955 C   0  0  0  0  0  0  0  0  0  0  0  0
    1.2013   -3.5986    3.1690 O   0  5  0  0  0  0  0  0  0  0  0  0
    3.1090   -3.7953    1.9300 O   0  0  0  0  0  0  0  0  0  0  0  0
   -0.0113   -2.6869    0.5854 H   0  0  0  0  0  0  0  0  0  0  0  0
   -0.0051   -1.3871    2.8716 H   0  0  0  0  0  0  0  0  0  0  0  0
    2.5677   -1.1052    2.6790 H   0  0  0  0  0  0  0  0  0  0  0  0
    2.4246   -1.6110    1.0004 H   0  0  0  0  0  0  0  0  0  0  0  0
   -0.7276    0.8900    1.7355 N   0  0  0  0  0  0  0  0  0  0  0  0
   -0.9836    2.2955    1.5225 C   0  0  2  0  0  0  0  0  0  0  0  0
   -2.2339    2.6701    2.3073 C   0  0  0  0  0  0  0  0  0  0  0  0
   -3.0834    1.8492    2.6475 O   0  0  0  0  0  0  0  0  0  0  0  0
   -1.1555    2.6089    0.0444 C   0  0  0  0  0  0  0  0  0  0  0  0
   -1.5282    0.2768    1.8574 H   0  0  0  0  0  0  0  0  0  0  0  0
   -0.1221    2.8386    1.9261 H   0  0  0  0  0  0  0  0  0  0  0  0
   -2.0140    2.0737   -0.3775 H   0  0  0  0  0  0  0  0  0  0  0  0
   -1.3210    3.6791   -0.1177 H   0  0  0  0  0  0  0  0  0  0  0  0
   -0.2670    2.3115   -0.5230 H   0  0  0  0  0  0  0  0  0  0  0  0
   -2.3110    4.0351    2.5458 N   0  0  0  0  0  0  0  0  0  0  0  0
   -3.4102    4.6408    3.2607 C   0  0  0  0  0  0  0  0  0  0  0  0
   -1.5520    4.6388    2.2439 H   0  0  0  0  0  0  0  0  0  0  0  0
   -4.1806    4.9633    2.5448 H   0  0  0  0  0  0  0  0  0  0  0  0
   -3.8418    3.9081    3.9583 H   0  0  0  0  0  0  0  0  0  0  0  0
   -3.0452    5.5125    3.8238 H   0  0  0  0  0  0  0  0  0  0  0  0
  1  3  1  0  0  0  0
  1  7  1  0  0  0  0
  1  2  2  0  0  0  0
 30 31  1  0  0  0  0
 31 39  1  0  0  0  0
 31 32  2  0  0  0  0
  8  9  1  0  0  0  0
  9 17  1  0  0  0  0
  9 10  2  0  0  0  0
 18 19  1  0  0  0  0
 19 29  1  0  0  0  0
 19 20  2  0  0  0  0
 21 22  1  0  0  0  0
 22 23  1  0  0  0  0
 22 24  2  0  0  0  0
 30 33  1  0  0  0  0
  8 11  1  0  0  0  0
 39 40  1  0  0  0  0
 18 21  1  0  0  0  0
 29 30  1  0  0  0  0
  7  8  1  0  0  0  0
 17 18  1  0  0  0  0
  3  4  1  0  0  0  0
  3  5  1  0  0  0  0
  3  6  1  0  0  0  0
 33 36  1  0  0  0  0
 33 37  1  0  0  0  0
 33 38  1  0  0  0  0
 11 14  1  0  0  0  0
 11 15  1  0  0  0  0
 11 16  1  0  0  0  0
 40 42  1  0  0  0  0
 40 43  1  0  0  0  0
 40 44  1  0  0  0  0
 21 27  1  0  0  0  0
 21 28  1  0  0  0  0
 30 35  1  0  0  0  0
  8 13  1  0  0  0  0
 18 26  1  0  0  0  0
 39 41  1  0  0  0  0
  7 12  1  0  0  0  0
 29 34  1  0  0  0  0
 17 25  1  0  0  0  0
M  CHG  1  23  -1
M  END
$$$$

  -OEChem-05262214473D

 44 43  0     1  0  0  0  0  0999 V2000
   -4.0256   -1.8030   -2.1581 C   0  0  0  0  0  0  0  0  0  0  0  0
   -3.7513   -2.6782   -2.9709 O   0  0  0  0  0  0  0  0  0  0  0  0
   -5.3491   -1.1169   -2.2339 C   0  0  0  0  0  0  0  0  0  0  0  0
   -5.3223   -0.2211   -2.8750 H   0  0  0  0  0  0  0  0  0  0  0  0
   -6.1322   -1.7605   -2.6658 H   0  0  0  0  0  0  0  0  0  0  0  0
   -5.7568   -0.7715   -1.2704 H   0  0  0  0  0  0  0  0  0  0  0  0
   -3.2124   -1.3578   -1.1289 N   0  0  0  0  0  0  0  0  0  0  0  0
   -1.8971   -1.8843   -0.8752 C   0  0  2  0  0  0  0  0  0  0  0  0
   -1.2676   -1.0599    0.2399 C   0  0  0  0  0  0  0  0  0  0  0  0
   -1.6270    0.0833    0.5138 O   0  0  0  0  0  0  0  0  0  0  0  0
   -1.0364   -1.8506   -2.1285 C   0  0  0  0  0  0  0  0  0  0  0  0
   -3.5631   -0.6202   -0.5206 H   0  0  0  0  0  0  0  0  0  0  0  0
   -2.0301   -2.9174   -0.5360 H   0  0  0  0  0  0  0  0  0  0  0  0
   -0.8921   -0.8236   -2.4833 H   0  0  0  0  0  0  0  0  0  0  0  0
   -0.0457   -2.2777   -1.9410 H   0  0  0  0  0  0  0  0  0  0  0  0
   -1.5052   -2.4193   -2.9387 H   0  0  0  0  0  0  0  0  0  0  0  0
   -0.2267   -1.7335    0.8672 N   0  0  0  0  0  0  0  0  0  0  0  0
    0.5363   -1.1590    1.9465 C   0  0  2  0  0  0  0  0  0  0  0  0
    0.5511    0.3504    1.7336 C   0  0  0  0  0  0  0  0  0  0  0  0
    1.5209    0.9538    1.2792 O   0  0  0  0  0  0  0  0  0  0  0  0
    1.9603   -1.7084    1.9904 C   0  0  0  0  0  0  0  0  0  0  0  0
    2.1110   -3.1803    2.3955 C   0  0  0  0  0  0  0  0  0  0  0  0
    1.2013   -3.5986    3.1690 O   0  5  0  0  0  0  0  0  0  0  0  0
    3.1090   -3.7953    1.9300 O   0  0  0  0  0  0  0  0  0  0  0  0
   -0.0113   -2.6869    0.5854 H   0  0  0  0  0  0  0  0  0  0  0  0
   -0.0051   -1.3871    2.8716 H   0  0  0  0  0  0  0  0  0  0  0  0
    2.5677   -1.1052    2.6790 H   0  0  0  0  0  0  0  0  0  0  0  0
    2.4246   -1.6110    1.0004 H   0  0  0  0  0  0  0  0  0  0  0  0
   -0.6639    0.9354    2.0620 N   0  0  0  0  0  0  0  0  0  0  0  0
   -0.9145    2.3507    1.9187 C   0  0  2  0  0  0  0  0  0  0  0  0
   -1.9074    2.7641    2.9969 C   0  0  0  0  0  0  0  0  0  0  0  0
   -2.6707    1.9718    3.5452 O   0  0  0  0  0  0  0  0  0  0  0  0
   -1.4478    2.6807    0.5332 C   0  0  0  0  0  0  0  0  0  0  0  0
   -1.4283    0.3504    2.3864 H   0  0  0  0  0  0  0  0  0  0  0  0
    0.0409    2.8597    2.0867 H   0  0  0  0  0  0  0  0  0  0  0  0
   -2.4047    2.1796    0.3467 H   0  0  0  0  0  0  0  0  0  0  0  0
   -1.6102    3.7573    0.4166 H   0  0  0  0  0  0  0  0  0  0  0  0
   -0.7458    2.3557   -0.2422 H   0  0  0  0  0  0  0  0  0  0  0  0
   -1.8711    4.1293    3.2441 N   0  0  0  0  0  0  0  0  0  0  0  0
   -2.7275    4.7688    4.2155 C   0  0  0  0  0  0  0  0  0  0  0  0
   -1.1932    4.7076    2.7564 H   0  0  0  0  0  0  0  0  0  0  0  0
   -3.6433    5.1238    3.7203 H   0  0  0  0  0  0  0  0  0  0  0  0
   -2.9924    4.0470    5.0021 H   0  0  0  0  0  0  0  0  0  0  0  0
   -2.1989    5.6227    4.6643 H   0  0  0  0  0  0  0  0  0  0  0  0
  1  3  1  0  0  0  0
  1  7  1  0  0  0  0
  1  2  2  0  0  0  0
 30 31  1  0  0  0  0
 31 39  1  0  0  0  0
 31 32  2  0  0  0  0
  8  9  1  0  0  0  0
  9 17  1  0  0  0  0
  9 10  2  0  0  0  0
 18 19  1  0  0  0  0
 19 29  1  0  0  0  0
 19 20  2  0  0  0  0
 21 22  1  0  0  0  0
 22 23  1  0  0  0  0
 22 24  2  0  0  0  0
 30 33  1  0  0  0  0
  8 11  1  0  0  0  0
 39 40  1  0  0  0  0
 18 21  1  0  0  0  0
 29 30  1  0  0  0  0
  7  8  1  0  0  0  0
 17 18  1  0  0  0  0
  3  4  1  0  0  0  0
  3  5  1  0  0  0  0
  3  6  1  0  0  0  0
 33 36  1  0  0  0  0
 33 37  1  0  0  0  0
 33 38  1  0  0  0  0
 11 14  1  0  0  0  0
 11 15  1  0  0  0  0
 11 16  1  0  0  0  0
 40 42  1  0  0  0  0
 40 43  1  0  0  0  0
 40 44  1  0  0  0  0
 21 27  1  0  0  0  0
 21 28  1  0  0  0  0
 30 35  1  0  0  0  0
  8 13  1  0  0  0  0
 18 26  1  0  0  0  0
 39 41  1  0  0  0  0
  7 12  1  0  0  0  0
 29 34  1  0  0  0  0
 17 25  1  0  0  0  0
M  CHG  1  23  -1
M  END
$$$$

  -OEChem-05262214473D

 44 43  0     1  0  0  0  0  0999 V2000
   -4.0256   -1.8030   -2.1581 C   0  0  0  0  0  0  0  0  0  0  0  0
   -3.7513   -2.6782   -2.9709 O   0  0  0  0  0  0  0  0  0  0  0  0
   -5.3491   -1.1169   -2.2339 C   0  0  0  0  0  0  0  0  0  0  0  0
   -5.3223   -0.2211   -2.8750 H   0  0  0  0  0  0  0  0  0  0  0  0
   -6.1322   -1.7605   -2.6658 H   0  0  0  0  0  0  0  0  0  0  0  0
   -5.7568   -0.7715   -1.2704 H   0  0  0  0  0  0  0  0  0  0  0  0
   -3.2124   -1.3578   -1.1289 N   0  0  0  0  0  0  0  0  0  0  0  0
   -1.8971   -1.8843   -0.8752 C   0  0  2  0  0  0  0  0  0  0  0  0
   -1.2676   -1.0599    0.2399 C   0  0  0  0  0  0  0  0  0  0  0  0
   -1.6270    0.0833    0.5138 O   0  0  0  0  0  0  0  0  0  0  0  0
   -1.0364   -1.8506   -2.1285 C   0  0  0  0  0  0  0  0  0  0  0  0
   -3.5631   -0.6202   -0.5206 H   0  0  0  0  0  0  0  0  0  0  0  0
   -2.0301   -2.9174   -0.5360 H   0  0  0  0  0  0  0  0  0  0  0  0
   -0.8921   -0.8236   -2.4833 H   0  0  0  0  0  0  0  0  0  0  0  0
   -0.0457   -2.2777   -1.9410 H   0  0  0  0  0  0  0  0  0  0  0  0
   -1.5052   -2.4193   -2.9387 H   0  0  0  0  0  0  0  0  0  0  0  0
   -0.2267   -1.7335    0.8672 N   0  0  0  0  0  0  0  0  0  0  0  0
    0.5363   -1.1590    1.9465 C   0  0  2  0  0  0  0  0  0  0  0  0
    0.5511    0.3504    1.7336 C   0  0  0  0  0  0  0  0  0  0  0  0
    1.3934    0.9220    1.0444 O   0  0  0  0  0  0  0  0  0  0  0  0
    1.9603   -1.7084    1.9904 C   0  0  0  0  0  0  0  0  0  0  0  0
    2.1110   -3.1803    2.3955 C   0  0  0  0  0  0  0  0  0  0  0  0
    1.2013   -3.5986    3.1690 O   0  5  0  0  0  0  0  0  0  0  0  0
    3.1090   -3.7953    1.9300 O   0  0  0  0  0  0  0  0  0  0  0  0
   -0.0113   -2.6869    0.5854 H   0  0  0  0  0  0  0  0  0  0  0  0
   -0.0051   -1.3871    2.8716 H   0  0  0  0  0  0  0  0  0  0  0  0
    2.5677   -1.1052    2.6790 H   0  0  0  0  0  0  0  0  0  0  0  0
    2.4246   -1.6110    1.0004 H   0  0  0  0  0  0  0  0  0  0  0  0
   -0.5170    0.9762    2.3612 N   0  0  0  0  0  0  0  0  0  0  0  0
   -0.7442    2.4005    2.2837 C   0  0  2  0  0  0  0  0  0  0  0  0
   -1.4120    2.8414    3.5795 C   0  0  0  0  0  0  0  0  0  0  0  0
   -2.0376    2.0730    4.3069 O   0  0  0  0  0  0  0  0  0  0  0  0
   -1.6023    2.7594    1.0806 C   0  0  0  0  0  0  0  0  0  0  0  0
   -1.1936    0.4166    2.8719 H   0  0  0  0  0  0  0  0  0  0  0  0
    0.2403    2.8737    2.2001 H   0  0  0  0  0  0  0  0  0  0  0  0
   -2.5927    2.2943    1.1466 H   0  0  0  0  0  0  0  0  0  0  0  0
   -1.7498    3.8419    1.0071 H   0  0  0  0  0  0  0  0  0  0  0  0
   -1.1347    2.4151    0.1518 H   0  0  0  0  0  0  0  0  0  0  0  0
   -1.2637    4.2026    3.8062 N   0  0  0  0  0  0  0  0  0  0  0  0
   -1.8187    4.8654    4.9632 C   0  0  0  0  0  0  0  0  0  0  0  0
   -0.7128    4.7597    3.1597 H   0  0  0  0  0  0  0  0  0  0  0  0
   -2.8173    5.2565    4.7185 H   0  0  0  0  0  0  0  0  0  0  0  0
   -1.8994    4.1478    5.7930 H   0  0  0  0  0  0  0  0  0  0  0  0
   -1.1620    5.6965    5.2597 H   0  0  0  0  0  0  0  0  0  0  0  0
  1  3  1  0  0  0  0
  1  7  1  0  0  0  0
  1  2  2  0  0  0  0
 30 31  1  0  0  0  0
 31 39  1  0  0  0  0
 31 32  2  0  0  0  0
  8  9  1  0  0  0  0
  9 17  1  0  0  0  0
  9 10  2  0  0  0  0
 18 19  1  0  0  0  0
 19 29  1  0  0  0  0
 19 20  2  0  0  0  0
 21 22  1  0  0  0  0
 22 23  1  0  0  0  0
 22 24  2  0  0  0  0
 30 33  1  0  0  0  0
  8 11  1  0  0  0  0
 39 40  1  0  0  0  0
 18 21  1  0  0  0  0
 29 30  1  0  0  0  0
  7  8  1  0  0  0  0
 17 18  1  0  0  0  0
  3  4  1  0  0  0  0
  3  5  1  0  0  0  0
  3  6  1  0  0  0  0
 33 36  1  0  0  0  0
 33 37  1  0  0  0  0
 33 38  1  0  0  0  0
 11 14  1  0  0  0  0
 11 15  1  0  0  0  0
 11 16  1  0  0  0  0
 40 42  1  0  0  0  0
 40 43  1  0  0  0  0
 40 44  1  0  0  0  0
 21 27  1  0  0  0  0
 21 28  1  0  0  0  0
 30 35  1  0  0  0  0
  8 13  1  0  0  0  0
 18 26  1  0  0  0  0
 39 41  1  0  0  0  0
  7 12  1  0  0  0  0
 29 34  1  0  0  0  0
 17 25  1  0  0  0  0
M  CHG  1  23  -1
M  END
$$$$

  -OEChem-05262214473D

 44 43  0     1  0  0  0  0  0999 V2000
   -4.0256   -1.8030   -2.1581 C   0  0  0  0  0  0  0  0  0  0  0  0
   -3.7513   -2.6782   -2.9709 O   0  0  0  0  0  0  0  0  0  0  0  0
   -5.3491   -1.1169   -2.2339 C   0  0  0  0  0  0  0  0  0  0  0  0
   -5.3223   -0.2211   -2.8750 H   0  0  0  0  0  0  0  0  0  0  0  0
   -6.1322   -1.7605   -2.6658 H   0  0  0  0  0  0  0  0  0  0  0  0
   -5.7568   -0.7715   -1.2704 H   0  0  0  0  0  0  0  0  0  0  0  0
   -3.2124   -1.3578   -1.1289 N   0  0  0  0  0  0  0  0  0  0  0  0
   -1.8971   -1.8843   -0.8752 C   0  0  2  0  0  0  0  0  0  0  0  0
   -1.2676   -1.0599    0.2399 C   0  0  0  0  0  0  0  0  0  0  0  0
   -1.6270    0.0833    0.5138 O   0  0  0  0  0  0  0  0  0  0  0  0
   -1.0364   -1.8506   -2.1285 C   0  0  0  0  0  0  0  0  0  0  0  0
   -3.5631   -0.6202   -0.5206 H   0  0  0  0  0  0  0  0  0  0  0  0
   -2.0301   -2.9174   -0.5360 H   0  0  0  0  0  0  0  0  0  0  0  0
   -0.8921   -0.8236   -2.4833 H   0  0  0  0  0  0  0  0  0  0  0  0
   -0.0457   -2.2777   -1.9410 H   0  0  0  0  0  0  0  0  0  0  0  0
   -1.5052   -2.4193   -2.9387 H   0  0  0  0  0  0  0  0  0  0  0  0
   -0.2267   -1.7335    0.8672 N   0  0  0  0  0  0  0  0  0  0  0  0
    0.5363   -1.1590    1.9465 C   0  0  2  0  0  0  0  0  0  0  0  0
    0.5511    0.3504    1.7336 C   0  0  0  0  0  0  0  0  0  0  0  0
    1.2089    0.8964    0.8503 O   0  0  0  0  0  0  0  0  0  0  0  0
    1.9603   -1.7084    1.9904 C   0  0  0  0  0  0  0  0  0  0  0  0
    2.1110   -3.1803    2.3955 C   0  0  0  0  0  0  0  0  0  0  0  0
    1.2013   -3.5986    3.1690 O   0  5  0  0  0  0  0  0  0  0  0  0
    3.1090   -3.7953    1.9300 O   0  0  0  0  0  0  0  0  0  0  0  0
   -0.0113   -2.6869    0.5854 H   0  0  0  0  0  0  0  0  0  0  0  0
   -0.0051   -1.3871    2.8716 H   0  0  0  0  0  0  0  0  0  0  0  0
    2.5677   -1.1052    2.6790 H   0  0  0  0  0  0  0  0  0  0  0  0
    2.4246   -1.6110    1.0004 H   0  0  0  0  0  0  0  0  0  0  0  0
   -0.2970    1.0095    2.6126 N   0  0  0  0  0  0  0  0  0  0  0  0
   -0.4843    2.4416    2.5928 C   0  0  2  0  0  0  0  0  0  0  0  0
   -0.7813    2.8968    4.0155 C   0  0  0  0  0  0  0  0  0  0  0  0
   -1.2273    2.1460    4.8807 O   0  0  0  0  0  0  0  0  0  0  0  0
   -1.6084    2.8396    1.6490 C   0  0  0  0  0  0  0  0  0  0  0  0
   -0.8401    0.4708    3.2810 H   0  0  0  0  0  0  0  0  0  0  0  0
    0.4624    2.8798    2.2586 H   0  0  0  0  0  0  0  0  0  0  0  0
   -2.5651    2.4098    1.9677 H   0  0  0  0  0  0  0  0  0  0  0  0
   -1.7302    3.9272    1.6134 H   0  0  0  0  0  0  0  0  0  0  0  0
   -1.4073    2.4855    0.6322 H   0  0  0  0  0  0  0  0  0  0  0  0
   -0.5304    4.2501    4.1936 N   0  0  0  0  0  0  0  0  0  0  0  0
   -0.7458    4.9239    5.4528 C   0  0  0  0  0  0  0  0  0  0  0  0
   -0.1435    4.7918    3.4263 H   0  0  0  0  0  0  0  0  0  0  0  0
   -1.7588    5.3523    5.4714 H   0  0  0  0  0  0  0  0  0  0  0  0
   -0.6373    4.2037    6.2771 H   0  0  0  0  0  0  0  0  0  0  0  0
   -0.0052    5.7289    5.5692 H   0  0  0  0  0  0  0  0  0  0  0  0
  1  3  1  0  0  0  0
  1  7  1  0  0  0  0
  1  2  2  0  0  0  0
 30 31  1  0  0  0  0
 31 39  1  0  0  0  0
 31 32  2  0  0  0  0
  8  9  1  0  0  0  0
  9 17  1  0  0  0  0
  9 10  2  0  0  0  0
 18 19  1  0  0  0  0
 19 29  1  0  0  0  0
 19 20  2  0  0  0  0
 21 22  1  0  0  0  0
 22 23  1  0  0  0  0
 22 24  2  0  0  0  0
 30 33  1  0  0  0  0
  8 11  1  0  0  0  0
 39 40  1  0  0  0  0
 18 21  1  0  0  0  0
 29 30  1  0  0  0  0
  7  8  1  0  0  0  0
 17 18  1  0  0  0  0
  3  4  1  0  0  0  0
  3  5  1  0  0  0  0
  3  6  1  0  0  0  0
 33 36  1  0  0  0  0
 33 37  1  0  0  0  0
 33 38  1  0  0  0  0
 11 14  1  0  0  0  0
 11 15  1  0  0  0  0
 11 16  1  0  0  0  0
 40 42  1  0  0  0  0
 40 43  1  0  0  0  0
 40 44  1  0  0  0  0
 21 27  1  0  0  0  0
 21 28  1  0  0  0  0
 30 35  1  0  0  0  0
  8 13  1  0  0  0  0
 18 26  1  0  0  0  0
 39 41  1  0  0  0  0
  7 12  1  0  0  0  0
 29 34  1  0  0  0  0
 17 25  1  0  0  0  0
M  CHG  1  23  -1
M  END
$$$$

  -OEChem-05262214473D

 44 43  0     1  0  0  0  0  0999 V2000
   -4.0256   -1.8030   -2.1581 C   0  0  0  0  0  0  0  0  0  0  0  0
   -3.7513   -2.6782   -2.9709 O   0  0  0  0  0  0  0  0  0  0  0  0
   -5.3491   -1.1169   -2.2339 C   0  0  0  0  0  0  0  0  0  0  0  0
   -5.3223   -0.2211   -2.8750 H   0  0  0  0  0  0  0  0  0  0  0  0
   -6.1322   -1.7605   -2.6658 H   0  0  0  0  0  0  0  0  0  0  0  0
   -5.7568   -0.7715   -1.2704 H   0  0  0  0  0  0  0  0  0  0  0  0
   -3.2124   -1.3578   -1.1289 N   0  0  0  0  0  0  0  0  0  0  0  0
   -1.8971   -1.8843   -0.8752 C   0  0  2  0  0  0  0  0  0  0  0  0
   -1.2676   -1.0599    0.2399 C   0  0  0  0  0  0  0  0  0  0  0  0
   -1.6270    0.0833    0.5138 O   0  0  0  0  0  0  0  0  0  0  0  0
   -1.0364   -1.8506   -2.1285 C   0  0  0  0  0  0  0  0  0  0  0  0
   -3.5631   -0.6202   -0.5206 H   0  0  0  0  0  0  0  0  0  0  0  0
   -2.0301   -2.9174   -0.5360 H   0  0  0  0  0  0  0  0  0  0  0  0
   -0.8921   -0.8236   -2.4833 H   0  0  0  0  0  0  0  0  0  0  0  0
   -0.0457   -2.2777   -1.9410 H   0  0  0  0  0  0  0  0  0  0  0  0
   -1.5052   -2.4193   -2.9387 H   0  0  0  0  0  0  0  0  0  0  0  0
   -0.2267   -1.7335    0.8672 N   0  0  0  0  0  0  0  0  0  0  0  0
    0.5363   -1.1590    1.9465 C   0  0  2  0  0  0  0  0  0  0  0  0
    0.5511    0.3504    1.7336 C   0  0  0  0  0  0  0  0  0  0  0  0
    0.9801    0.8789    0.7100 O   0  0  0  0  0  0  0  0  0  0  0  0
    1.9603   -1.7084    1.9904 C   0  0  0  0  0  0  0  0  0  0  0  0
    2.1110   -3.1803    2.3955 C   0  0  0  0  0  0  0  0  0  0  0  0
    1.2013   -3.5986    3.1690 O   0  5  0  0  0  0  0  0  0  0  0  0
    3.1090   -3.7953    1.9300 O   0  0  0  0  0  0  0  0  0  0  0  0
   -0.0113   -2.6869    0.5854 H   0  0  0  0  0  0  0  0  0  0  0  0
   -0.0051   -1.3871    2.8716 H   0  0  0  0  0  0  0  0  0  0  0  0
    2.5677   -1.1052    2.6790 H   0  0  0  0  0  0  0  0  0  0  0  0
    2.4246   -1.6110    1.0004 H   0  0  0  0  0  0  0  0  0  0  0  0
   -0.0189    1.0331    2.7992 N   0  0  0  0  0  0  0  0  0  0  0  0
   -0.1527    2.4711    2.8249 C   0  0  2  0  0  0  0  0  0  0  0  0
   -0.0583    2.9263    4.2752 C   0  0  0  0  0  0  0  0  0  0  0  0
   -0.2948    2.1858    5.2274 O   0  0  0  0  0  0  0  0  0  0  0  0
   -1.4657    2.9159    2.1999 C   0  0  0  0  0  0  0  0  0  0  0  0
   -0.3919    0.5094    3.5856 H   0  0  0  0  0  0  0  0  0  0  0  0
    0.6922    2.8775    2.2583 H   0  0  0  0  0  0  0  0  0  0  0  0
   -2.3238    2.5183    2.7541 H   0  0  0  0  0  0  0  0  0  0  0  0
   -1.5529    4.0074    2.1943 H   0  0  0  0  0  0  0  0  0  0  0  0
   -1.5449    2.5622    1.1662 H   0  0  0  0  0  0  0  0  0  0  0  0
    0.2790    4.2685    4.3800 N   0  0  0  0  0  0  0  0  0  0  0  0
    0.4181    4.9404    5.6509 C   0  0  0  0  0  0  0  0  0  0  0  0
    0.4758    4.8014    3.5380 H   0  0  0  0  0  0  0  0  0  0  0  0
   -0.5400    5.4047    5.9275 H   0  0  0  0  0  0  0  0  0  0  0  0
    0.7079    4.2109    6.4214 H   0  0  0  0  0  0  0  0  0  0  0  0
    1.1926    5.7175    5.5718 H   0  0  0  0  0  0  0  0  0  0  0  0
  1  3  1  0  0  0  0
  1  7  1  0  0  0  0
  1  2  2  0  0  0  0
 30 31  1  0  0  0  0
 31 39  1  0  0  0  0
 31 32  2  0  0  0  0
  8  9  1  0  0  0  0
  9 17  1  0  0  0  0
  9 10  2  0  0  0  0
 18 19  1  0  0  0  0
 19 29  1  0  0  0  0
 19 20  2  0  0  0  0
 21 22  1  0  0  0  0
 22 23  1  0  0  0  0
 22 24  2  0  0  0  0
 30 33  1  0  0  0  0
  8 11  1  0  0  0  0
 39 40  1  0  0  0  0
 18 21  1  0  0  0  0
 29 30  1  0  0  0  0
  7  8  1  0  0  0  0
 17 18  1  0  0  0  0
  3  4  1  0  0  0  0
  3  5  1  0  0  0  0
  3  6  1  0  0  0  0
 33 36  1  0  0  0  0
 33 37  1  0  0  0  0
 33 38  1  0  0  0  0
 11 14  1  0  0  0  0
 11 15  1  0  0  0  0
 11 16  1  0  0  0  0
 40 42  1  0  0  0  0
 40 43  1  0  0  0  0
 40 44  1  0  0  0  0
 21 27  1  0  0  0  0
 21 28  1  0  0  0  0
 30 35  1  0  0  0  0
  8 13  1  0  0  0  0
 18 26  1  0  0  0  0
 39 41  1  0  0  0  0
  7 12  1  0  0  0  0
 29 34  1  0  0  0  0
 17 25  1  0  0  0  0
M  CHG  1  23  -1
M  END
$$$$

  -OEChem-05262214473D

 44 43  0     1  0  0  0  0  0999 V2000
   -4.0256   -1.8030   -2.1581 C   0  0  0  0  0  0  0  0  0  0  0  0
   -3.7513   -2.6782   -2.9709 O   0  0  0  0  0  0  0  0  0  0  0  0
   -5.3491   -1.1169   -2.2339 C   0  0  0  0  0  0  0  0  0  0  0  0
   -5.3223   -0.2211   -2.8750 H   0  0  0  0  0  0  0  0  0  0  0  0
   -6.1322   -1.7605   -2.6658 H   0  0  0  0  0  0  0  0  0  0  0  0
   -5.7568   -0.7715   -1.2704 H   0  0  0  0  0  0  0  0  0  0  0  0
   -3.2124   -1.3578   -1.1289 N   0  0  0  0  0  0  0  0  0  0  0  0
   -1.8971   -1.8843   -0.8752 C   0  0  2  0  0  0  0  0  0  0  0  0
   -1.2676   -1.0599    0.2399 C   0  0  0  0  0  0  0  0  0  0  0  0
   -1.6270    0.0833    0.5138 O   0  0  0  0  0  0  0  0  0  0  0  0
   -1.0364   -1.8506   -2.1285 C   0  0  0  0  0  0  0  0  0  0  0  0
   -3.5631   -0.6202   -0.5206 H   0  0  0  0  0  0  0  0  0  0  0  0
   -2.0301   -2.9174   -0.5360 H   0  0  0  0  0  0  0  0  0  0  0  0
   -0.8921   -0.8236   -2.4833 H   0  0  0  0  0  0  0  0  0  0  0  0
   -0.0457   -2.2777   -1.9410 H   0  0  0  0  0  0  0  0  0  0  0  0
   -1.5052   -2.4193   -2.9387 H   0  0  0  0  0  0  0  0  0  0  0  0
   -0.2267   -1.7335    0.8672 N   0  0  0  0  0  0  0  0  0  0  0  0
    0.5363   -1.1590    1.9465 C   0  0  2  0  0  0  0  0  0  0  0  0
    0.5511    0.3504    1.7336 C   0  0  0  0  0  0  0  0  0  0  0  0
    0.7225    0.8705    0.6331 O   0  0  0  0  0  0  0  0  0  0  0  0
    1.9603   -1.7084    1.9904 C   0  0  0  0  0  0  0  0  0  0  0  0
    2.1110   -3.1803    2.3955 C   0  0  0  0  0  0  0  0  0  0  0  0
    1.2013   -3.5986    3.1690 O   0  5  0  0  0  0  0  0  0  0  0  0
    3.1090   -3.7953    1.9300 O   0  0  0  0  0  0  0  0  0  0  0  0
   -0.0113   -2.6869    0.5854 H   0  0  0  0  0  0  0  0  0  0  0  0
   -0.0051   -1.3871    2.8716 H   0  0  0  0  0  0  0  0  0  0  0  0
    2.5677   -1.1052    2.6790 H   0  0  0  0  0  0  0  0  0  0  0  0
    2.4246   -1.6110    1.0004 H   0  0  0  0  0  0  0  0  0  0  0  0
    0.2985    1.0453    2.9081 N   0  0  0  0  0  0  0  0  0  0  0  0
    0.2283    2.4870    2.9641 C   0  0  2  0  0  0  0  0  0  0  0  0
    0.7076    2.9281    4.3408 C   0  0  0  0  0  0  0  0  0  0  0  0
    0.6961    2.1896    5.3235 O   0  0  0  0  0  0  0  0  0  0  0  0
   -1.1840    2.9830    2.6956 C   0  0  0  0  0  0  0  0  0  0  0  0
    0.1206    0.5297    3.7650 H   0  0  0  0  0  0  0  0  0  0  0  0
    0.9140    2.8670    2.1990 H   0  0  0  0  0  0  0  0  0  0  0  0
   -1.8854    2.6125    3.4521 H   0  0  0  0  0  0  0  0  0  0  0  0
   -1.2298    4.0770    2.7101 H   0  0  0  0  0  0  0  0  0  0  0  0
   -1.5382    2.6399    1.7175 H   0  0  0  0  0  0  0  0  0  0  0  0
    1.1092    4.2565    4.3527 N   0  0  0  0  0  0  0  0  0  0  0  0
    1.5937    4.9139    5.5440 C   0  0  0  0  0  0  0  0  0  0  0  0
    1.1030    4.7881    3.4872 H   0  0  0  0  0  0  0  0  0  0  0  0
    0.7561    5.4101    6.0559 H   0  0  0  0  0  0  0  0  0  0  0  0
    2.0445    4.1689    6.2161 H   0  0  0  0  0  0  0  0  0  0  0  0
    2.3499    5.6632    5.2673 H   0  0  0  0  0  0  0  0  0  0  0  0
  1  3  1  0  0  0  0
  1  7  1  0  0  0  0
  1  2  2  0  0  0  0
 30 31  1  0  0  0  0
 31 39  1  0  0  0  0
 31 32  2  0  0  0  0
  8  9  1  0  0  0  0
  9 17  1  0  0  0  0
  9 10  2  0  0  0  0
 18 19  1  0  0  0  0
 19 29  1  0  0  0  0
 19 20  2  0  0  0  0
 21 22  1  0  0  0  0
 22 23  1  0  0  0  0
 22 24  2  0  0  0  0
 30 33  1  0  0  0  0
  8 11  1  0  0  0  0
 39 40  1  0  0  0  0
 18 21  1  0  0  0  0
 29 30  1  0  0  0  0
  7  8  1  0  0  0  0
 17 18  1  0  0  0  0
  3  4  1  0  0  0  0
  3  5  1  0  0  0  0
  3  6  1  0  0  0  0
 33 36  1  0  0  0  0
 33 37  1  0  0  0  0
 33 38  1  0  0  0  0
 11 14  1  0  0  0  0
 11 15  1  0  0  0  0
 11 16  1  0  0  0  0
 40 42  1  0  0  0  0
 40 43  1  0  0  0  0
 40 44  1  0  0  0  0
 21 27  1  0  0  0  0
 21 28  1  0  0  0  0
 30 35  1  0  0  0  0
  8 13  1  0  0  0  0
 18 26  1  0  0  0  0
 39 41  1  0  0  0  0
  7 12  1  0  0  0  0
 29 34  1  0  0  0  0
 17 25  1  0  0  0  0
M  CHG  1  23  -1
M  END
$$$$

  -OEChem-05262214473D

 44 43  0     1  0  0  0  0  0999 V2000
   -4.0256   -1.8030   -2.1581 C   0  0  0  0  0  0  0  0  0  0  0  0
   -3.7513   -2.6782   -2.9709 O   0  0  0  0  0  0  0  0  0  0  0  0
   -5.3491   -1.1169   -2.2339 C   0  0  0  0  0  0  0  0  0  0  0  0
   -5.3223   -0.2211   -2.8750 H   0  0  0  0  0  0  0  0  0  0  0  0
   -6.1322   -1.7605   -2.6658 H   0  0  0  0  0  0  0  0  0  0  0  0
   -5.7568   -0.7715   -1.2704 H   0  0  0  0  0  0  0  0  0  0  0  0
   -3.2124   -1.3578   -1.1289 N   0  0  0  0  0  0  0  0  0  0  0  0
   -1.8971   -1.8843   -0.8752 C   0  0  2  0  0  0  0  0  0  0  0  0
   -1.2676   -1.0599    0.2399 C   0  0  0  0  0  0  0  0  0  0  0  0
   -1.6270    0.0833    0.5138 O   0  0  0  0  0  0  0  0  0  0  0  0
   -1.0364   -1.8506   -2.1285 C   0  0  0  0  0  0  0  0  0  0  0  0
   -3.5631   -0.6202   -0.5206 H   0  0  0  0  0  0  0  0  0  0  0  0
   -2.0301   -2.9174   -0.5360 H   0  0  0  0  0  0  0  0  0  0  0  0
   -0.8921   -0.8236   -2.4833 H   0  0  0  0  0  0  0  0  0  0  0  0
   -0.0457   -2.2777   -1.9410 H   0  0  0  0  0  0  0  0  0  0  0  0
   -1.5052   -2.4193   -2.9387 H   0  0  0  0  0  0  0  0  0  0  0  0
   -0.2267   -1.7335    0.8672 N   0  0  0  0  0  0  0  0  0  0  0  0
    0.5363   -1.1590    1.9465 C   0  0  2  0  0  0  0  0  0  0  0  0
    0.5511    0.3504    1.7336 C   0  0  0  0  0  0  0  0  0  0  0  0
    0.4536    0.8720    0.6247 O   0  0  0  0  0  0  0  0  0  0  0  0
    1.9603   -1.7084    1.9904 C   0  0  0  0  0  0  0  0  0  0  0  0
    2.1110   -3.1803    2.3955 C   0  0  0  0  0  0  0  0  0  0  0  0
    1.2013   -3.5986    3.1690 O   0  5  0  0  0  0  0  0  0  0  0  0
    3.1090   -3.7953    1.9300 O   0  0  0  0  0  0  0  0  0  0  0  0
   -0.0113   -2.6869    0.5854 H   0  0  0  0  0  0  0  0  0  0  0  0
   -0.0051   -1.3871    2.8716 H   0  0  0  0  0  0  0  0  0  0  0  0
    2.5677   -1.1052    2.6790 H   0  0  0  0  0  0  0  0  0  0  0  0
    2.4246   -1.6110    1.0004 H   0  0  0  0  0  0  0  0  0  0  0  0
    0.6334    1.0454    2.9321 N   0  0  0  0  0  0  0  0  0  0  0  0
    0.6325    2.4882    3.0011 C   0  0  2  0  0  0  0  0  0  0  0  0
    1.4643    2.9019    4.2079 C   0  0  0  0  0  0  0  0  0  0  0  0
    1.6780    2.1573    5.1623 O   0  0  0  0  0  0  0  0  0  0  0  0
   -0.7824    3.0365    3.1024 C   0  0  0  0  0  0  0  0  0  0  0  0
    0.6623    0.5303    3.8071 H   0  0  0  0  0  0  0  0  0  0  0  0
    1.1126    2.8489    2.0849 H   0  0  0  0  0  0  0  0  0  0  0  0
   -1.2795    2.6858    4.0142 H   0  0  0  0  0  0  0  0  0  0  0  0
   -0.7830    4.1312    3.1258 H   0  0  0  0  0  0  0  0  0  0  0  0
   -1.3877    2.7133    2.2486 H   0  0  0  0  0  0  0  0  0  0  0  0
    1.9037    4.2150    4.1135 N   0  0  0  0  0  0  0  0  0  0  0  0
    2.7009    4.8460    5.1394 C   0  0  0  0  0  0  0  0  0  0  0  0
    1.6953    4.7528    3.2774 H   0  0  0  0  0  0  0  0  0  0  0  0
    2.0411    5.3682    5.8478 H   0  0  0  0  0  0  0  0  0  0  0  0
    3.2814    4.0805    5.6752 H   0  0  0  0  0  0  0  0  0  0  0  0
    3.3878    5.5698    4.6764 H   0  0  0  0  0  0  0  0  0  0  0  0
  1  3  1  0  0  0  0
  1  7  1  0  0  0  0
  1  2  2  0  0  0  0
 30 31  1  0  0  0  0
 31 39  1  0  0  0  0
 31 32  2  0  0  0  0
  8  9  1  0  0  0  0
  9 17  1  0  0  0  0
  9 10  2  0  0  0  0
 18 19  1  0  0  0  0
 19 29  1  0  0  0  0
 19 20  2  0  0  0  0
 21 22  1  0  0  0  0
 22 23  1  0  0  0  0
 22 24  2  0  0  0  0
 30 33  1  0  0  0  0
  8 11  1  0  0  0  0
 39 40  1  0  0  0  0
 18 21  1  0  0  0  0
 29 30  1  0  0  0  0
  7  8  1  0  0  0  0
 17 18  1  0  0  0  0
  3  4  1  0  0  0  0
  3  5  1  0  0  0  0
  3  6  1  0  0  0  0
 33 36  1  0  0  0  0
 33 37  1  0  0  0  0
 33 38  1  0  0  0  0
 11 14  1  0  0  0  0
 11 15  1  0  0  0  0
 11 16  1  0  0  0  0
 40 42  1  0  0  0  0
 40 43  1  0  0  0  0
 40 44  1  0  0  0  0
 21 27  1  0  0  0  0
 21 28  1  0  0  0  0
 30 35  1  0  0  0  0
  8 13  1  0  0  0  0
 18 26  1  0  0  0  0
 39 41  1  0  0  0  0
  7 12  1  0  0  0  0
 29 34  1  0  0  0  0
 17 25  1  0  0  0  0
M  CHG  1  23  -1
M  END
$$$$

  -OEChem-05262214473D

 44 43  0     1  0  0  0  0  0999 V2000
   -4.0256   -1.8030   -2.1581 C   0  0  0  0  0  0  0  0  0  0  0  0
   -3.7513   -2.6782   -2.9709 O   0  0  0  0  0  0  0  0  0  0  0  0
   -5.3491   -1.1169   -2.2339 C   0  0  0  0  0  0  0  0  0  0  0  0
   -5.3223   -0.2211   -2.8750 H   0  0  0  0  0  0  0  0  0  0  0  0
   -6.1322   -1.7605   -2.6658 H   0  0  0  0  0  0  0  0  0  0  0  0
   -5.7568   -0.7715   -1.2704 H   0  0  0  0  0  0  0  0  0  0  0  0
   -3.2124   -1.3578   -1.1289 N   0  0  0  0  0  0  0  0  0  0  0  0
   -1.8971   -1.8843   -0.8752 C   0  0  2  0  0  0  0  0  0  0  0  0
   -1.2676   -1.0599    0.2399 C   0  0  0  0  0  0  0  0  0  0  0  0
   -1.6270    0.0833    0.5138 O   0  0  0  0  0  0  0  0  0  0  0  0
   -1.0364   -1.8506   -2.1285 C   0  0  0  0  0  0  0  0  0  0  0  0
   -3.5631   -0.6202   -0.5206 H   0  0  0  0  0  0  0  0  0  0  0  0
   -2.0301   -2.9174   -0.5360 H   0  0  0  0  0  0  0  0  0  0  0  0
   -0.8921   -0.8236   -2.4833 H   0  0  0  0  0  0  0  0  0  0  0  0
   -0.0457   -2.2777   -1.9410 H   0  0  0  0  0  0  0  0  0  0  0  0
   -1.5052   -2.4193   -2.9387 H   0  0  0  0  0  0  0  0  0  0  0  0
   -0.2267   -1.7335    0.8672 N   0  0  0  0  0  0  0  0  0  0  0  0
    0.5363   -1.1590    1.9465 C   0  0  2  0  0  0  0  0  0  0  0  0
    0.5511    0.3504    1.7336 C   0  0  0  0  0  0  0  0  0  0  0  0
    0.1918    0.8831    0.6856 O   0  0  0  0  0  0  0  0  0  0  0  0
    1.9603   -1.7084    1.9904 C   0  0  0  0  0  0  0  0  0  0  0  0
    2.1110   -3.1803    2.3955 C   0  0  0  0  0  0  0  0  0  0  0  0
    1.2013   -3.5986    3.1690 O   0  5  0  0  0  0  0  0  0  0  0  0
    3.1090   -3.7953    1.9300 O   0  0  0  0  0  0  0  0  0  0  0  0
   -0.0113   -2.6869    0.5854 H   0  0  0  0  0  0  0  0  0  0  0  0
   -0.0051   -1.3871    2.8716 H   0  0  0  0  0  0  0  0  0  0  0  0
    2.5677   -1.1052    2.6790 H   0  0  0  0  0  0  0  0  0  0  0  0
    2.4246   -1.6110    1.0004 H   0  0  0  0  0  0  0  0  0  0  0  0
    0.9630    1.0334    2.8694 N   0  0  0  0  0  0  0  0  0  0  0  0
    1.0324    2.4747    2.9331 C   0  0  2  0  0  0  0  0  0  0  0  0
    2.1602    2.8496    3.8855 C   0  0  0  0  0  0  0  0  0  0  0  0
    2.5841    2.0910    4.7549 O   0  0  0  0  0  0  0  0  0  0  0  0
   -0.2883    3.0725    3.3925 C   0  0  0  0  0  0  0  0  0  0  0  0
    1.1963    0.5113    3.7089 H   0  0  0  0  0  0  0  0  0  0  0  0
    1.2746    2.8246    1.9237 H   0  0  0  0  0  0  0  0  0  0  0  0
   -0.5477    2.7333    4.4021 H   0  0  0  0  0  0  0  0  0  0  0  0
   -0.2430    4.1664    3.4129 H   0  0  0  0  0  0  0  0  0  0  0  0
   -1.1035    2.7774    2.7231 H   0  0  0  0  0  0  0  0  0  0  0  0
    2.6083    4.1468    3.6788 N   0  0  0  0  0  0  0  0  0  0  0  0
    3.6642    4.7414    4.4646 C   0  0  0  0  0  0  0  0  0  0  0  0
    2.2124    4.6977    2.9228 H   0  0  0  0  0  0  0  0  0  0  0  0
    3.2275    5.2818    5.3174 H   0  0  0  0  0  0  0  0  0  0  0  0
    4.3343    3.9518    4.8354 H   0  0  0  0  0  0  0  0  0  0  0  0
    4.2355    5.4434    3.8395 H   0  0  0  0  0  0  0  0  0  0  0  0
  1  3  1  0  0  0  0
  1  7  1  0  0  0  0
  1  2  2  0  0  0  0
 30 31  1  0  0  0  0
 31 39  1  0  0  0  0
 31 32  2  0  0  0  0
  8  9  1  0  0  0  0
  9 17  1  0  0  0  0
  9 10  2  0  0  0  0
 18 19  1  0  0  0  0
 19 29  1  0  0  0  0
 19 20  2  0  0  0  0
 21 22  1  0  0  0  0
 22 23  1  0  0  0  0
 22 24  2  0  0  0  0
 30 33  1  0  0  0  0
  8 11  1  0  0  0  0
 39 40  1  0  0  0  0
 18 21  1  0  0  0  0
 29 30  1  0  0  0  0
  7  8  1  0  0  0  0
 17 18  1  0  0  0  0
  3  4  1  0  0  0  0
  3  5  1  0  0  0  0
  3  6  1  0  0  0  0
 33 36  1  0  0  0  0
 33 37  1  0  0  0  0
 33 38  1  0  0  0  0
 11 14  1  0  0  0  0
 11 15  1  0  0  0  0
 11 16  1  0  0  0  0
 40 42  1  0  0  0  0
 40 43  1  0  0  0  0
 40 44  1  0  0  0  0
 21 27  1  0  0  0  0
 21 28  1  0  0  0  0
 30 35  1  0  0  0  0
  8 13  1  0  0  0  0
 18 26  1  0  0  0  0
 39 41  1  0  0  0  0
  7 12  1  0  0  0  0
 29 34  1  0  0  0  0
 17 25  1  0  0  0  0
M  CHG  1  23  -1
M  END
$$$$

  -OEChem-05262214473D

 44 43  0     1  0  0  0  0  0999 V2000
   -4.0256   -1.8030   -2.1581 C   0  0  0  0  0  0  0  0  0  0  0  0
   -3.7513   -2.6782   -2.9709 O   0  0  0  0  0  0  0  0  0  0  0  0
   -5.3491   -1.1169   -2.2339 C   0  0  0  0  0  0  0  0  0  0  0  0
   -5.3223   -0.2211   -2.8750 H   0  0  0  0  0  0  0  0  0  0  0  0
   -6.1322   -1.7605   -2.6658 H   0  0  0  0  0  0  0  0  0  0  0  0
   -5.7568   -0.7715   -1.2704 H   0  0  0  0  0  0  0  0  0  0  0  0
   -3.2124   -1.3578   -1.1289 N   0  0  0  0  0  0  0  0  0  0  0  0
   -1.8971   -1.8843   -0.8752 C   0  0  2  0  0  0  0  0  0  0  0  0
   -1.2676   -1.0599    0.2399 C   0  0  0  0  0  0  0  0  0  0  0  0
   -1.6270    0.0833    0.5138 O   0  0  0  0  0  0  0  0  0  0  0  0
   -1.0364   -1.8506   -2.1285 C   0  0  0  0  0  0  0  0  0  0  0  0
   -3.5631   -0.6202   -0.5206 H   0  0  0  0  0  0  0  0  0  0  0  0
   -2.0301   -2.9174   -0.5360 H   0  0  0  0  0  0  0  0  0  0  0  0
   -0.8921   -0.8236   -2.4833 H   0  0  0  0  0  0  0  0  0  0  0  0
   -0.0457   -2.2777   -1.9410 H   0  0  0  0  0  0  0  0  0  0  0  0
   -1.5052   -2.4193   -2.9387 H   0  0  0  0  0  0  0  0  0  0  0  0
   -0.2267   -1.7335    0.8672 N   0  0  0  0  0  0  0  0  0  0  0  0
    0.5363   -1.1590    1.9465 C   0  0  2  0  0  0  0  0  0  0  0  0
    0.2442    0.3371    1.9576 C   0  0  0  0  0  0  0  0  0  0  0  0
   -0.5481    0.8712    1.1842 O   0  0  0  0  0  0  0  0  0  0  0  0
    2.0330   -1.4120    1.7812 C   0  0  0  0  0  0  0  0  0  0  0  0
    2.5020   -2.8628    1.9500 C   0  0  0  0  0  0  0  0  0  0  0  0
    1.7830   -3.5501    2.7320 O   0  5  0  0  0  0  0  0  0  0  0  0
    3.5360   -3.2005    1.3115 O   0  0  0  0  0  0  0  0  0  0  0  0
   -0.0113   -2.6869    0.5854 H   0  0  0  0  0  0  0  0  0  0  0  0
    0.1587   -1.6068    2.8727 H   0  0  0  0  0  0  0  0  0  0  0  0
    2.5934   -0.7913    2.4938 H   0  0  0  0  0  0  0  0  0  0  0  0
    2.3522   -1.0984    0.7787 H   0  0  0  0  0  0  0  0  0  0  0  0
    0.9330    0.9956    2.9667 N   0  0  0  0  0  0  0  0  0  0  0  0
    0.8020    2.4140    3.2061 C   0  0  2  0  0  0  0  0  0  0  0  0
    2.1285    2.9228    3.7547 C   0  0  0  0  0  0  0  0  0  0  0  0
    2.9493    2.1940    4.3081 O   0  0  0  0  0  0  0  0  0  0  0  0
   -0.3349    2.7095    4.1719 C   0  0  0  0  0  0  0  0  0  0  0  0
    1.5320    0.4640    3.5915 H   0  0  0  0  0  0  0  0  0  0  0  0
    0.6042    2.8816    2.2354 H   0  0  0  0  0  0  0  0  0  0  0  0
   -0.1544    2.2491    5.1501 H   0  0  0  0  0  0  0  0  0  0  0  0
   -0.4512    3.7868    4.3301 H   0  0  0  0  0  0  0  0  0  0  0  0
   -1.2832    2.3167    3.7895 H   0  0  0  0  0  0  0  0  0  0  0  0
    2.2690    4.2940    3.5922 N   0  0  0  0  0  0  0  0  0  0  0  0
    3.4356    5.0169    4.0422 C   0  0  0  0  0  0  0  0  0  0  0  0
    1.5467    4.8160    3.1050 H   0  0  0  0  0  0  0  0  0  0  0  0
    3.2629    5.3952    5.0606 H   0  0  0  0  0  0  0  0  0  0  0  0
    4.3058    4.3440    4.0437 H   0  0  0  0  0  0  0  0  0  0  0  0
    3.6269    5.8622    3.3647 H   0  0  0  0  0  0  0  0  0  0  0  0
  1  3  1  0  0  0  0
  1  7  1  0  0  0  0
  1  2  2  0  0  0  0
 30 31  1  0  0  0  0
 31 39  1  0  0  0  0
 31 32  2  0  0  0  0
  8  9  1  0  0  0  0
  9 17  1  0  0  0  0
  9 10  2  0  0  0  0
 18 19  1  0  0  0  0
 19 29  1  0  0  0  0
 19 20  2  0  0  0  0
 21 22  1  0  0  0  0
 22 23  1  0  0  0  0
 22 24  2  0  0  0  0
 30 33  1  0  0  0  0
  8 11  1  0  0  0  0
 39 40  1  0  0  0  0
 18 21  1  0  0  0  0
 29 30  1  0  0  0  0
  7  8  1  0  0  0  0
 17 18  1  0  0  0  0
  3  4  1  0  0  0  0
  3  5  1  0  0  0  0
  3  6  1  0  0  0  0
 33 36  1  0  0  0  0
 33 37  1  0  0  0  0
 33 38  1  0  0  0  0
 11 14  1  0  0  0  0
 11 15  1  0  0  0  0
 11 16  1  0  0  0  0
 40 42  1  0  0  0  0
 40 43  1  0  0  0  0
 40 44  1  0  0  0  0
 21 27  1  0  0  0  0
 21 28  1  0  0  0  0
 30 35  1  0  0  0  0
  8 13  1  0  0  0  0
 18 26  1  0  0  0  0
 39 41  1  0  0  0  0
  7 12  1  0  0  0  0
 29 34  1  0  0  0  0
 17 25  1  0  0  0  0
M  CHG  1  23  -1
M  END
$$$$

  -OEChem-05262214473D

 44 43  0     1  0  0  0  0  0999 V2000
   -4.0256   -1.8030   -2.1581 C   0  0  0  0  0  0  0  0  0  0  0  0
   -3.7513   -2.6782   -2.9709 O   0  0  0  0  0  0  0  0  0  0  0  0
   -5.3491   -1.1169   -2.2339 C   0  0  0  0  0  0  0  0  0  0  0  0
   -5.3223   -0.2211   -2.8750 H   0  0  0  0  0  0  0  0  0  0  0  0
   -6.1322   -1.7605   -2.6658 H   0  0  0  0  0  0  0  0  0  0  0  0
   -5.7568   -0.7715   -1.2704 H   0  0  0  0  0  0  0  0  0  0  0  0
   -3.2124   -1.3578   -1.1289 N   0  0  0  0  0  0  0  0  0  0  0  0
   -1.8971   -1.8843   -0.8752 C   0  0  2  0  0  0  0  0  0  0  0  0
   -1.2676   -1.0599    0.2399 C   0  0  0  0  0  0  0  0  0  0  0  0
   -1.6270    0.0833    0.5138 O   0  0  0  0  0  0  0  0  0  0  0  0
   -1.0364   -1.8506   -2.1285 C   0  0  0  0  0  0  0  0  0  0  0  0
   -3.5631   -0.6202   -0.5206 H   0  0  0  0  0  0  0  0  0  0  0  0
   -2.0301   -2.9174   -0.5360 H   0  0  0  0  0  0  0  0  0  0  0  0
   -0.8921   -0.8236   -2.4833 H   0  0  0  0  0  0  0  0  0  0  0  0
   -0.0457   -2.2777   -1.9410 H   0  0  0  0  0  0  0  0  0  0  0  0
   -1.5052   -2.4193   -2.9387 H   0  0  0  0  0  0  0  0  0  0  0  0
   -0.2267   -1.7335    0.8672 N   0  0  0  0  0  0  0  0  0  0  0  0
    0.5363   -1.1590    1.9465 C   0  0  2  0  0  0  0  0  0  0  0  0
    0.2442    0.3371    1.9576 C   0  0  0  0  0  0  0  0  0  0  0  0
   -0.7230    0.8356    1.3855 O   0  0  0  0  0  0  0  0  0  0  0  0
    2.0330   -1.4120    1.7812 C   0  0  0  0  0  0  0  0  0  0  0  0
    2.5020   -2.8628    1.9500 C   0  0  0  0  0  0  0  0  0  0  0  0
    1.7830   -3.5501    2.7320 O   0  5  0  0  0  0  0  0  0  0  0  0
    3.5360   -3.2005    1.3115 O   0  0  0  0  0  0  0  0  0  0  0  0
   -0.0113   -2.6869    0.5854 H   0  0  0  0  0  0  0  0  0  0  0  0
    0.1587   -1.6068    2.8727 H   0  0  0  0  0  0  0  0  0  0  0  0
    2.5934   -0.7913    2.4938 H   0  0  0  0  0  0  0  0  0  0  0  0
    2.3522   -1.0984    0.7787 H   0  0  0  0  0  0  0  0  0  0  0  0
    1.1612    1.0420    2.7248 N   0  0  0  0  0  0  0  0  0  0  0  0
    1.0835    2.4711    2.9193 C   0  0  2  0  0  0  0  0  0  0  0  0
    2.5016    3.0006    3.0871 C   0  0  0  0  0  0  0  0  0  0  0  0
    3.4420    2.2966    3.4491 O   0  0  0  0  0  0  0  0  0  0  0  0
    0.2268    2.8195    4.1265 C   0  0  0  0  0  0  0  0  0  0  0  0
    1.9036    0.5395    3.2024 H   0  0  0  0  0  0  0  0  0  0  0  0
    0.6418    2.8907    2.0088 H   0  0  0  0  0  0  0  0  0  0  0  0
    0.6536    2.4076    5.0482 H   0  0  0  0  0  0  0  0  0  0  0  0
    0.1455    3.9039    4.2557 H   0  0  0  0  0  0  0  0  0  0  0  0
   -0.7842    2.4124    4.0174 H   0  0  0  0  0  0  0  0  0  0  0  0
    2.5848    4.3613    2.8268 N   0  0  0  0  0  0  0  0  0  0  0  0
    3.8214    5.1005    2.9294 C   0  0  0  0  0  0  0  0  0  0  0  0
    1.7581    4.8617    2.5139 H   0  0  0  0  0  0  0  0  0  0  0  0
    3.9099    5.5299    3.9382 H   0  0  0  0  0  0  0  0  0  0  0  0
    4.6690    4.4247    2.7430 H   0  0  0  0  0  0  0  0  0  0  0  0
    3.8273    5.9101    2.1847 H   0  0  0  0  0  0  0  0  0  0  0  0
  1  3  1  0  0  0  0
  1  7  1  0  0  0  0
  1  2  2  0  0  0  0
 30 31  1  0  0  0  0
 31 39  1  0  0  0  0
 31 32  2  0  0  0  0
  8  9  1  0  0  0  0
  9 17  1  0  0  0  0
  9 10  2  0  0  0  0
 18 19  1  0  0  0  0
 19 29  1  0  0  0  0
 19 20  2  0  0  0  0
 21 22  1  0  0  0  0
 22 23  1  0  0  0  0
 22 24  2  0  0  0  0
 30 33  1  0  0  0  0
  8 11  1  0  0  0  0
 39 40  1  0  0  0  0
 18 21  1  0  0  0  0
 29 30  1  0  0  0  0
  7  8  1  0  0  0  0
 17 18  1  0  0  0  0
  3  4  1  0  0  0  0
  3  5  1  0  0  0  0
  3  6  1  0  0  0  0
 33 36  1  0  0  0  0
 33 37  1  0  0  0  0
 33 38  1  0  0  0  0
 11 14  1  0  0  0  0
 11 15  1  0  0  0  0
 11 16  1  0  0  0  0
 40 42  1  0  0  0  0
 40 43  1  0  0  0  0
 40 44  1  0  0  0  0
 21 27  1  0  0  0  0
 21 28  1  0  0  0  0
 30 35  1  0  0  0  0
  8 13  1  0  0  0  0
 18 26  1  0  0  0  0
 39 41  1  0  0  0  0
  7 12  1  0  0  0  0
 29 34  1  0  0  0  0
 17 25  1  0  0  0  0
M  CHG  1  23  -1
M  END
$$$$

  -OEChem-05262214473D

 44 43  0     1  0  0  0  0  0999 V2000
   -4.0256   -1.8030   -2.1581 C   0  0  0  0  0  0  0  0  0  0  0  0
   -3.7513   -2.6782   -2.9709 O   0  0  0  0  0  0  0  0  0  0  0  0
   -5.3491   -1.1169   -2.2339 C   0  0  0  0  0  0  0  0  0  0  0  0
   -5.3223   -0.2211   -2.8750 H   0  0  0  0  0  0  0  0  0  0  0  0
   -6.1322   -1.7605   -2.6658 H   0  0  0  0  0  0  0  0  0  0  0  0
   -5.7568   -0.7715   -1.2704 H   0  0  0  0  0  0  0  0  0  0  0  0
   -3.2124   -1.3578   -1.1289 N   0  0  0  0  0  0  0  0  0  0  0  0
   -1.8971   -1.8843   -0.8752 C   0  0  2  0  0  0  0  0  0  0  0  0
   -1.2676   -1.0599    0.2399 C   0  0  0  0  0  0  0  0  0  0  0  0
   -1.6270    0.0833    0.5138 O   0  0  0  0  0  0  0  0  0  0  0  0
   -1.0364   -1.8506   -2.1285 C   0  0  0  0  0  0  0  0  0  0  0  0
   -3.5631   -0.6202   -0.5206 H   0  0  0  0  0  0  0  0  0  0  0  0
   -2.0301   -2.9174   -0.5360 H   0  0  0  0  0  0  0  0  0  0  0  0
   -0.8921   -0.8236   -2.4833 H   0  0  0  0  0  0  0  0  0  0  0  0
   -0.0457   -2.2777   -1.9410 H   0  0  0  0  0  0  0  0  0  0  0  0
   -1.5052   -2.4193   -2.9387 H   0  0  0  0  0  0  0  0  0  0  0  0
   -0.2267   -1.7335    0.8672 N   0  0  0  0  0  0  0  0  0  0  0  0
    0.5363   -1.1590    1.9465 C   0  0  2  0  0  0  0  0  0  0  0  0
    0.2442    0.3371    1.9576 C   0  0  0  0  0  0  0  0  0  0  0  0
   -0.8407    0.8108    1.6261 O   0  0  0  0  0  0  0  0  0  0  0  0
    2.0330   -1.4120    1.7812 C   0  0  0  0  0  0  0  0  0  0  0  0
    2.5020   -2.8628    1.9500 C   0  0  0  0  0  0  0  0  0  0  0  0
    1.7830   -3.5501    2.7320 O   0  5  0  0  0  0  0  0  0  0  0  0
    3.5360   -3.2005    1.3115 O   0  0  0  0  0  0  0  0  0  0  0  0
   -0.0113   -2.6869    0.5854 H   0  0  0  0  0  0  0  0  0  0  0  0
    0.1587   -1.6068    2.8727 H   0  0  0  0  0  0  0  0  0  0  0  0
    2.5934   -0.7913    2.4938 H   0  0  0  0  0  0  0  0  0  0  0  0
    2.3522   -1.0984    0.7787 H   0  0  0  0  0  0  0  0  0  0  0  0
    1.3200    1.0752    2.4309 N   0  0  0  0  0  0  0  0  0  0  0  0
    1.2825    2.5126    2.5679 C   0  0  2  0  0  0  0  0  0  0  0  0
    2.6922    3.0434    2.3436 C   0  0  0  0  0  0  0  0  0  0  0  0
    3.6996    2.3541    2.4891 O   0  0  0  0  0  0  0  0  0  0  0  0
    0.7575    2.9246    3.9345 C   0  0  0  0  0  0  0  0  0  0  0  0
    2.1636    0.5938    2.7283 H   0  0  0  0  0  0  0  0  0  0  0  0
    0.6205    2.8882    1.7800 H   0  0  0  0  0  0  0  0  0  0  0  0
    1.4079    2.5572    4.7367 H   0  0  0  0  0  0  0  0  0  0  0  0
    0.7028    4.0144    4.0264 H   0  0  0  0  0  0  0  0  0  0  0  0
   -0.2446    2.5171    4.1061 H   0  0  0  0  0  0  0  0  0  0  0  0
    2.6953    4.3890    2.0039 N   0  0  0  0  0  0  0  0  0  0  0  0
    3.9112    5.1268    1.7523 C   0  0  0  0  0  0  0  0  0  0  0  0
    1.8121    4.8769    1.8870 H   0  0  0  0  0  0  0  0  0  0  0  0
    4.2495    5.6055    2.6831 H   0  0  0  0  0  0  0  0  0  0  0  0
    4.6892    4.4387    1.3903 H   0  0  0  0  0  0  0  0  0  0  0  0
    3.7211    5.8983    0.9915 H   0  0  0  0  0  0  0  0  0  0  0  0
  1  3  1  0  0  0  0
  1  7  1  0  0  0  0
  1  2  2  0  0  0  0
 30 31  1  0  0  0  0
 31 39  1  0  0  0  0
 31 32  2  0  0  0  0
  8  9  1  0  0  0  0
  9 17  1  0  0  0  0
  9 10  2  0  0  0  0
 18 19  1  0  0  0  0
 19 29  1  0  0  0  0
 19 20  2  0  0  0  0
 21 22  1  0  0  0  0
 22 23  1  0  0  0  0
 22 24  2  0  0  0  0
 30 33  1  0  0  0  0
  8 11  1  0  0  0  0
 39 40  1  0  0  0  0
 18 21  1  0  0  0  0
 29 30  1  0  0  0  0
  7  8  1  0  0  0  0
 17 18  1  0  0  0  0
  3  4  1  0  0  0  0
  3  5  1  0  0  0  0
  3  6  1  0  0  0  0
 33 36  1  0  0  0  0
 33 37  1  0  0  0  0
 33 38  1  0  0  0  0
 11 14  1  0  0  0  0
 11 15  1  0  0  0  0
 11 16  1  0  0  0  0
 40 42  1  0  0  0  0
 40 43  1  0  0  0  0
 40 44  1  0  0  0  0
 21 27  1  0  0  0  0
 21 28  1  0  0  0  0
 30 35  1  0  0  0  0
  8 13  1  0  0  0  0
 18 26  1  0  0  0  0
 39 41  1  0  0  0  0
  7 12  1  0  0  0  0
 29 34  1  0  0  0  0
 17 25  1  0  0  0  0
M  CHG  1  23  -1
M  END
$$$$

  -OEChem-05262214473D

 44 43  0     1  0  0  0  0  0999 V2000
   -4.0256   -1.8030   -2.1581 C   0  0  0  0  0  0  0  0  0  0  0  0
   -3.7513   -2.6782   -2.9709 O   0  0  0  0  0  0  0  0  0  0  0  0
   -5.3491   -1.1169   -2.2339 C   0  0  0  0  0  0  0  0  0  0  0  0
   -5.3223   -0.2211   -2.8750 H   0  0  0  0  0  0  0  0  0  0  0  0
   -6.1322   -1.7605   -2.6658 H   0  0  0  0  0  0  0  0  0  0  0  0
   -5.7568   -0.7715   -1.2704 H   0  0  0  0  0  0  0  0  0  0  0  0
   -3.2124   -1.3578   -1.1289 N   0  0  0  0  0  0  0  0  0  0  0  0
   -1.8971   -1.8843   -0.8752 C   0  0  2  0  0  0  0  0  0  0  0  0
   -1.2676   -1.0599    0.2399 C   0  0  0  0  0  0  0  0  0  0  0  0
   -1.6270    0.0833    0.5138 O   0  0  0  0  0  0  0  0  0  0  0  0
   -1.0364   -1.8506   -2.1285 C   0  0  0  0  0  0  0  0  0  0  0  0
   -3.5631   -0.6202   -0.5206 H   0  0  0  0  0  0  0  0  0  0  0  0
   -2.0301   -2.9174   -0.5360 H   0  0  0  0  0  0  0  0  0  0  0  0
   -0.8921   -0.8236   -2.4833 H   0  0  0  0  0  0  0  0  0  0  0  0
   -0.0457   -2.2777   -1.9410 H   0  0  0  0  0  0  0  0  0  0  0  0
   -1.5052   -2.4193   -2.9387 H   0  0  0  0  0  0  0  0  0  0  0  0
   -0.2267   -1.7335    0.8672 N   0  0  0  0  0  0  0  0  0  0  0  0
    0.5363   -1.1590    1.9465 C   0  0  2  0  0  0  0  0  0  0  0  0
    0.2442    0.3371    1.9576 C   0  0  0  0  0  0  0  0  0  0  0  0
   -0.8932    0.7986    1.8896 O   0  0  0  0  0  0  0  0  0  0  0  0
    2.0330   -1.4120    1.7812 C   0  0  0  0  0  0  0  0  0  0  0  0
    2.5020   -2.8628    1.9500 C   0  0  0  0  0  0  0  0  0  0  0  0
    1.7830   -3.5501    2.7320 O   0  5  0  0  0  0  0  0  0  0  0  0
    3.5360   -3.2005    1.3115 O   0  0  0  0  0  0  0  0  0  0  0  0
   -0.0113   -2.6869    0.5854 H   0  0  0  0  0  0  0  0  0  0  0  0
    0.1587   -1.6068    2.8727 H   0  0  0  0  0  0  0  0  0  0  0  0
    2.5934   -0.7913    2.4938 H   0  0  0  0  0  0  0  0  0  0  0  0
    2.3522   -1.0984    0.7787 H   0  0  0  0  0  0  0  0  0  0  0  0
    1.3988    1.0930    2.1050 N   0  0  0  0  0  0  0  0  0  0  0  0
    1.3853    2.5356    2.1760 C   0  0  2  0  0  0  0  0  0  0  0  0
    2.6874    3.0482    1.5749 C   0  0  0  0  0  0  0  0  0  0  0  0
    3.7044    2.3625    1.4936 O   0  0  0  0  0  0  0  0  0  0  0  0
    1.2212    3.0176    3.6090 C   0  0  0  0  0  0  0  0  0  0  0  0
    2.2942    0.6232    2.2018 H   0  0  0  0  0  0  0  0  0  0  0  0
    0.5419    2.8745    1.5646 H   0  0  0  0  0  0  0  0  0  0  0  0
    2.0570    2.6877    4.2368 H   0  0  0  0  0  0  0  0  0  0  0  0
    1.1826    4.1108    3.6579 H   0  0  0  0  0  0  0  0  0  0  0  0
    0.2990    2.6237    4.0495 H   0  0  0  0  0  0  0  0  0  0  0  0
    2.5929    4.3752    1.1796 N   0  0  0  0  0  0  0  0  0  0  0  0
    3.6989    5.0941    0.5913 C   0  0  0  0  0  0  0  0  0  0  0  0
    1.7050    4.8606    1.2670 H   0  0  0  0  0  0  0  0  0  0  0  0
    4.2585    5.6170    1.3808 H   0  0  0  0  0  0  0  0  0  0  0  0
    4.3652    4.3852    0.0778 H   0  0  0  0  0  0  0  0  0  0  0  0
    3.3154    5.8275   -0.1334 H   0  0  0  0  0  0  0  0  0  0  0  0
  1  3  1  0  0  0  0
  1  7  1  0  0  0  0
  1  2  2  0  0  0  0
 30 31  1  0  0  0  0
 31 39  1  0  0  0  0
 31 32  2  0  0  0  0
  8  9  1  0  0  0  0
  9 17  1  0  0  0  0
  9 10  2  0  0  0  0
 18 19  1  0  0  0  0
 19 29  1  0  0  0  0
 19 20  2  0  0  0  0
 21 22  1  0  0  0  0
 22 23  1  0  0  0  0
 22 24  2  0  0  0  0
 30 33  1  0  0  0  0
  8 11  1  0  0  0  0
 39 40  1  0  0  0  0
 18 21  1  0  0  0  0
 29 30  1  0  0  0  0
  7  8  1  0  0  0  0
 17 18  1  0  0  0  0
  3  4  1  0  0  0  0
  3  5  1  0  0  0  0
  3  6  1  0  0  0  0
 33 36  1  0  0  0  0
 33 37  1  0  0  0  0
 33 38  1  0  0  0  0
 11 14  1  0  0  0  0
 11 15  1  0  0  0  0
 11 16  1  0  0  0  0
 40 42  1  0  0  0  0
 40 43  1  0  0  0  0
 40 44  1  0  0  0  0
 21 27  1  0  0  0  0
 21 28  1  0  0  0  0
 30 35  1  0  0  0  0
  8 13  1  0  0  0  0
 18 26  1  0  0  0  0
 39 41  1  0  0  0  0
  7 12  1  0  0  0  0
 29 34  1  0  0  0  0
 17 25  1  0  0  0  0
M  CHG  1  23  -1
M  END
$$$$

  -OEChem-05262214473D

 44 43  0     1  0  0  0  0  0999 V2000
   -4.0256   -1.8030   -2.1581 C   0  0  0  0  0  0  0  0  0  0  0  0
   -3.7513   -2.6782   -2.9709 O   0  0  0  0  0  0  0  0  0  0  0  0
   -5.3491   -1.1169   -2.2339 C   0  0  0  0  0  0  0  0  0  0  0  0
   -5.3223   -0.2211   -2.8750 H   0  0  0  0  0  0  0  0  0  0  0  0
   -6.1322   -1.7605   -2.6658 H   0  0  0  0  0  0  0  0  0  0  0  0
   -5.7568   -0.7715   -1.2704 H   0  0  0  0  0  0  0  0  0  0  0  0
   -3.2124   -1.3578   -1.1289 N   0  0  0  0  0  0  0  0  0  0  0  0
   -1.8971   -1.8843   -0.8752 C   0  0  2  0  0  0  0  0  0  0  0  0
   -1.2676   -1.0599    0.2399 C   0  0  0  0  0  0  0  0  0  0  0  0
   -1.6270    0.0833    0.5138 O   0  0  0  0  0  0  0  0  0  0  0  0
   -1.0364   -1.8506   -2.1285 C   0  0  0  0  0  0  0  0  0  0  0  0
   -3.5631   -0.6202   -0.5206 H   0  0  0  0  0  0  0  0  0  0  0  0
   -2.0301   -2.9174   -0.5360 H   0  0  0  0  0  0  0  0  0  0  0  0
   -0.8921   -0.8236   -2.4833 H   0  0  0  0  0  0  0  0  0  0  0  0
   -0.0457   -2.2777   -1.9410 H   0  0  0  0  0  0  0  0  0  0  0  0
   -1.5052   -2.4193   -2.9387 H   0  0  0  0  0  0  0  0  0  0  0  0
   -0.2267   -1.7335    0.8672 N   0  0  0  0  0  0  0  0  0  0  0  0
    0.5363   -1.1590    1.9465 C   0  0  2  0  0  0  0  0  0  0  0  0
    0.2442    0.3371    1.9576 C   0  0  0  0  0  0  0  0  0  0  0  0
   -0.8770    0.7997    2.1581 O   0  0  0  0  0  0  0  0  0  0  0  0
    2.0330   -1.4120    1.7812 C   0  0  0  0  0  0  0  0  0  0  0  0
    2.5020   -2.8628    1.9500 C   0  0  0  0  0  0  0  0  0  0  0  0
    1.7830   -3.5501    2.7320 O   0  5  0  0  0  0  0  0  0  0  0  0
    3.5360   -3.2005    1.3115 O   0  0  0  0  0  0  0  0  0  0  0  0
   -0.0113   -2.6869    0.5854 H   0  0  0  0  0  0  0  0  0  0  0  0
    0.1587   -1.6068    2.8727 H   0  0  0  0  0  0  0  0  0  0  0  0
    2.5934   -0.7913    2.4938 H   0  0  0  0  0  0  0  0  0  0  0  0
    2.3522   -1.0984    0.7787 H   0  0  0  0  0  0  0  0  0  0  0  0
    1.3920    1.0942    1.7693 N   0  0  0  0  0  0  0  0  0  0  0  0
    1.3850    2.5386    1.7701 C   0  0  2  0  0  0  0  0  0  0  0  0
    2.4875    3.0147    0.8334 C   0  0  0  0  0  0  0  0  0  0  0  0
    3.4561    2.3212    0.5303 O   0  0  0  0  0  0  0  0  0  0  0  0
    1.5863    3.0921    3.1722 C   0  0  0  0  0  0  0  0  0  0  0  0
    2.2865    0.6258    1.6585 H   0  0  0  0  0  0  0  0  0  0  0  0
    0.4112    2.8504    1.3771 H   0  0  0  0  0  0  0  0  0  0  0  0
    2.5568    2.7902    3.5825 H   0  0  0  0  0  0  0  0  0  0  0  0
    1.5522    4.1866    3.1753 H   0  0  0  0  0  0  0  0  0  0  0  0
    0.8095    2.7248    3.8514 H   0  0  0  0  0  0  0  0  0  0  0  0
    2.2847    4.3208    0.4100 N   0  0  0  0  0  0  0  0  0  0  0  0
    3.1990    5.0044   -0.4747 C   0  0  0  0  0  0  0  0  0  0  0  0
    1.4441    4.8139    0.6961 H   0  0  0  0  0  0  0  0  0  0  0  0
    3.9364    5.5635    0.1200 H   0  0  0  0  0  0  0  0  0  0  0  0
    3.7189    4.2679   -1.1049 H   0  0  0  0  0  0  0  0  0  0  0  0
    2.6380    5.7025   -1.1134 H   0  0  0  0  0  0  0  0  0  0  0  0
  1  3  1  0  0  0  0
  1  7  1  0  0  0  0
  1  2  2  0  0  0  0
 30 31  1  0  0  0  0
 31 39  1  0  0  0  0
 31 32  2  0  0  0  0
  8  9  1  0  0  0  0
  9 17  1  0  0  0  0
  9 10  2  0  0  0  0
 18 19  1  0  0  0  0
 19 29  1  0  0  0  0
 19 20  2  0  0  0  0
 21 22  1  0  0  0  0
 22 23  1  0  0  0  0
 22 24  2  0  0  0  0
 30 33  1  0  0  0  0
  8 11  1  0  0  0  0
 39 40  1  0  0  0  0
 18 21  1  0  0  0  0
 29 30  1  0  0  0  0
  7  8  1  0  0  0  0
 17 18  1  0  0  0  0
  3  4  1  0  0  0  0
  3  5  1  0  0  0  0
  3  6  1  0  0  0  0
 33 36  1  0  0  0  0
 33 37  1  0  0  0  0
 33 38  1  0  0  0  0
 11 14  1  0  0  0  0
 11 15  1  0  0  0  0
 11 16  1  0  0  0  0
 40 42  1  0  0  0  0
 40 43  1  0  0  0  0
 40 44  1  0  0  0  0
 21 27  1  0  0  0  0
 21 28  1  0  0  0  0
 30 35  1  0  0  0  0
  8 13  1  0  0  0  0
 18 26  1  0  0  0  0
 39 41  1  0  0  0  0
  7 12  1  0  0  0  0
 29 34  1  0  0  0  0
 17 25  1  0  0  0  0
M  CHG  1  23  -1
M  END
$$$$

  -OEChem-05262214473D

 44 43  0     1  0  0  0  0  0999 V2000
   -4.0256   -1.8030   -2.1581 C   0  0  0  0  0  0  0  0  0  0  0  0
   -3.7513   -2.6782   -2.9709 O   0  0  0  0  0  0  0  0  0  0  0  0
   -5.3491   -1.1169   -2.2339 C   0  0  0  0  0  0  0  0  0  0  0  0
   -5.3223   -0.2211   -2.8750 H   0  0  0  0  0  0  0  0  0  0  0  0
   -6.1322   -1.7605   -2.6658 H   0  0  0  0  0  0  0  0  0  0  0  0
   -5.7568   -0.7715   -1.2704 H   0  0  0  0  0  0  0  0  0  0  0  0
   -3.2124   -1.3578   -1.1289 N   0  0  0  0  0  0  0  0  0  0  0  0
   -1.8971   -1.8843   -0.8752 C   0  0  2  0  0  0  0  0  0  0  0  0
   -1.2676   -1.0599    0.2399 C   0  0  0  0  0  0  0  0  0  0  0  0
   -1.6270    0.0833    0.5138 O   0  0  0  0  0  0  0  0  0  0  0  0
   -1.0364   -1.8506   -2.1285 C   0  0  0  0  0  0  0  0  0  0  0  0
   -3.5631   -0.6202   -0.5206 H   0  0  0  0  0  0  0  0  0  0  0  0
   -2.0301   -2.9174   -0.5360 H   0  0  0  0  0  0  0  0  0  0  0  0
   -0.8921   -0.8236   -2.4833 H   0  0  0  0  0  0  0  0  0  0  0  0
   -0.0457   -2.2777   -1.9410 H   0  0  0  0  0  0  0  0  0  0  0  0
   -1.5052   -2.4193   -2.9387 H   0  0  0  0  0  0  0  0  0  0  0  0
   -0.2267   -1.7335    0.8672 N   0  0  0  0  0  0  0  0  0  0  0  0
    0.5363   -1.1590    1.9465 C   0  0  2  0  0  0  0  0  0  0  0  0
    0.2442    0.3371    1.9576 C   0  0  0  0  0  0  0  0  0  0  0  0
   -0.7931    0.8142    2.4133 O   0  0  0  0  0  0  0  0  0  0  0  0
    2.0330   -1.4120    1.7812 C   0  0  0  0  0  0  0  0  0  0  0  0
    2.5020   -2.8628    1.9500 C   0  0  0  0  0  0  0  0  0  0  0  0
    1.7830   -3.5501    2.7320 O   0  5  0  0  0  0  0  0  0  0  0  0
    3.5360   -3.2005    1.3115 O   0  0  0  0  0  0  0  0  0  0  0  0
   -0.0113   -2.6869    0.5854 H   0  0  0  0  0  0  0  0  0  0  0  0
    0.1587   -1.6068    2.8727 H   0  0  0  0  0  0  0  0  0  0  0  0
    2.5934   -0.7913    2.4938 H   0  0  0  0  0  0  0  0  0  0  0  0
    2.3522   -1.0984    0.7787 H   0  0  0  0  0  0  0  0  0  0  0  0
    1.3002    1.0787    1.4467 N   0  0  0  0  0  0  0  0  0  0  0  0
    1.2817    2.5213    1.3780 C   0  0  2  0  0  0  0  0  0  0  0  0
    2.1061    2.9452    0.1696 C   0  0  0  0  0  0  0  0  0  0  0  0
    2.9717    2.2331   -0.3351 O   0  0  0  0  0  0  0  0  0  0  0  0
    1.8278    3.1432    2.6538 C   0  0  0  0  0  0  0  0  0  0  0  0
    2.1411    0.6013    1.1355 H   0  0  0  0  0  0  0  0  0  0  0  0
    0.2374    2.8175    1.2304 H   0  0  0  0  0  0  0  0  0  0  0  0
    2.8732    2.8577    2.8185 H   0  0  0  0  0  0  0  0  0  0  0  0
    1.7866    4.2366    2.6115 H   0  0  0  0  0  0  0  0  0  0  0  0
    1.2520    2.8137    3.5254 H   0  0  0  0  0  0  0  0  0  0  0  0
    1.7916    4.2294   -0.2523 N   0  0  0  0  0  0  0  0  0  0  0  0
    2.4455    4.8640   -1.3729 C   0  0  0  0  0  0  0  0  0  0  0  0
    1.0471    4.7400    0.2133 H   0  0  0  0  0  0  0  0  0  0  0  0
    3.3051    5.4487   -1.0134 H   0  0  0  0  0  0  0  0  0  0  0  0
    2.7944    4.0946   -2.0774 H   0  0  0  0  0  0  0  0  0  0  0  0
    1.7349    5.5319   -1.8817 H   0  0  0  0  0  0  0  0  0  0  0  0
  1  3  1  0  0  0  0
  1  7  1  0  0  0  0
  1  2  2  0  0  0  0
 30 31  1  0  0  0  0
 31 39  1  0  0  0  0
 31 32  2  0  0  0  0
  8  9  1  0  0  0  0
  9 17  1  0  0  0  0
  9 10  2  0  0  0  0
 18 19  1  0  0  0  0
 19 29  1  0  0  0  0
 19 20  2  0  0  0  0
 21 22  1  0  0  0  0
 22 23  1  0  0  0  0
 22 24  2  0  0  0  0
 30 33  1  0  0  0  0
  8 11  1  0  0  0  0
 39 40  1  0  0  0  0
 18 21  1  0  0  0  0
 29 30  1  0  0  0  0
  7  8  1  0  0  0  0
 17 18  1  0  0  0  0
  3  4  1  0  0  0  0
  3  5  1  0  0  0  0
  3  6  1  0  0  0  0
 33 36  1  0  0  0  0
 33 37  1  0  0  0  0
 33 38  1  0  0  0  0
 11 14  1  0  0  0  0
 11 15  1  0  0  0  0
 11 16  1  0  0  0  0
 40 42  1  0  0  0  0
 40 43  1  0  0  0  0
 40 44  1  0  0  0  0
 21 27  1  0  0  0  0
 21 28  1  0  0  0  0
 30 35  1  0  0  0  0
  8 13  1  0  0  0  0
 18 26  1  0  0  0  0
 39 41  1  0  0  0  0
  7 12  1  0  0  0  0
 29 34  1  0  0  0  0
 17 25  1  0  0  0  0
M  CHG  1  23  -1
M  END
$$$$

  -OEChem-05262214473D

 44 43  0     1  0  0  0  0  0999 V2000
   -4.0256   -1.8030   -2.1581 C   0  0  0  0  0  0  0  0  0  0  0  0
   -3.7513   -2.6782   -2.9709 O   0  0  0  0  0  0  0  0  0  0  0  0
   -5.3491   -1.1169   -2.2339 C   0  0  0  0  0  0  0  0  0  0  0  0
   -5.3223   -0.2211   -2.8750 H   0  0  0  0  0  0  0  0  0  0  0  0
   -6.1322   -1.7605   -2.6658 H   0  0  0  0  0  0  0  0  0  0  0  0
   -5.7568   -0.7715   -1.2704 H   0  0  0  0  0  0  0  0  0  0  0  0
   -3.2124   -1.3578   -1.1289 N   0  0  0  0  0  0  0  0  0  0  0  0
   -1.8971   -1.8843   -0.8752 C   0  0  2  0  0  0  0  0  0  0  0  0
   -1.2676   -1.0599    0.2399 C   0  0  0  0  0  0  0  0  0  0  0  0
   -1.6270    0.0833    0.5138 O   0  0  0  0  0  0  0  0  0  0  0  0
   -1.0364   -1.8506   -2.1285 C   0  0  0  0  0  0  0  0  0  0  0  0
   -3.5631   -0.6202   -0.5206 H   0  0  0  0  0  0  0  0  0  0  0  0
   -2.0301   -2.9174   -0.5360 H   0  0  0  0  0  0  0  0  0  0  0  0
   -0.8921   -0.8236   -2.4833 H   0  0  0  0  0  0  0  0  0  0  0  0
   -0.0457   -2.2777   -1.9410 H   0  0  0  0  0  0  0  0  0  0  0  0
   -1.5052   -2.4193   -2.9387 H   0  0  0  0  0  0  0  0  0  0  0  0
   -0.2267   -1.7335    0.8672 N   0  0  0  0  0  0  0  0  0  0  0  0
    0.5363   -1.1590    1.9465 C   0  0  2  0  0  0  0  0  0  0  0  0
    0.2442    0.3371    1.9576 C   0  0  0  0  0  0  0  0  0  0  0  0
   -0.6473    0.8410    2.6377 O   0  0  0  0  0  0  0  0  0  0  0  0
    2.0330   -1.4120    1.7812 C   0  0  0  0  0  0  0  0  0  0  0  0
    2.5020   -2.8628    1.9500 C   0  0  0  0  0  0  0  0  0  0  0  0
    1.7830   -3.5501    2.7320 O   0  5  0  0  0  0  0  0  0  0  0  0
    3.5360   -3.2005    1.3115 O   0  0  0  0  0  0  0  0  0  0  0  0
   -0.0113   -2.6869    0.5854 H   0  0  0  0  0  0  0  0  0  0  0  0
    0.1587   -1.6068    2.8727 H   0  0  0  0  0  0  0  0  0  0  0  0
    2.5934   -0.7913    2.4938 H   0  0  0  0  0  0  0  0  0  0  0  0
    2.3522   -1.0984    0.7787 H   0  0  0  0  0  0  0  0  0  0  0  0
    1.1297    1.0475    1.1592 N   0  0  0  0  0  0  0  0  0  0  0  0
    1.0823    2.4850    1.0263 C   0  0  2  0  0  0  0  0  0  0  0  0
    1.5693    2.8444   -0.3712 C   0  0  0  0  0  0  0  0  0  0  0  0
    2.2842    2.1041   -1.0435 O   0  0  0  0  0  0  0  0  0  0  0  0
    1.9293    3.1672    2.0892 C   0  0  0  0  0  0  0  0  0  0  0  0
    1.8679    0.5514    0.6686 H   0  0  0  0  0  0  0  0  0  0  0  0
    0.0323    2.7782    1.1345 H   0  0  0  0  0  0  0  0  0  0  0  0
    2.9846    2.8855    1.9968 H   0  0  0  0  0  0  0  0  0  0  0  0
    1.8696    4.2573    2.0049 H   0  0  0  0  0  0  0  0  0  0  0  0
    1.5965    2.8842    3.0937 H   0  0  0  0  0  0  0  0  0  0  0  0
    1.1473    4.1074   -0.7622 N   0  0  0  0  0  0  0  0  0  0  0  0
    1.4898    4.6824   -2.0421 C   0  0  0  0  0  0  0  0  0  0  0  0
    0.5412    4.6439   -0.1486 H   0  0  0  0  0  0  0  0  0  0  0  0
    2.4076    5.2804   -1.9422 H   0  0  0  0  0  0  0  0  0  0  0  0
    1.6547    3.8773   -2.7733 H   0  0  0  0  0  0  0  0  0  0  0  0
    0.6677    5.3273   -2.3861 H   0  0  0  0  0  0  0  0  0  0  0  0
  1  3  1  0  0  0  0
  1  7  1  0  0  0  0
  1  2  2  0  0  0  0
 30 31  1  0  0  0  0
 31 39  1  0  0  0  0
 31 32  2  0  0  0  0
  8  9  1  0  0  0  0
  9 17  1  0  0  0  0
  9 10  2  0  0  0  0
 18 19  1  0  0  0  0
 19 29  1  0  0  0  0
 19 20  2  0  0  0  0
 21 22  1  0  0  0  0
 22 23  1  0  0  0  0
 22 24  2  0  0  0  0
 30 33  1  0  0  0  0
  8 11  1  0  0  0  0
 39 40  1  0  0  0  0
 18 21  1  0  0  0  0
 29 30  1  0  0  0  0
  7  8  1  0  0  0  0
 17 18  1  0  0  0  0
  3  4  1  0  0  0  0
  3  5  1  0  0  0  0
  3  6  1  0  0  0  0
 33 36  1  0  0  0  0
 33 37  1  0  0  0  0
 33 38  1  0  0  0  0
 11 14  1  0  0  0  0
 11 15  1  0  0  0  0
 11 16  1  0  0  0  0
 40 42  1  0  0  0  0
 40 43  1  0  0  0  0
 40 44  1  0  0  0  0
 21 27  1  0  0  0  0
 21 28  1  0  0  0  0
 30 35  1  0  0  0  0
  8 13  1  0  0  0  0
 18 26  1  0  0  0  0
 39 41  1  0  0  0  0
  7 12  1  0  0  0  0
 29 34  1  0  0  0  0
 17 25  1  0  0  0  0
M  CHG  1  23  -1
M  END
$$$$

  -OEChem-05262214473D

 44 43  0     1  0  0  0  0  0999 V2000
   -4.0256   -1.8030   -2.1581 C   0  0  0  0  0  0  0  0  0  0  0  0
   -3.7513   -2.6782   -2.9709 O   0  0  0  0  0  0  0  0  0  0  0  0
   -5.3491   -1.1169   -2.2339 C   0  0  0  0  0  0  0  0  0  0  0  0
   -5.3223   -0.2211   -2.8750 H   0  0  0  0  0  0  0  0  0  0  0  0
   -6.1322   -1.7605   -2.6658 H   0  0  0  0  0  0  0  0  0  0  0  0
   -5.7568   -0.7715   -1.2704 H   0  0  0  0  0  0  0  0  0  0  0  0
   -3.2124   -1.3578   -1.1289 N   0  0  0  0  0  0  0  0  0  0  0  0
   -1.8971   -1.8843   -0.8752 C   0  0  2  0  0  0  0  0  0  0  0  0
   -1.2676   -1.0599    0.2399 C   0  0  0  0  0  0  0  0  0  0  0  0
   -1.6270    0.0833    0.5138 O   0  0  0  0  0  0  0  0  0  0  0  0
   -1.0364   -1.8506   -2.1285 C   0  0  0  0  0  0  0  0  0  0  0  0
   -3.5631   -0.6202   -0.5206 H   0  0  0  0  0  0  0  0  0  0  0  0
   -2.0301   -2.9174   -0.5360 H   0  0  0  0  0  0  0  0  0  0  0  0
   -0.8921   -0.8236   -2.4833 H   0  0  0  0  0  0  0  0  0  0  0  0
   -0.0457   -2.2777   -1.9410 H   0  0  0  0  0  0  0  0  0  0  0  0
   -1.5052   -2.4193   -2.9387 H   0  0  0  0  0  0  0  0  0  0  0  0
   -0.2267   -1.7335    0.8672 N   0  0  0  0  0  0  0  0  0  0  0  0
    0.5363   -1.1590    1.9465 C   0  0  2  0  0  0  0  0  0  0  0  0
    0.2442    0.3371    1.9576 C   0  0  0  0  0  0  0  0  0  0  0  0
   -0.4495    0.8783    2.8162 O   0  0  0  0  0  0  0  0  0  0  0  0
    2.0330   -1.4120    1.7812 C   0  0  0  0  0  0  0  0  0  0  0  0
    2.5020   -2.8628    1.9500 C   0  0  0  0  0  0  0  0  0  0  0  0
    1.7830   -3.5501    2.7320 O   0  5  0  0  0  0  0  0  0  0  0  0
    3.5360   -3.2005    1.3115 O   0  0  0  0  0  0  0  0  0  0  0  0
   -0.0113   -2.6869    0.5854 H   0  0  0  0  0  0  0  0  0  0  0  0
    0.1587   -1.6068    2.8727 H   0  0  0  0  0  0  0  0  0  0  0  0
    2.5934   -0.7913    2.4938 H   0  0  0  0  0  0  0  0  0  0  0  0
    2.3522   -1.0984    0.7787 H   0  0  0  0  0  0  0  0  0  0  0  0
    0.8919    1.0028    0.9264 N   0  0  0  0  0  0  0  0  0  0  0  0
    0.8004    2.4321    0.7391 C   0  0  2  0  0  0  0  0  0  0  0  0
    0.9135    2.7192   -0.7523 C   0  0  0  0  0  0  0  0  0  0  0  0
    1.4404    1.9431   -1.5467 O   0  0  0  0  0  0  0  0  0  0  0  0
    1.8839    3.1626    1.5169 C   0  0  0  0  0  0  0  0  0  0  0  0
    1.4854    0.4796    0.2894 H   0  0  0  0  0  0  0  0  0  0  0  0
   -0.1901    2.7351    1.0958 H   0  0  0  0  0  0  0  0  0  0  0  0
    2.8834    2.8719    1.1735 H   0  0  0  0  0  0  0  0  0  0  0  0
    1.7957    4.2474    1.3968 H   0  0  0  0  0  0  0  0  0  0  0  0
    1.8195    2.9315    2.5857 H   0  0  0  0  0  0  0  0  0  0  0  0
    0.3955    3.9630   -1.0851 N   0  0  0  0  0  0  0  0  0  0  0  0
    0.3970    4.4719   -2.4368 C   0  0  0  0  0  0  0  0  0  0  0  0
   -0.0392    4.5322   -0.3648 H   0  0  0  0  0  0  0  0  0  0  0  0
    1.3051    5.0701   -2.6029 H   0  0  0  0  0  0  0  0  0  0  0  0
    0.3776    3.6306   -3.1452 H   0  0  0  0  0  0  0  0  0  0  0  0
   -0.4908    5.1026   -2.5920 H   0  0  0  0  0  0  0  0  0  0  0  0
  1  3  1  0  0  0  0
  1  7  1  0  0  0  0
  1  2  2  0  0  0  0
 30 31  1  0  0  0  0
 31 39  1  0  0  0  0
 31 32  2  0  0  0  0
  8  9  1  0  0  0  0
  9 17  1  0  0  0  0
  9 10  2  0  0  0  0
 18 19  1  0  0  0  0
 19 29  1  0  0  0  0
 19 20  2  0  0  0  0
 21 22  1  0  0  0  0
 22 23  1  0  0  0  0
 22 24  2  0  0  0  0
 30 33  1  0  0  0  0
  8 11  1  0  0  0  0
 39 40  1  0  0  0  0
 18 21  1  0  0  0  0
 29 30  1  0  0  0  0
  7  8  1  0  0  0  0
 17 18  1  0  0  0  0
  3  4  1  0  0  0  0
  3  5  1  0  0  0  0
  3  6  1  0  0  0  0
 33 36  1  0  0  0  0
 33 37  1  0  0  0  0
 33 38  1  0  0  0  0
 11 14  1  0  0  0  0
 11 15  1  0  0  0  0
 11 16  1  0  0  0  0
 40 42  1  0  0  0  0
 40 43  1  0  0  0  0
 40 44  1  0  0  0  0
 21 27  1  0  0  0  0
 21 28  1  0  0  0  0
 30 35  1  0  0  0  0
  8 13  1  0  0  0  0
 18 26  1  0  0  0  0
 39 41  1  0  0  0  0
  7 12  1  0  0  0  0
 29 34  1  0  0  0  0
 17 25  1  0  0  0  0
M  CHG  1  23  -1
M  END
$$$$

  -OEChem-05262214473D

 44 43  0     1  0  0  0  0  0999 V2000
   -4.0256   -1.8030   -2.1581 C   0  0  0  0  0  0  0  0  0  0  0  0
   -3.7513   -2.6782   -2.9709 O   0  0  0  0  0  0  0  0  0  0  0  0
   -5.3491   -1.1169   -2.2339 C   0  0  0  0  0  0  0  0  0  0  0  0
   -5.3223   -0.2211   -2.8750 H   0  0  0  0  0  0  0  0  0  0  0  0
   -6.1322   -1.7605   -2.6658 H   0  0  0  0  0  0  0  0  0  0  0  0
   -5.7568   -0.7715   -1.2704 H   0  0  0  0  0  0  0  0  0  0  0  0
   -3.2124   -1.3578   -1.1289 N   0  0  0  0  0  0  0  0  0  0  0  0
   -1.8971   -1.8843   -0.8752 C   0  0  2  0  0  0  0  0  0  0  0  0
   -1.2676   -1.0599    0.2399 C   0  0  0  0  0  0  0  0  0  0  0  0
   -1.6270    0.0833    0.5138 O   0  0  0  0  0  0  0  0  0  0  0  0
   -1.0364   -1.8506   -2.1285 C   0  0  0  0  0  0  0  0  0  0  0  0
   -3.5631   -0.6202   -0.5206 H   0  0  0  0  0  0  0  0  0  0  0  0
   -2.0301   -2.9174   -0.5360 H   0  0  0  0  0  0  0  0  0  0  0  0
   -0.8921   -0.8236   -2.4833 H   0  0  0  0  0  0  0  0  0  0  0  0
   -0.0457   -2.2777   -1.9410 H   0  0  0  0  0  0  0  0  0  0  0  0
   -1.5052   -2.4193   -2.9387 H   0  0  0  0  0  0  0  0  0  0  0  0
   -0.2267   -1.7335    0.8672 N   0  0  0  0  0  0  0  0  0  0  0  0
    0.5363   -1.1590    1.9465 C   0  0  2  0  0  0  0  0  0  0  0  0
    0.2442    0.3371    1.9576 C   0  0  0  0  0  0  0  0  0  0  0  0
   -0.2132    0.9235    2.9365 O   0  0  0  0  0  0  0  0  0  0  0  0
    2.0330   -1.4120    1.7812 C   0  0  0  0  0  0  0  0  0  0  0  0
    2.5020   -2.8628    1.9500 C   0  0  0  0  0  0  0  0  0  0  0  0
    1.7830   -3.5501    2.7320 O   0  5  0  0  0  0  0  0  0  0  0  0
    3.5360   -3.2005    1.3115 O   0  0  0  0  0  0  0  0  0  0  0  0
   -0.0113   -2.6869    0.5854 H   0  0  0  0  0  0  0  0  0  0  0  0
    0.1587   -1.6068    2.8727 H   0  0  0  0  0  0  0  0  0  0  0  0
    2.5934   -0.7913    2.4938 H   0  0  0  0  0  0  0  0  0  0  0  0
    2.3522   -1.0984    0.7787 H   0  0  0  0  0  0  0  0  0  0  0  0
    0.6032    0.9477    0.7641 N   0  0  0  0  0  0  0  0  0  0  0  0
    0.4553    2.3662    0.5359 C   0  0  2  0  0  0  0  0  0  0  0  0
    0.1835    2.5781   -0.9476 C   0  0  0  0  0  0  0  0  0  0  0  0
    0.4978    1.7610   -1.8105 O   0  0  0  0  0  0  0  0  0  0  0  0
    1.6947    3.1297    0.9759 C   0  0  0  0  0  0  0  0  0  0  0  0
    1.0198    0.3906    0.0238 H   0  0  0  0  0  0  0  0  0  0  0  0
   -0.4146    2.6911    1.1172 H   0  0  0  0  0  0  0  0  0  0  0  0
    2.5766    2.8178    0.4045 H   0  0  0  0  0  0  0  0  0  0  0  0
    1.5699    4.2076    0.8287 H   0  0  0  0  0  0  0  0  0  0  0  0
    1.9058    2.9524    2.0360 H   0  0  0  0  0  0  0  0  0  0  0  0
   -0.4123    3.8061   -1.1988 N   0  0  0  0  0  0  0  0  0  0  0  0
   -0.7584    4.2470   -2.5299 C   0  0  0  0  0  0  0  0  0  0  0  0
   -0.6546    4.4125   -0.4208 H   0  0  0  0  0  0  0  0  0  0  0  0
    0.0728    4.8320   -2.9507 H   0  0  0  0  0  0  0  0  0  0  0  0
   -0.9501    3.3716   -3.1678 H   0  0  0  0  0  0  0  0  0  0  0  0
   -1.6617    4.8732   -2.4854 H   0  0  0  0  0  0  0  0  0  0  0  0
  1  3  1  0  0  0  0
  1  7  1  0  0  0  0
  1  2  2  0  0  0  0
 30 31  1  0  0  0  0
 31 39  1  0  0  0  0
 31 32  2  0  0  0  0
  8  9  1  0  0  0  0
  9 17  1  0  0  0  0
  9 10  2  0  0  0  0
 18 19  1  0  0  0  0
 19 29  1  0  0  0  0
 19 20  2  0  0  0  0
 21 22  1  0  0  0  0
 22 23  1  0  0  0  0
 22 24  2  0  0  0  0
 30 33  1  0  0  0  0
  8 11  1  0  0  0  0
 39 40  1  0  0  0  0
 18 21  1  0  0  0  0
 29 30  1  0  0  0  0
  7  8  1  0  0  0  0
 17 18  1  0  0  0  0
  3  4  1  0  0  0  0
  3  5  1  0  0  0  0
  3  6  1  0  0  0  0
 33 36  1  0  0  0  0
 33 37  1  0  0  0  0
 33 38  1  0  0  0  0
 11 14  1  0  0  0  0
 11 15  1  0  0  0  0
 11 16  1  0  0  0  0
 40 42  1  0  0  0  0
 40 43  1  0  0  0  0
 40 44  1  0  0  0  0
 21 27  1  0  0  0  0
 21 28  1  0  0  0  0
 30 35  1  0  0  0  0
  8 13  1  0  0  0  0
 18 26  1  0  0  0  0
 39 41  1  0  0  0  0
  7 12  1  0  0  0  0
 29 34  1  0  0  0  0
 17 25  1  0  0  0  0
M  CHG  1  23  -1
M  END
$$$$

  -OEChem-05262214473D

 44 43  0     1  0  0  0  0  0999 V2000
   -4.0256   -1.8030   -2.1581 C   0  0  0  0  0  0  0  0  0  0  0  0
   -3.7513   -2.6782   -2.9709 O   0  0  0  0  0  0  0  0  0  0  0  0
   -5.3491   -1.1169   -2.2339 C   0  0  0  0  0  0  0  0  0  0  0  0
   -5.3223   -0.2211   -2.8750 H   0  0  0  0  0  0  0  0  0  0  0  0
   -6.1322   -1.7605   -2.6658 H   0  0  0  0  0  0  0  0  0  0  0  0
   -5.7568   -0.7715   -1.2704 H   0  0  0  0  0  0  0  0  0  0  0  0
   -3.2124   -1.3578   -1.1289 N   0  0  0  0  0  0  0  0  0  0  0  0
   -1.8971   -1.8843   -0.8752 C   0  0  2  0  0  0  0  0  0  0  0  0
   -1.2676   -1.0599    0.2399 C   0  0  0  0  0  0  0  0  0  0  0  0
   -1.6270    0.0833    0.5138 O   0  0  0  0  0  0  0  0  0  0  0  0
   -1.0364   -1.8506   -2.1285 C   0  0  0  0  0  0  0  0  0  0  0  0
   -3.5631   -0.6202   -0.5206 H   0  0  0  0  0  0  0  0  0  0  0  0
   -2.0301   -2.9174   -0.5360 H   0  0  0  0  0  0  0  0  0  0  0  0
   -0.8921   -0.8236   -2.4833 H   0  0  0  0  0  0  0  0  0  0  0  0
   -0.0457   -2.2777   -1.9410 H   0  0  0  0  0  0  0  0  0  0  0  0
   -1.5052   -2.4193   -2.9387 H   0  0  0  0  0  0  0  0  0  0  0  0
   -0.2267   -1.7335    0.8672 N   0  0  0  0  0  0  0  0  0  0  0  0
    0.5363   -1.1590    1.9465 C   0  0  2  0  0  0  0  0  0  0  0  0
    0.2442    0.3371    1.9576 C   0  0  0  0  0  0  0  0  0  0  0  0
    0.0455    0.9737    2.9904 O   0  0  0  0  0  0  0  0  0  0  0  0
    2.0330   -1.4120    1.7812 C   0  0  0  0  0  0  0  0  0  0  0  0
    2.5020   -2.8628    1.9500 C   0  0  0  0  0  0  0  0  0  0  0  0
    1.7830   -3.5501    2.7320 O   0  5  0  0  0  0  0  0  0  0  0  0
    3.5360   -3.2005    1.3115 O   0  0  0  0  0  0  0  0  0  0  0  0
   -0.0113   -2.6869    0.5854 H   0  0  0  0  0  0  0  0  0  0  0  0
    0.1587   -1.6068    2.8727 H   0  0  0  0  0  0  0  0  0  0  0  0
    2.5934   -0.7913    2.4938 H   0  0  0  0  0  0  0  0  0  0  0  0
    2.3522   -1.0984    0.7787 H   0  0  0  0  0  0  0  0  0  0  0  0
    0.2832    0.8858    0.6834 N   0  0  0  0  0  0  0  0  0  0  0  0
    0.0704    2.2919    0.4306 C   0  0  2  0  0  0  0  0  0  0  0  0
   -0.5710    2.4308   -0.9438 C   0  0  0  0  0  0  0  0  0  0  0  0
   -0.4794    1.5702   -1.8168 O   0  0  0  0  0  0  0  0  0  0  0  0
    1.3746    3.0707    0.5030 C   0  0  0  0  0  0  0  0  0  0  0  0
    0.5028    0.2907   -0.1100 H   0  0  0  0  0  0  0  0  0  0  0  0
   -0.6260    2.6492    1.1970 H   0  0  0  0  0  0  0  0  0  0  0  0
    2.0850    2.7267   -0.2576 H   0  0  0  0  0  0  0  0  0  0  0  0
    1.2075    4.1405    0.3394 H   0  0  0  0  0  0  0  0  0  0  0  0
    1.8494    2.9456    1.4821 H   0  0  0  0  0  0  0  0  0  0  0  0
   -1.2212    3.6474   -1.0957 N   0  0  0  0  0  0  0  0  0  0  0  0
   -1.8976    4.0230   -2.3153 C   0  0  0  0  0  0  0  0  0  0  0  0
   -1.2630    4.2929   -0.3125 H   0  0  0  0  0  0  0  0  0  0  0  0
   -1.2055    4.5825   -2.9617 H   0  0  0  0  0  0  0  0  0  0  0  0
   -2.2378    3.1177   -2.8395 H   0  0  0  0  0  0  0  0  0  0  0  0
   -2.7652    4.6546   -2.0737 H   0  0  0  0  0  0  0  0  0  0  0  0
  1  3  1  0  0  0  0
  1  7  1  0  0  0  0
  1  2  2  0  0  0  0
 30 31  1  0  0  0  0
 31 39  1  0  0  0  0
 31 32  2  0  0  0  0
  8  9  1  0  0  0  0
  9 17  1  0  0  0  0
  9 10  2  0  0  0  0
 18 19  1  0  0  0  0
 19 29  1  0  0  0  0
 19 20  2  0  0  0  0
 21 22  1  0  0  0  0
 22 23  1  0  0  0  0
 22 24  2  0  0  0  0
 30 33  1  0  0  0  0
  8 11  1  0  0  0  0
 39 40  1  0  0  0  0
 18 21  1  0  0  0  0
 29 30  1  0  0  0  0
  7  8  1  0  0  0  0
 17 18  1  0  0  0  0
  3  4  1  0  0  0  0
  3  5  1  0  0  0  0
  3  6  1  0  0  0  0
 33 36  1  0  0  0  0
 33 37  1  0  0  0  0
 33 38  1  0  0  0  0
 11 14  1  0  0  0  0
 11 15  1  0  0  0  0
 11 16  1  0  0  0  0
 40 42  1  0  0  0  0
 40 43  1  0  0  0  0
 40 44  1  0  0  0  0
 21 27  1  0  0  0  0
 21 28  1  0  0  0  0
 30 35  1  0  0  0  0
  8 13  1  0  0  0  0
 18 26  1  0  0  0  0
 39 41  1  0  0  0  0
  7 12  1  0  0  0  0
 29 34  1  0  0  0  0
 17 25  1  0  0  0  0
M  CHG  1  23  -1
M  END
$$$$

  -OEChem-05262214473D

 44 43  0     1  0  0  0  0  0999 V2000
   -4.0256   -1.8030   -2.1581 C   0  0  0  0  0  0  0  0  0  0  0  0
   -3.7513   -2.6782   -2.9709 O   0  0  0  0  0  0  0  0  0  0  0  0
   -5.3491   -1.1169   -2.2339 C   0  0  0  0  0  0  0  0  0  0  0  0
   -5.3223   -0.2211   -2.8750 H   0  0  0  0  0  0  0  0  0  0  0  0
   -6.1322   -1.7605   -2.6658 H   0  0  0  0  0  0  0  0  0  0  0  0
   -5.7568   -0.7715   -1.2704 H   0  0  0  0  0  0  0  0  0  0  0  0
   -3.2124   -1.3578   -1.1289 N   0  0  0  0  0  0  0  0  0  0  0  0
   -1.8971   -1.8843   -0.8752 C   0  0  2  0  0  0  0  0  0  0  0  0
   -1.2676   -1.0599    0.2399 C   0  0  0  0  0  0  0  0  0  0  0  0
   -1.6270    0.0833    0.5138 O   0  0  0  0  0  0  0  0  0  0  0  0
   -1.0364   -1.8506   -2.1285 C   0  0  0  0  0  0  0  0  0  0  0  0
   -3.5631   -0.6202   -0.5206 H   0  0  0  0  0  0  0  0  0  0  0  0
   -2.0301   -2.9174   -0.5360 H   0  0  0  0  0  0  0  0  0  0  0  0
   -0.8921   -0.8236   -2.4833 H   0  0  0  0  0  0  0  0  0  0  0  0
   -0.0457   -2.2777   -1.9410 H   0  0  0  0  0  0  0  0  0  0  0  0
   -1.5052   -2.4193   -2.9387 H   0  0  0  0  0  0  0  0  0  0  0  0
   -0.2267   -1.7335    0.8672 N   0  0  0  0  0  0  0  0  0  0  0  0
    0.5363   -1.1590    1.9465 C   0  0  2  0  0  0  0  0  0  0  0  0
    0.2442    0.3371    1.9576 C   0  0  0  0  0  0  0  0  0  0  0  0
    0.3090    1.0252    2.9742 O   0  0  0  0  0  0  0  0  0  0  0  0
    2.0330   -1.4120    1.7812 C   0  0  0  0  0  0  0  0  0  0  0  0
    2.5020   -2.8628    1.9500 C   0  0  0  0  0  0  0  0  0  0  0  0
    1.7830   -3.5501    2.7320 O   0  5  0  0  0  0  0  0  0  0  0  0
    3.5360   -3.2005    1.3115 O   0  0  0  0  0  0  0  0  0  0  0  0
   -0.0113   -2.6869    0.5854 H   0  0  0  0  0  0  0  0  0  0  0  0
    0.1587   -1.6068    2.8727 H   0  0  0  0  0  0  0  0  0  0  0  0
    2.5934   -0.7913    2.4938 H   0  0  0  0  0  0  0  0  0  0  0  0
    2.3522   -1.0984    0.7787 H   0  0  0  0  0  0  0  0  0  0  0  0
   -0.0462    0.8214    0.6898 N   0  0  0  0  0  0  0  0  0  0  0  0
   -0.3279    2.2141    0.4303 C   0  0  2  0  0  0  0  0  0  0  0  0
   -1.2985    2.2872   -0.7412 C   0  0  0  0  0  0  0  0  0  0  0  0
   -1.4245    1.3838   -1.5653 O   0  0  0  0  0  0  0  0  0  0  0  0
    0.9453    2.9897    0.1304 C   0  0  0  0  0  0  0  0  0  0  0  0
   -0.0304    0.1865   -0.1029 H   0  0  0  0  0  0  0  0  0  0  0  0
   -0.8098    2.6123    1.3299 H   0  0  0  0  0  0  0  0  0  0  0  0
    1.4422    2.6050   -0.7677 H   0  0  0  0  0  0  0  0  0  0  0  0
    0.7333    4.0507   -0.0380 H   0  0  0  0  0  0  0  0  0  0  0  0
    1.6543    2.9113    0.9617 H   0  0  0  0  0  0  0  0  0  0  0  0
   -1.9761    3.4977   -0.7828 N   0  0  0  0  0  0  0  0  0  0  0  0
   -2.9431    3.8150   -1.8075 C   0  0  0  0  0  0  0  0  0  0  0  0
   -1.8229    4.1816   -0.0475 H   0  0  0  0  0  0  0  0  0  0  0  0
   -2.4425    4.3385   -2.6354 H   0  0  0  0  0  0  0  0  0  0  0  0
   -3.3977    2.8863   -2.1827 H   0  0  0  0  0  0  0  0  0  0  0  0
   -3.7261    4.4618   -1.3849 H   0  0  0  0  0  0  0  0  0  0  0  0
  1  3  1  0  0  0  0
  1  7  1  0  0  0  0
  1  2  2  0  0  0  0
 30 31  1  0  0  0  0
 31 39  1  0  0  0  0
 31 32  2  0  0  0  0
  8  9  1  0  0  0  0
  9 17  1  0  0  0  0
  9 10  2  0  0  0  0
 18 19  1  0  0  0  0
 19 29  1  0  0  0  0
 19 20  2  0  0  0  0
 21 22  1  0  0  0  0
 22 23  1  0  0  0  0
 22 24  2  0  0  0  0
 30 33  1  0  0  0  0
  8 11  1  0  0  0  0
 39 40  1  0  0  0  0
 18 21  1  0  0  0  0
 29 30  1  0  0  0  0
  7  8  1  0  0  0  0
 17 18  1  0  0  0  0
  3  4  1  0  0  0  0
  3  5  1  0  0  0  0
  3  6  1  0  0  0  0
 33 36  1  0  0  0  0
 33 37  1  0  0  0  0
 33 38  1  0  0  0  0
 11 14  1  0  0  0  0
 11 15  1  0  0  0  0
 11 16  1  0  0  0  0
 40 42  1  0  0  0  0
 40 43  1  0  0  0  0
 40 44  1  0  0  0  0
 21 27  1  0  0  0  0
 21 28  1  0  0  0  0
 30 35  1  0  0  0  0
  8 13  1  0  0  0  0
 18 26  1  0  0  0  0
 39 41  1  0  0  0  0
  7 12  1  0  0  0  0
 29 34  1  0  0  0  0
 17 25  1  0  0  0  0
M  CHG  1  23  -1
M  END
$$$$

  -OEChem-05262214473D

 44 43  0     1  0  0  0  0  0999 V2000
   -4.0256   -1.8030   -2.1581 C   0  0  0  0  0  0  0  0  0  0  0  0
   -3.7513   -2.6782   -2.9709 O   0  0  0  0  0  0  0  0  0  0  0  0
   -5.3491   -1.1169   -2.2339 C   0  0  0  0  0  0  0  0  0  0  0  0
   -5.3223   -0.2211   -2.8750 H   0  0  0  0  0  0  0  0  0  0  0  0
   -6.1322   -1.7605   -2.6658 H   0  0  0  0  0  0  0  0  0  0  0  0
   -5.7568   -0.7715   -1.2704 H   0  0  0  0  0  0  0  0  0  0  0  0
   -3.2124   -1.3578   -1.1289 N   0  0  0  0  0  0  0  0  0  0  0  0
   -1.8971   -1.8843   -0.8752 C   0  0  2  0  0  0  0  0  0  0  0  0
   -1.2676   -1.0599    0.2399 C   0  0  0  0  0  0  0  0  0  0  0  0
   -1.6270    0.0833    0.5138 O   0  0  0  0  0  0  0  0  0  0  0  0
   -1.0364   -1.8506   -2.1285 C   0  0  0  0  0  0  0  0  0  0  0  0
   -3.5631   -0.6202   -0.5206 H   0  0  0  0  0  0  0  0  0  0  0  0
   -2.0301   -2.9174   -0.5360 H   0  0  0  0  0  0  0  0  0  0  0  0
   -0.8921   -0.8236   -2.4833 H   0  0  0  0  0  0  0  0  0  0  0  0
   -0.0457   -2.2777   -1.9410 H   0  0  0  0  0  0  0  0  0  0  0  0
   -1.5052   -2.4193   -2.9387 H   0  0  0  0  0  0  0  0  0  0  0  0
   -0.2267   -1.7335    0.8672 N   0  0  0  0  0  0  0  0  0  0  0  0
    0.5363   -1.1590    1.9465 C   0  0  2  0  0  0  0  0  0  0  0  0
    0.2442    0.3371    1.9576 C   0  0  0  0  0  0  0  0  0  0  0  0
    0.5594    1.0747    2.8892 O   0  0  0  0  0  0  0  0  0  0  0  0
    2.0330   -1.4120    1.7812 C   0  0  0  0  0  0  0  0  0  0  0  0
    2.5020   -2.8628    1.9500 C   0  0  0  0  0  0  0  0  0  0  0  0
    1.7830   -3.5501    2.7320 O   0  5  0  0  0  0  0  0  0  0  0  0
    3.5360   -3.2005    1.3115 O   0  0  0  0  0  0  0  0  0  0  0  0
   -0.0113   -2.6869    0.5854 H   0  0  0  0  0  0  0  0  0  0  0  0
    0.1587   -1.6068    2.8727 H   0  0  0  0  0  0  0  0  0  0  0  0
    2.5934   -0.7913    2.4938 H   0  0  0  0  0  0  0  0  0  0  0  0
    2.3522   -1.0984    0.7787 H   0  0  0  0  0  0  0  0  0  0  0  0
   -0.3627    0.7589    0.7829 N   0  0  0  0  0  0  0  0  0  0  0  0
   -0.7127    2.1382    0.5350 C   0  0  2  0  0  0  0  0  0  0  0  0
   -1.9494    2.1572   -0.3536 C   0  0  0  0  0  0  0  0  0  0  0  0
   -2.2731    1.2144   -1.0730 O   0  0  0  0  0  0  0  0  0  0  0  0
    0.4362    2.8921   -0.1164 C   0  0  0  0  0  0  0  0  0  0  0  0
   -0.5435    0.0852    0.0445 H   0  0  0  0  0  0  0  0  0  0  0  0
   -0.9535    2.5829    1.5067 H   0  0  0  0  0  0  0  0  0  0  0  0
    0.6919    2.4609   -1.0912 H   0  0  0  0  0  0  0  0  0  0  0  0
    0.1796    3.9443   -0.2775 H   0  0  0  0  0  0  0  0  0  0  0  0
    1.3337    2.8521    0.5103 H   0  0  0  0  0  0  0  0  0  0  0  0
   -2.6254    3.3672   -0.2813 N   0  0  0  0  0  0  0  0  0  0  0  0
   -3.8236    3.6374   -1.0411 C   0  0  0  0  0  0  0  0  0  0  0  0
   -2.2962    4.0861    0.3562 H   0  0  0  0  0  0  0  0  0  0  0  0
   -3.5540    4.1167   -1.9938 H   0  0  0  0  0  0  0  0  0  0  0  0
   -4.3509    2.6931   -1.2422 H   0  0  0  0  0  0  0  0  0  0  0  0
   -4.4789    4.3080   -0.4659 H   0  0  0  0  0  0  0  0  0  0  0  0
  1  3  1  0  0  0  0
  1  7  1  0  0  0  0
  1  2  2  0  0  0  0
 30 31  1  0  0  0  0
 31 39  1  0  0  0  0
 31 32  2  0  0  0  0
  8  9  1  0  0  0  0
  9 17  1  0  0  0  0
  9 10  2  0  0  0  0
 18 19  1  0  0  0  0
 19 29  1  0  0  0  0
 19 20  2  0  0  0  0
 21 22  1  0  0  0  0
 22 23  1  0  0  0  0
 22 24  2  0  0  0  0
 30 33  1  0  0  0  0
  8 11  1  0  0  0  0
 39 40  1  0  0  0  0
 18 21  1  0  0  0  0
 29 30  1  0  0  0  0
  7  8  1  0  0  0  0
 17 18  1  0  0  0  0
  3  4  1  0  0  0  0
  3  5  1  0  0  0  0
  3  6  1  0  0  0  0
 33 36  1  0  0  0  0
 33 37  1  0  0  0  0
 33 38  1  0  0  0  0
 11 14  1  0  0  0  0
 11 15  1  0  0  0  0
 11 16  1  0  0  0  0
 40 42  1  0  0  0  0
 40 43  1  0  0  0  0
 40 44  1  0  0  0  0
 21 27  1  0  0  0  0
 21 28  1  0  0  0  0
 30 35  1  0  0  0  0
  8 13  1  0  0  0  0
 18 26  1  0  0  0  0
 39 41  1  0  0  0  0
  7 12  1  0  0  0  0
 29 34  1  0  0  0  0
 17 25  1  0  0  0  0
M  CHG  1  23  -1
M  END
$$$$

  -OEChem-05262214473D

 44 43  0     1  0  0  0  0  0999 V2000
   -4.0256   -1.8030   -2.1581 C   0  0  0  0  0  0  0  0  0  0  0  0
   -3.7513   -2.6782   -2.9709 O   0  0  0  0  0  0  0  0  0  0  0  0
   -5.3491   -1.1169   -2.2339 C   0  0  0  0  0  0  0  0  0  0  0  0
   -5.3223   -0.2211   -2.8750 H   0  0  0  0  0  0  0  0  0  0  0  0
   -6.1322   -1.7605   -2.6658 H   0  0  0  0  0  0  0  0  0  0  0  0
   -5.7568   -0.7715   -1.2704 H   0  0  0  0  0  0  0  0  0  0  0  0
   -3.2124   -1.3578   -1.1289 N   0  0  0  0  0  0  0  0  0  0  0  0
   -1.8971   -1.8843   -0.8752 C   0  0  2  0  0  0  0  0  0  0  0  0
   -1.2676   -1.0599    0.2399 C   0  0  0  0  0  0  0  0  0  0  0  0
   -1.6270    0.0833    0.5138 O   0  0  0  0  0  0  0  0  0  0  0  0
   -1.0364   -1.8506   -2.1285 C   0  0  0  0  0  0  0  0  0  0  0  0
   -3.5631   -0.6202   -0.5206 H   0  0  0  0  0  0  0  0  0  0  0  0
   -2.0301   -2.9174   -0.5360 H   0  0  0  0  0  0  0  0  0  0  0  0
   -0.8921   -0.8236   -2.4833 H   0  0  0  0  0  0  0  0  0  0  0  0
   -0.0457   -2.2777   -1.9410 H   0  0  0  0  0  0  0  0  0  0  0  0
   -1.5052   -2.4193   -2.9387 H   0  0  0  0  0  0  0  0  0  0  0  0
   -0.2267   -1.7335    0.8672 N   0  0  0  0  0  0  0  0  0  0  0  0
    0.5363   -1.1590    1.9465 C   0  0  2  0  0  0  0  0  0  0  0  0
    0.2442    0.3371    1.9576 C   0  0  0  0  0  0  0  0  0  0  0  0
    0.7795    1.1188    2.7409 O   0  0  0  0  0  0  0  0  0  0  0  0
    2.0330   -1.4120    1.7812 C   0  0  0  0  0  0  0  0  0  0  0  0
    2.5020   -2.8628    1.9500 C   0  0  0  0  0  0  0  0  0  0  0  0
    1.7830   -3.5501    2.7320 O   0  5  0  0  0  0  0  0  0  0  0  0
    3.5360   -3.2005    1.3115 O   0  0  0  0  0  0  0  0  0  0  0  0
   -0.0113   -2.6869    0.5854 H   0  0  0  0  0  0  0  0  0  0  0  0
    0.1587   -1.6068    2.8727 H   0  0  0  0  0  0  0  0  0  0  0  0
    2.5934   -0.7913    2.4938 H   0  0  0  0  0  0  0  0  0  0  0  0
    2.3522   -1.0984    0.7787 H   0  0  0  0  0  0  0  0  0  0  0  0
   -0.6446    0.7026    0.9563 N   0  0  0  0  0  0  0  0  0  0  0  0
   -1.0575    2.0693    0.7377 C   0  0  2  0  0  0  0  0  0  0  0  0
   -2.4795    2.0496    0.1927 C   0  0  0  0  0  0  0  0  0  0  0  0
   -2.9674    1.0736   -0.3735 O   0  0  0  0  0  0  0  0  0  0  0  0
   -0.1180    2.7847   -0.2206 C   0  0  0  0  0  0  0  0  0  0  0  0
   -1.0014   -0.0063    0.3222 H   0  0  0  0  0  0  0  0  0  0  0  0
   -1.0474    2.5630    1.7155 H   0  0  0  0  0  0  0  0  0  0  0  0
   -0.1148    2.3042   -1.2058 H   0  0  0  0  0  0  0  0  0  0  0  0
   -0.4159    3.8287   -0.3630 H   0  0  0  0  0  0  0  0  0  0  0  0
    0.9095    2.7719    0.1587 H   0  0  0  0  0  0  0  0  0  0  0  0
   -3.1250    3.2647    0.3745 N   0  0  0  0  0  0  0  0  0  0  0  0
   -4.4791    3.5021   -0.0683 C   0  0  0  0  0  0  0  0  0  0  0  0
   -2.6507    4.0131    0.8712 H   0  0  0  0  0  0  0  0  0  0  0  0
   -4.4643    3.9321   -1.0807 H   0  0  0  0  0  0  0  0  0  0  0  0
   -5.0323    2.5514   -0.0820 H   0  0  0  0  0  0  0  0  0  0  0  0
   -4.9724    4.2035    0.6206 H   0  0  0  0  0  0  0  0  0  0  0  0
  1  3  1  0  0  0  0
  1  7  1  0  0  0  0
  1  2  2  0  0  0  0
 30 31  1  0  0  0  0
 31 39  1  0  0  0  0
 31 32  2  0  0  0  0
  8  9  1  0  0  0  0
  9 17  1  0  0  0  0
  9 10  2  0  0  0  0
 18 19  1  0  0  0  0
 19 29  1  0  0  0  0
 19 20  2  0  0  0  0
 21 22  1  0  0  0  0
 22 23  1  0  0  0  0
 22 24  2  0  0  0  0
 30 33  1  0  0  0  0
  8 11  1  0  0  0  0
 39 40  1  0  0  0  0
 18 21  1  0  0  0  0
 29 30  1  0  0  0  0
  7  8  1  0  0  0  0
 17 18  1  0  0  0  0
  3  4  1  0  0  0  0
  3  5  1  0  0  0  0
  3  6  1  0  0  0  0
 33 36  1  0  0  0  0
 33 37  1  0  0  0  0
 33 38  1  0  0  0  0
 11 14  1  0  0  0  0
 11 15  1  0  0  0  0
 11 16  1  0  0  0  0
 40 42  1  0  0  0  0
 40 43  1  0  0  0  0
 40 44  1  0  0  0  0
 21 27  1  0  0  0  0
 21 28  1  0  0  0  0
 30 35  1  0  0  0  0
  8 13  1  0  0  0  0
 18 26  1  0  0  0  0
 39 41  1  0  0  0  0
  7 12  1  0  0  0  0
 29 34  1  0  0  0  0
 17 25  1  0  0  0  0
M  CHG  1  23  -1
M  END
$$$$

  -OEChem-05262214473D

 44 43  0     1  0  0  0  0  0999 V2000
   -4.0256   -1.8030   -2.1581 C   0  0  0  0  0  0  0  0  0  0  0  0
   -3.7513   -2.6782   -2.9709 O   0  0  0  0  0  0  0  0  0  0  0  0
   -5.3491   -1.1169   -2.2339 C   0  0  0  0  0  0  0  0  0  0  0  0
   -5.3223   -0.2211   -2.8750 H   0  0  0  0  0  0  0  0  0  0  0  0
   -6.1322   -1.7605   -2.6658 H   0  0  0  0  0  0  0  0  0  0  0  0
   -5.7568   -0.7715   -1.2704 H   0  0  0  0  0  0  0  0  0  0  0  0
   -3.2124   -1.3578   -1.1289 N   0  0  0  0  0  0  0  0  0  0  0  0
   -1.8971   -1.8843   -0.8752 C   0  0  2  0  0  0  0  0  0  0  0  0
   -1.2676   -1.0599    0.2399 C   0  0  0  0  0  0  0  0  0  0  0  0
   -1.6270    0.0833    0.5138 O   0  0  0  0  0  0  0  0  0  0  0  0
   -1.0364   -1.8506   -2.1285 C   0  0  0  0  0  0  0  0  0  0  0  0
   -3.5631   -0.6202   -0.5206 H   0  0  0  0  0  0  0  0  0  0  0  0
   -2.0301   -2.9174   -0.5360 H   0  0  0  0  0  0  0  0  0  0  0  0
   -0.8921   -0.8236   -2.4833 H   0  0  0  0  0  0  0  0  0  0  0  0
   -0.0457   -2.2777   -1.9410 H   0  0  0  0  0  0  0  0  0  0  0  0
   -1.5052   -2.4193   -2.9387 H   0  0  0  0  0  0  0  0  0  0  0  0
   -0.2267   -1.7335    0.8672 N   0  0  0  0  0  0  0  0  0  0  0  0
    0.5363   -1.1590    1.9465 C   0  0  2  0  0  0  0  0  0  0  0  0
    0.2442    0.3371    1.9576 C   0  0  0  0  0  0  0  0  0  0  0  0
    0.9543    1.1545    2.5397 O   0  0  0  0  0  0  0  0  0  0  0  0
    2.0330   -1.4120    1.7812 C   0  0  0  0  0  0  0  0  0  0  0  0
    2.5020   -2.8628    1.9500 C   0  0  0  0  0  0  0  0  0  0  0  0
    1.7830   -3.5501    2.7320 O   0  5  0  0  0  0  0  0  0  0  0  0
    3.5360   -3.2005    1.3115 O   0  0  0  0  0  0  0  0  0  0  0  0
   -0.0113   -2.6869    0.5854 H   0  0  0  0  0  0  0  0  0  0  0  0
    0.1587   -1.6068    2.8727 H   0  0  0  0  0  0  0  0  0  0  0  0
    2.5934   -0.7913    2.4938 H   0  0  0  0  0  0  0  0  0  0  0  0
    2.3522   -1.0984    0.7787 H   0  0  0  0  0  0  0  0  0  0  0  0
   -0.8728    0.6562    1.1982 N   0  0  0  0  0  0  0  0  0  0  0  0
   -1.3390    2.0122    1.0245 C   0  0  2  0  0  0  0  0  0  0  0  0
   -2.8526    1.9718    0.8603 C   0  0  0  0  0  0  0  0  0  0  0  0
   -3.4602    0.9710    0.4856 O   0  0  0  0  0  0  0  0  0  0  0  0
   -0.6797    2.6747   -0.1752 C   0  0  0  0  0  0  0  0  0  0  0  0
   -1.3731   -0.0817    0.7113 H   0  0  0  0  0  0  0  0  0  0  0  0
   -1.0850    2.5540    1.9421 H   0  0  0  0  0  0  0  0  0  0  0  0
   -0.9228    2.1457   -1.1040 H   0  0  0  0  0  0  0  0  0  0  0  0
   -1.0126    3.7116   -0.2886 H   0  0  0  0  0  0  0  0  0  0  0  0
    0.4106    2.6762   -0.0692 H   0  0  0  0  0  0  0  0  0  0  0  0
   -3.4408    3.1973    1.1399 N   0  0  0  0  0  0  0  0  0  0  0  0
   -4.8649    3.4185    1.0445 C   0  0  0  0  0  0  0  0  0  0  0  0
   -2.8621    3.9674    1.4622 H   0  0  0  0  0  0  0  0  0  0  0  0
   -5.1112    3.7974    0.0416 H   0  0  0  0  0  0  0  0  0  0  0  0
   -5.3955    2.4708    1.2188 H   0  0  0  0  0  0  0  0  0  0  0  0
   -5.1728    4.1556    1.8007 H   0  0  0  0  0  0  0  0  0  0  0  0
  1  3  1  0  0  0  0
  1  7  1  0  0  0  0
  1  2  2  0  0  0  0
 30 31  1  0  0  0  0
 31 39  1  0  0  0  0
 31 32  2  0  0  0  0
  8  9  1  0  0  0  0
  9 17  1  0  0  0  0
  9 10  2  0  0  0  0
 18 19  1  0  0  0  0
 19 29  1  0  0  0  0
 19 20  2  0  0  0  0
 21 22  1  0  0  0  0
 22 23  1  0  0  0  0
 22 24  2  0  0  0  0
 30 33  1  0  0  0  0
  8 11  1  0  0  0  0
 39 40  1  0  0  0  0
 18 21  1  0  0  0  0
 29 30  1  0  0  0  0
  7  8  1  0  0  0  0
 17 18  1  0  0  0  0
  3  4  1  0  0  0  0
  3  5  1  0  0  0  0
  3  6  1  0  0  0  0
 33 36  1  0  0  0  0
 33 37  1  0  0  0  0
 33 38  1  0  0  0  0
 11 14  1  0  0  0  0
 11 15  1  0  0  0  0
 11 16  1  0  0  0  0
 40 42  1  0  0  0  0
 40 43  1  0  0  0  0
 40 44  1  0  0  0  0
 21 27  1  0  0  0  0
 21 28  1  0  0  0  0
 30 35  1  0  0  0  0
  8 13  1  0  0  0  0
 18 26  1  0  0  0  0
 39 41  1  0  0  0  0
  7 12  1  0  0  0  0
 29 34  1  0  0  0  0
 17 25  1  0  0  0  0
M  CHG  1  23  -1
M  END
$$$$

  -OEChem-05262214473D

 44 43  0     1  0  0  0  0  0999 V2000
   -4.0256   -1.8030   -2.1581 C   0  0  0  0  0  0  0  0  0  0  0  0
   -3.7513   -2.6782   -2.9709 O   0  0  0  0  0  0  0  0  0  0  0  0
   -5.3491   -1.1169   -2.2339 C   0  0  0  0  0  0  0  0  0  0  0  0
   -5.3223   -0.2211   -2.8750 H   0  0  0  0  0  0  0  0  0  0  0  0
   -6.1322   -1.7605   -2.6658 H   0  0  0  0  0  0  0  0  0  0  0  0
   -5.7568   -0.7715   -1.2704 H   0  0  0  0  0  0  0  0  0  0  0  0
   -3.2124   -1.3578   -1.1289 N   0  0  0  0  0  0  0  0  0  0  0  0
   -1.8971   -1.8843   -0.8752 C   0  0  2  0  0  0  0  0  0  0  0  0
   -1.2676   -1.0599    0.2399 C   0  0  0  0  0  0  0  0  0  0  0  0
   -1.6270    0.0833    0.5138 O   0  0  0  0  0  0  0  0  0  0  0  0
   -1.0364   -1.8506   -2.1285 C   0  0  0  0  0  0  0  0  0  0  0  0
   -3.5631   -0.6202   -0.5206 H   0  0  0  0  0  0  0  0  0  0  0  0
   -2.0301   -2.9174   -0.5360 H   0  0  0  0  0  0  0  0  0  0  0  0
   -0.8921   -0.8236   -2.4833 H   0  0  0  0  0  0  0  0  0  0  0  0
   -0.0457   -2.2777   -1.9410 H   0  0  0  0  0  0  0  0  0  0  0  0
   -1.5052   -2.4193   -2.9387 H   0  0  0  0  0  0  0  0  0  0  0  0
   -0.2267   -1.7335    0.8672 N   0  0  0  0  0  0  0  0  0  0  0  0
    0.5363   -1.1590    1.9465 C   0  0  2  0  0  0  0  0  0  0  0  0
    0.2442    0.3371    1.9576 C   0  0  0  0  0  0  0  0  0  0  0  0
    1.0720    1.1793    2.2991 O   0  0  0  0  0  0  0  0  0  0  0  0
    2.0330   -1.4120    1.7812 C   0  0  0  0  0  0  0  0  0  0  0  0
    2.5020   -2.8628    1.9500 C   0  0  0  0  0  0  0  0  0  0  0  0
    1.7830   -3.5501    2.7320 O   0  5  0  0  0  0  0  0  0  0  0  0
    3.5360   -3.2005    1.3115 O   0  0  0  0  0  0  0  0  0  0  0  0
   -0.0113   -2.6869    0.5854 H   0  0  0  0  0  0  0  0  0  0  0  0
    0.1587   -1.6068    2.8727 H   0  0  0  0  0  0  0  0  0  0  0  0
    2.5934   -0.7913    2.4938 H   0  0  0  0  0  0  0  0  0  0  0  0
    2.3522   -1.0984    0.7787 H   0  0  0  0  0  0  0  0  0  0  0  0
   -1.0317    0.6230    1.4921 N   0  0  0  0  0  0  0  0  0  0  0  0
   -1.5380    1.9708    1.3758 C   0  0  2  0  0  0  0  0  0  0  0  0
   -3.0432    1.9290    1.6037 C   0  0  0  0  0  0  0  0  0  0  0  0
   -3.7177    0.9136    1.4455 O   0  0  0  0  0  0  0  0  0  0  0  0
   -1.2104    2.5696    0.0168 C   0  0  0  0  0  0  0  0  0  0  0  0
   -1.6330   -0.1360    1.1853 H   0  0  0  0  0  0  0  0  0  0  0  0
   -1.0637    2.5564    2.1708 H   0  0  0  0  0  0  0  0  0  0  0  0
   -1.6770    1.9961   -0.7924 H   0  0  0  0  0  0  0  0  0  0  0  0
   -1.5698    3.6011   -0.0593 H   0  0  0  0  0  0  0  0  0  0  0  0
   -0.1291    2.5715   -0.1579 H   0  0  0  0  0  0  0  0  0  0  0  0
   -3.5513    3.1696    1.9628 N   0  0  0  0  0  0  0  0  0  0  0  0
   -4.9547    3.3922    2.2215 C   0  0  0  0  0  0  0  0  0  0  0  0
   -2.9161    3.9522    2.0891 H   0  0  0  0  0  0  0  0  0  0  0  0
   -5.4508    3.7218    1.2967 H   0  0  0  0  0  0  0  0  0  0  0  0
   -5.4157    2.4568    2.5714 H   0  0  0  0  0  0  0  0  0  0  0  0
   -5.0666    4.1674    2.9938 H   0  0  0  0  0  0  0  0  0  0  0  0
  1  3  1  0  0  0  0
  1  7  1  0  0  0  0
  1  2  2  0  0  0  0
 30 31  1  0  0  0  0
 31 39  1  0  0  0  0
 31 32  2  0  0  0  0
  8  9  1  0  0  0  0
  9 17  1  0  0  0  0
  9 10  2  0  0  0  0
 18 19  1  0  0  0  0
 19 29  1  0  0  0  0
 19 20  2  0  0  0  0
 21 22  1  0  0  0  0
 22 23  1  0  0  0  0
 22 24  2  0  0  0  0
 30 33  1  0  0  0  0
  8 11  1  0  0  0  0
 39 40  1  0  0  0  0
 18 21  1  0  0  0  0
 29 30  1  0  0  0  0
  7  8  1  0  0  0  0
 17 18  1  0  0  0  0
  3  4  1  0  0  0  0
  3  5  1  0  0  0  0
  3  6  1  0  0  0  0
 33 36  1  0  0  0  0
 33 37  1  0  0  0  0
 33 38  1  0  0  0  0
 11 14  1  0  0  0  0
 11 15  1  0  0  0  0
 11 16  1  0  0  0  0
 40 42  1  0  0  0  0
 40 43  1  0  0  0  0
 40 44  1  0  0  0  0
 21 27  1  0  0  0  0
 21 28  1  0  0  0  0
 30 35  1  0  0  0  0
  8 13  1  0  0  0  0
 18 26  1  0  0  0  0
 39 41  1  0  0  0  0
  7 12  1  0  0  0  0
 29 34  1  0  0  0  0
 17 25  1  0  0  0  0
M  CHG  1  23  -1
M  END
$$$$

  -OEChem-05262214473D

 44 43  0     1  0  0  0  0  0999 V2000
   -4.0256   -1.8030   -2.1581 C   0  0  0  0  0  0  0  0  0  0  0  0
   -3.7513   -2.6782   -2.9709 O   0  0  0  0  0  0  0  0  0  0  0  0
   -5.3491   -1.1169   -2.2339 C   0  0  0  0  0  0  0  0  0  0  0  0
   -5.3223   -0.2211   -2.8750 H   0  0  0  0  0  0  0  0  0  0  0  0
   -6.1322   -1.7605   -2.6658 H   0  0  0  0  0  0  0  0  0  0  0  0
   -5.7568   -0.7715   -1.2704 H   0  0  0  0  0  0  0  0  0  0  0  0
   -3.2124   -1.3578   -1.1289 N   0  0  0  0  0  0  0  0  0  0  0  0
   -1.8971   -1.8843   -0.8752 C   0  0  2  0  0  0  0  0  0  0  0  0
   -1.2676   -1.0599    0.2399 C   0  0  0  0  0  0  0  0  0  0  0  0
   -1.6270    0.0833    0.5138 O   0  0  0  0  0  0  0  0  0  0  0  0
   -1.0364   -1.8506   -2.1285 C   0  0  0  0  0  0  0  0  0  0  0  0
   -3.5631   -0.6202   -0.5206 H   0  0  0  0  0  0  0  0  0  0  0  0
   -2.0301   -2.9174   -0.5360 H   0  0  0  0  0  0  0  0  0  0  0  0
   -0.8921   -0.8236   -2.4833 H   0  0  0  0  0  0  0  0  0  0  0  0
   -0.0457   -2.2777   -1.9410 H   0  0  0  0  0  0  0  0  0  0  0  0
   -1.5052   -2.4193   -2.9387 H   0  0  0  0  0  0  0  0  0  0  0  0
   -0.2267   -1.7335    0.8672 N   0  0  0  0  0  0  0  0  0  0  0  0
    0.5363   -1.1590    1.9465 C   0  0  2  0  0  0  0  0  0  0  0  0
    0.2442    0.3371    1.9576 C   0  0  0  0  0  0  0  0  0  0  0  0
    1.1246    1.1915    2.0355 O   0  0  0  0  0  0  0  0  0  0  0  0
    2.0330   -1.4120    1.7812 C   0  0  0  0  0  0  0  0  0  0  0  0
    2.5020   -2.8628    1.9500 C   0  0  0  0  0  0  0  0  0  0  0  0
    1.7830   -3.5501    2.7320 O   0  5  0  0  0  0  0  0  0  0  0  0
    3.5360   -3.2005    1.3115 O   0  0  0  0  0  0  0  0  0  0  0  0
   -0.0113   -2.6869    0.5854 H   0  0  0  0  0  0  0  0  0  0  0  0
    0.1587   -1.6068    2.8727 H   0  0  0  0  0  0  0  0  0  0  0  0
    2.5934   -0.7913    2.4938 H   0  0  0  0  0  0  0  0  0  0  0  0
    2.3522   -1.0984    0.7787 H   0  0  0  0  0  0  0  0  0  0  0  0
   -1.1104    0.6052    1.8180 N   0  0  0  0  0  0  0  0  0  0  0  0
   -1.6408    1.9478    1.7678 C   0  0  2  0  0  0  0  0  0  0  0  0
   -3.0384    1.9242    2.3724 C   0  0  0  0  0  0  0  0  0  0  0  0
   -3.7225    0.9052    2.4411 O   0  0  0  0  0  0  0  0  0  0  0  0
   -1.6741    2.4766    0.3423 C   0  0  0  0  0  0  0  0  0  0  0  0
   -1.7636   -0.1655    1.7119 H   0  0  0  0  0  0  0  0  0  0  0  0
   -0.9851    2.5702    2.3863 H   0  0  0  0  0  0  0  0  0  0  0  0
   -2.3262    1.8656   -0.2925 H   0  0  0  0  0  0  0  0  0  0  0  0
   -2.0496    3.5047    0.3092 H   0  0  0  0  0  0  0  0  0  0  0  0
   -0.6727    2.4649   -0.1012 H   0  0  0  0  0  0  0  0  0  0  0  0
   -3.4489    3.1835    2.7871 N   0  0  0  0  0  0  0  0  0  0  0  0
   -4.7424    3.4250    3.3826 C   0  0  0  0  0  0  0  0  0  0  0  0
   -2.8090    3.9684    2.7092 H   0  0  0  0  0  0  0  0  0  0  0  0
   -5.4598    3.7103    2.5991 H   0  0  0  0  0  0  0  0  0  0  0  0
   -5.0917    2.5102    3.8839 H   0  0  0  0  0  0  0  0  0  0  0  0
   -4.6609    4.2382    4.1187 H   0  0  0  0  0  0  0  0  0  0  0  0
  1  3  1  0  0  0  0
  1  7  1  0  0  0  0
  1  2  2  0  0  0  0
 30 31  1  0  0  0  0
 31 39  1  0  0  0  0
 31 32  2  0  0  0  0
  8  9  1  0  0  0  0
  9 17  1  0  0  0  0
  9 10  2  0  0  0  0
 18 19  1  0  0  0  0
 19 29  1  0  0  0  0
 19 20  2  0  0  0  0
 21 22  1  0  0  0  0
 22 23  1  0  0  0  0
 22 24  2  0  0  0  0
 30 33  1  0  0  0  0
  8 11  1  0  0  0  0
 39 40  1  0  0  0  0
 18 21  1  0  0  0  0
 29 30  1  0  0  0  0
  7  8  1  0  0  0  0
 17 18  1  0  0  0  0
  3  4  1  0  0  0  0
  3  5  1  0  0  0  0
  3  6  1  0  0  0  0
 33 36  1  0  0  0  0
 33 37  1  0  0  0  0
 33 38  1  0  0  0  0
 11 14  1  0  0  0  0
 11 15  1  0  0  0  0
 11 16  1  0  0  0  0
 40 42  1  0  0  0  0
 40 43  1  0  0  0  0
 40 44  1  0  0  0  0
 21 27  1  0  0  0  0
 21 28  1  0  0  0  0
 30 35  1  0  0  0  0
  8 13  1  0  0  0  0
 18 26  1  0  0  0  0
 39 41  1  0  0  0  0
  7 12  1  0  0  0  0
 29 34  1  0  0  0  0
 17 25  1  0  0  0  0
M  CHG  1  23  -1
M  END
$$$$

  -OEChem-05262214473D

 44 43  0     1  0  0  0  0  0999 V2000
   -4.0256   -1.8030   -2.1581 C   0  0  0  0  0  0  0  0  0  0  0  0
   -3.7513   -2.6782   -2.9709 O   0  0  0  0  0  0  0  0  0  0  0  0
   -5.3491   -1.1169   -2.2339 C   0  0  0  0  0  0  0  0  0  0  0  0
   -5.3223   -0.2211   -2.8750 H   0  0  0  0  0  0  0  0  0  0  0  0
   -6.1322   -1.7605   -2.6658 H   0  0  0  0  0  0  0  0  0  0  0  0
   -5.7568   -0.7715   -1.2704 H   0  0  0  0  0  0  0  0  0  0  0  0
   -3.2124   -1.3578   -1.1289 N   0  0  0  0  0  0  0  0  0  0  0  0
   -1.8971   -1.8843   -0.8752 C   0  0  2  0  0  0  0  0  0  0  0  0
   -1.2676   -1.0599    0.2399 C   0  0  0  0  0  0  0  0  0  0  0  0
   -1.6270    0.0833    0.5138 O   0  0  0  0  0  0  0  0  0  0  0  0
   -1.0364   -1.8506   -2.1285 C   0  0  0  0  0  0  0  0  0  0  0  0
   -3.5631   -0.6202   -0.5206 H   0  0  0  0  0  0  0  0  0  0  0  0
   -2.0301   -2.9174   -0.5360 H   0  0  0  0  0  0  0  0  0  0  0  0
   -0.8921   -0.8236   -2.4833 H   0  0  0  0  0  0  0  0  0  0  0  0
   -0.0457   -2.2777   -1.9410 H   0  0  0  0  0  0  0  0  0  0  0  0
   -1.5052   -2.4193   -2.9387 H   0  0  0  0  0  0  0  0  0  0  0  0
   -0.2267   -1.7335    0.8672 N   0  0  0  0  0  0  0  0  0  0  0  0
    0.5363   -1.1590    1.9465 C   0  0  2  0  0  0  0  0  0  0  0  0
    0.2442    0.3371    1.9576 C   0  0  0  0  0  0  0  0  0  0  0  0
    1.1084    1.1903    1.7670 O   0  0  0  0  0  0  0  0  0  0  0  0
    2.0330   -1.4120    1.7812 C   0  0  0  0  0  0  0  0  0  0  0  0
    2.5020   -2.8628    1.9500 C   0  0  0  0  0  0  0  0  0  0  0  0
    1.7830   -3.5501    2.7320 O   0  5  0  0  0  0  0  0  0  0  0  0
    3.5360   -3.2005    1.3115 O   0  0  0  0  0  0  0  0  0  0  0  0
   -0.0113   -2.6869    0.5854 H   0  0  0  0  0  0  0  0  0  0  0  0
    0.1587   -1.6068    2.8727 H   0  0  0  0  0  0  0  0  0  0  0  0
    2.5934   -0.7913    2.4938 H   0  0  0  0  0  0  0  0  0  0  0  0
    2.3522   -1.0984    0.7787 H   0  0  0  0  0  0  0  0  0  0  0  0
   -1.1037    0.6040    2.1536 N   0  0  0  0  0  0  0  0  0  0  0  0
   -1.6405    1.9448    2.1736 C   0  0  2  0  0  0  0  0  0  0  0  0
   -2.8385    1.9577    3.1139 C   0  0  0  0  0  0  0  0  0  0  0  0
   -3.4742    0.9465    3.4044 O   0  0  0  0  0  0  0  0  0  0  0  0
   -2.0392    2.4021    0.7791 C   0  0  0  0  0  0  0  0  0  0  0  0
   -1.7560   -0.1680    2.2552 H   0  0  0  0  0  0  0  0  0  0  0  0
   -0.8544    2.5943    2.5738 H   0  0  0  0  0  0  0  0  0  0  0  0
   -2.8260    1.7631    0.3617 H   0  0  0  0  0  0  0  0  0  0  0  0
   -2.4193    3.4289    0.7918 H   0  0  0  0  0  0  0  0  0  0  0  0
   -1.1831    2.3638    0.0968 H   0  0  0  0  0  0  0  0  0  0  0  0
   -3.1407    3.2379    3.5566 N   0  0  0  0  0  0  0  0  0  0  0  0
   -4.2425    3.5146    4.4485 C   0  0  0  0  0  0  0  0  0  0  0  0
   -2.5481    4.0151    3.2800 H   0  0  0  0  0  0  0  0  0  0  0  0
   -5.1377    3.7638    3.8599 H   0  0  0  0  0  0  0  0  0  0  0  0
   -4.4454    2.6276    5.0666 H   0  0  0  0  0  0  0  0  0  0  0  0
   -3.9835    4.3632    5.0988 H   0  0  0  0  0  0  0  0  0  0  0  0
  1  3  1  0  0  0  0
  1  7  1  0  0  0  0
  1  2  2  0  0  0  0
 30 31  1  0  0  0  0
 31 39  1  0  0  0  0
 31 32  2  0  0  0  0
  8  9  1  0  0  0  0
  9 17  1  0  0  0  0
  9 10  2  0  0  0  0
 18 19  1  0  0  0  0
 19 29  1  0  0  0  0
 19 20  2  0  0  0  0
 21 22  1  0  0  0  0
 22 23  1  0  0  0  0
 22 24  2  0  0  0  0
 30 33  1  0  0  0  0
  8 11  1  0  0  0  0
 39 40  1  0  0  0  0
 18 21  1  0  0  0  0
 29 30  1  0  0  0  0
  7  8  1  0  0  0  0
 17 18  1  0  0  0  0
  3  4  1  0  0  0  0
  3  5  1  0  0  0  0
  3  6  1  0  0  0  0
 33 36  1  0  0  0  0
 33 37  1  0  0  0  0
 33 38  1  0  0  0  0
 11 14  1  0  0  0  0
 11 15  1  0  0  0  0
 11 16  1  0  0  0  0
 40 42  1  0  0  0  0
 40 43  1  0  0  0  0
 40 44  1  0  0  0  0
 21 27  1  0  0  0  0
 21 28  1  0  0  0  0
 30 35  1  0  0  0  0
  8 13  1  0  0  0  0
 18 26  1  0  0  0  0
 39 41  1  0  0  0  0
  7 12  1  0  0  0  0
 29 34  1  0  0  0  0
 17 25  1  0  0  0  0
M  CHG  1  23  -1
M  END
$$$$

  -OEChem-05262214473D

 44 43  0     1  0  0  0  0  0999 V2000
   -4.0256   -1.8030   -2.1581 C   0  0  0  0  0  0  0  0  0  0  0  0
   -3.7513   -2.6782   -2.9709 O   0  0  0  0  0  0  0  0  0  0  0  0
   -5.3491   -1.1169   -2.2339 C   0  0  0  0  0  0  0  0  0  0  0  0
   -5.3223   -0.2211   -2.8750 H   0  0  0  0  0  0  0  0  0  0  0  0
   -6.1322   -1.7605   -2.6658 H   0  0  0  0  0  0  0  0  0  0  0  0
   -5.7568   -0.7715   -1.2704 H   0  0  0  0  0  0  0  0  0  0  0  0
   -3.2124   -1.3578   -1.1289 N   0  0  0  0  0  0  0  0  0  0  0  0
   -1.8971   -1.8843   -0.8752 C   0  0  2  0  0  0  0  0  0  0  0  0
   -1.2676   -1.0599    0.2399 C   0  0  0  0  0  0  0  0  0  0  0  0
   -1.6270    0.0833    0.5138 O   0  0  0  0  0  0  0  0  0  0  0  0
   -1.0364   -1.8506   -2.1285 C   0  0  0  0  0  0  0  0  0  0  0  0
   -3.5631   -0.6202   -0.5206 H   0  0  0  0  0  0  0  0  0  0  0  0
   -2.0301   -2.9174   -0.5360 H   0  0  0  0  0  0  0  0  0  0  0  0
   -0.8921   -0.8236   -2.4833 H   0  0  0  0  0  0  0  0  0  0  0  0
   -0.0457   -2.2777   -1.9410 H   0  0  0  0  0  0  0  0  0  0  0  0
   -1.5052   -2.4193   -2.9387 H   0  0  0  0  0  0  0  0  0  0  0  0
   -0.2267   -1.7335    0.8672 N   0  0  0  0  0  0  0  0  0  0  0  0
    0.5363   -1.1590    1.9465 C   0  0  2  0  0  0  0  0  0  0  0  0
    0.2442    0.3371    1.9576 C   0  0  0  0  0  0  0  0  0  0  0  0
    1.0245    1.1758    1.5118 O   0  0  0  0  0  0  0  0  0  0  0  0
    2.0330   -1.4120    1.7812 C   0  0  0  0  0  0  0  0  0  0  0  0
    2.5020   -2.8628    1.9500 C   0  0  0  0  0  0  0  0  0  0  0  0
    1.7830   -3.5501    2.7320 O   0  5  0  0  0  0  0  0  0  0  0  0
    3.5360   -3.2005    1.3115 O   0  0  0  0  0  0  0  0  0  0  0  0
   -0.0113   -2.6869    0.5854 H   0  0  0  0  0  0  0  0  0  0  0  0
    0.1587   -1.6068    2.8727 H   0  0  0  0  0  0  0  0  0  0  0  0
    2.5934   -0.7913    2.4938 H   0  0  0  0  0  0  0  0  0  0  0  0
    2.3522   -1.0984    0.7787 H   0  0  0  0  0  0  0  0  0  0  0  0
   -1.0119    0.6195    2.4762 N   0  0  0  0  0  0  0  0  0  0  0  0
   -1.5372    1.9620    2.5658 C   0  0  2  0  0  0  0  0  0  0  0  0
   -2.4571    2.0272    3.7777 C   0  0  0  0  0  0  0  0  0  0  0  0
   -2.9898    1.0346    4.2697 O   0  0  0  0  0  0  0  0  0  0  0  0
   -2.2807    2.3510    1.2975 C   0  0  0  0  0  0  0  0  0  0  0  0
   -1.6105   -0.1435    2.7781 H   0  0  0  0  0  0  0  0  0  0  0  0
   -0.6806    2.6271    2.7205 H   0  0  0  0  0  0  0  0  0  0  0  0
   -3.1424    1.6957    1.1257 H   0  0  0  0  0  0  0  0  0  0  0  0
   -2.6537    3.3789    1.3556 H   0  0  0  0  0  0  0  0  0  0  0  0
   -1.6257    2.2749    0.4228 H   0  0  0  0  0  0  0  0  0  0  0  0
   -2.6476    3.3292    4.2189 N   0  0  0  0  0  0  0  0  0  0  0  0
   -3.4890    3.6550    5.3467 C   0  0  0  0  0  0  0  0  0  0  0  0
   -2.1512    4.0890    3.7629 H   0  0  0  0  0  0  0  0  0  0  0  0
   -4.5064    3.8786    4.9933 H   0  0  0  0  0  0  0  0  0  0  0  0
   -3.5209    2.8009    6.0391 H   0  0  0  0  0  0  0  0  0  0  0  0
   -3.0804    4.5338    5.8671 H   0  0  0  0  0  0  0  0  0  0  0  0
  1  3  1  0  0  0  0
  1  7  1  0  0  0  0
  1  2  2  0  0  0  0
 30 31  1  0  0  0  0
 31 39  1  0  0  0  0
 31 32  2  0  0  0  0
  8  9  1  0  0  0  0
  9 17  1  0  0  0  0
  9 10  2  0  0  0  0
 18 19  1  0  0  0  0
 19 29  1  0  0  0  0
 19 20  2  0  0  0  0
 21 22  1  0  0  0  0
 22 23  1  0  0  0  0
 22 24  2  0  0  0  0
 30 33  1  0  0  0  0
  8 11  1  0  0  0  0
 39 40  1  0  0  0  0
 18 21  1  0  0  0  0
 29 30  1  0  0  0  0
  7  8  1  0  0  0  0
 17 18  1  0  0  0  0
  3  4  1  0  0  0  0
  3  5  1  0  0  0  0
  3  6  1  0  0  0  0
 33 36  1  0  0  0  0
 33 37  1  0  0  0  0
 33 38  1  0  0  0  0
 11 14  1  0  0  0  0
 11 15  1  0  0  0  0
 11 16  1  0  0  0  0
 40 42  1  0  0  0  0
 40 43  1  0  0  0  0
 40 44  1  0  0  0  0
 21 27  1  0  0  0  0
 21 28  1  0  0  0  0
 30 35  1  0  0  0  0
  8 13  1  0  0  0  0
 18 26  1  0  0  0  0
 39 41  1  0  0  0  0
  7 12  1  0  0  0  0
 29 34  1  0  0  0  0
 17 25  1  0  0  0  0
M  CHG  1  23  -1
M  END
$$$$

  -OEChem-05262214473D

 44 43  0     1  0  0  0  0  0999 V2000
   -4.0256   -1.8030   -2.1581 C   0  0  0  0  0  0  0  0  0  0  0  0
   -3.7513   -2.6782   -2.9709 O   0  0  0  0  0  0  0  0  0  0  0  0
   -5.3491   -1.1169   -2.2339 C   0  0  0  0  0  0  0  0  0  0  0  0
   -5.3223   -0.2211   -2.8750 H   0  0  0  0  0  0  0  0  0  0  0  0
   -6.1322   -1.7605   -2.6658 H   0  0  0  0  0  0  0  0  0  0  0  0
   -5.7568   -0.7715   -1.2704 H   0  0  0  0  0  0  0  0  0  0  0  0
   -3.2124   -1.3578   -1.1289 N   0  0  0  0  0  0  0  0  0  0  0  0
   -1.8971   -1.8843   -0.8752 C   0  0  2  0  0  0  0  0  0  0  0  0
   -1.2676   -1.0599    0.2399 C   0  0  0  0  0  0  0  0  0  0  0  0
   -1.6270    0.0833    0.5138 O   0  0  0  0  0  0  0  0  0  0  0  0
   -1.0364   -1.8506   -2.1285 C   0  0  0  0  0  0  0  0  0  0  0  0
   -3.5631   -0.6202   -0.5206 H   0  0  0  0  0  0  0  0  0  0  0  0
   -2.0301   -2.9174   -0.5360 H   0  0  0  0  0  0  0  0  0  0  0  0
   -0.8921   -0.8236   -2.4833 H   0  0  0  0  0  0  0  0  0  0  0  0
   -0.0457   -2.2777   -1.9410 H   0  0  0  0  0  0  0  0  0  0  0  0
   -1.5052   -2.4193   -2.9387 H   0  0  0  0  0  0  0  0  0  0  0  0
   -0.2267   -1.7335    0.8672 N   0  0  0  0  0  0  0  0  0  0  0  0
    0.5363   -1.1590    1.9465 C   0  0  2  0  0  0  0  0  0  0  0  0
    0.2442    0.3371    1.9576 C   0  0  0  0  0  0  0  0  0  0  0  0
    0.8787    1.1491    1.2874 O   0  0  0  0  0  0  0  0  0  0  0  0
    2.0330   -1.4120    1.7812 C   0  0  0  0  0  0  0  0  0  0  0  0
    2.5020   -2.8628    1.9500 C   0  0  0  0  0  0  0  0  0  0  0  0
    1.7830   -3.5501    2.7320 O   0  5  0  0  0  0  0  0  0  0  0  0
    3.5360   -3.2005    1.3115 O   0  0  0  0  0  0  0  0  0  0  0  0
   -0.0113   -2.6869    0.5854 H   0  0  0  0  0  0  0  0  0  0  0  0
    0.1587   -1.6068    2.8727 H   0  0  0  0  0  0  0  0  0  0  0  0
    2.5934   -0.7913    2.4938 H   0  0  0  0  0  0  0  0  0  0  0  0
    2.3522   -1.0984    0.7787 H   0  0  0  0  0  0  0  0  0  0  0  0
   -0.8413    0.6507    2.7637 N   0  0  0  0  0  0  0  0  0  0  0  0
   -1.3378    1.9984    2.9174 C   0  0  2  0  0  0  0  0  0  0  0  0
   -1.9203    2.1280    4.3186 C   0  0  0  0  0  0  0  0  0  0  0  0
   -2.3023    1.1636    4.9781 O   0  0  0  0  0  0  0  0  0  0  0  0
   -2.3822    2.3270    1.8620 C   0  0  0  0  0  0  0  0  0  0  0  0
   -1.3373   -0.0937    3.2451 H   0  0  0  0  0  0  0  0  0  0  0  0
   -0.4755    2.6665    2.8164 H   0  0  0  0  0  0  0  0  0  0  0  0
   -3.2538    1.6678    1.9474 H   0  0  0  0  0  0  0  0  0  0  0  0
   -2.7367    3.3582    1.9622 H   0  0  0  0  0  0  0  0  0  0  0  0
   -1.9702    2.2044    0.8545 H   0  0  0  0  0  0  0  0  0  0  0  0
   -2.0032    3.4513    4.7289 N   0  0  0  0  0  0  0  0  0  0  0  0
   -2.5333    3.8367    6.0159 C   0  0  0  0  0  0  0  0  0  0  0  0
   -1.6452    4.1851    4.1247 H   0  0  0  0  0  0  0  0  0  0  0  0
   -3.6090    4.0469    5.9220 H   0  0  0  0  0  0  0  0  0  0  0  0
   -2.3812    3.0182    6.7350 H   0  0  0  0  0  0  0  0  0  0  0  0
   -2.0133    4.7384    6.3714 H   0  0  0  0  0  0  0  0  0  0  0  0
  1  3  1  0  0  0  0
  1  7  1  0  0  0  0
  1  2  2  0  0  0  0
 30 31  1  0  0  0  0
 31 39  1  0  0  0  0
 31 32  2  0  0  0  0
  8  9  1  0  0  0  0
  9 17  1  0  0  0  0
  9 10  2  0  0  0  0
 18 19  1  0  0  0  0
 19 29  1  0  0  0  0
 19 20  2  0  0  0  0
 21 22  1  0  0  0  0
 22 23  1  0  0  0  0
 22 24  2  0  0  0  0
 30 33  1  0  0  0  0
  8 11  1  0  0  0  0
 39 40  1  0  0  0  0
 18 21  1  0  0  0  0
 29 30  1  0  0  0  0
  7  8  1  0  0  0  0
 17 18  1  0  0  0  0
  3  4  1  0  0  0  0
  3  5  1  0  0  0  0
  3  6  1  0  0  0  0
 33 36  1  0  0  0  0
 33 37  1  0  0  0  0
 33 38  1  0  0  0  0
 11 14  1  0  0  0  0
 11 15  1  0  0  0  0
 11 16  1  0  0  0  0
 40 42  1  0  0  0  0
 40 43  1  0  0  0  0
 40 44  1  0  0  0  0
 21 27  1  0  0  0  0
 21 28  1  0  0  0  0
 30 35  1  0  0  0  0
  8 13  1  0  0  0  0
 18 26  1  0  0  0  0
 39 41  1  0  0  0  0
  7 12  1  0  0  0  0
 29 34  1  0  0  0  0
 17 25  1  0  0  0  0
M  CHG  1  23  -1
M  END
$$$$

  -OEChem-05262214473D

 44 43  0     1  0  0  0  0  0999 V2000
   -4.0256   -1.8030   -2.1581 C   0  0  0  0  0  0  0  0  0  0  0  0
   -3.7513   -2.6782   -2.9709 O   0  0  0  0  0  0  0  0  0  0  0  0
   -5.3491   -1.1169   -2.2339 C   0  0  0  0  0  0  0  0  0  0  0  0
   -5.3223   -0.2211   -2.8750 H   0  0  0  0  0  0  0  0  0  0  0  0
   -6.1322   -1.7605   -2.6658 H   0  0  0  0  0  0  0  0  0  0  0  0
   -5.7568   -0.7715   -1.2704 H   0  0  0  0  0  0  0  0  0  0  0  0
   -3.2124   -1.3578   -1.1289 N   0  0  0  0  0  0  0  0  0  0  0  0
   -1.8971   -1.8843   -0.8752 C   0  0  2  0  0  0  0  0  0  0  0  0
   -1.2676   -1.0599    0.2399 C   0  0  0  0  0  0  0  0  0  0  0  0
   -1.6270    0.0833    0.5138 O   0  0  0  0  0  0  0  0  0  0  0  0
   -1.0364   -1.8506   -2.1285 C   0  0  0  0  0  0  0  0  0  0  0  0
   -3.5631   -0.6202   -0.5206 H   0  0  0  0  0  0  0  0  0  0  0  0
   -2.0301   -2.9174   -0.5360 H   0  0  0  0  0  0  0  0  0  0  0  0
   -0.8921   -0.8236   -2.4833 H   0  0  0  0  0  0  0  0  0  0  0  0
   -0.0457   -2.2777   -1.9410 H   0  0  0  0  0  0  0  0  0  0  0  0
   -1.5052   -2.4193   -2.9387 H   0  0  0  0  0  0  0  0  0  0  0  0
   -0.2267   -1.7335    0.8672 N   0  0  0  0  0  0  0  0  0  0  0  0
    0.5363   -1.1590    1.9465 C   0  0  2  0  0  0  0  0  0  0  0  0
    0.2442    0.3371    1.9576 C   0  0  0  0  0  0  0  0  0  0  0  0
    0.6809    1.1118    1.1089 O   0  0  0  0  0  0  0  0  0  0  0  0
    2.0330   -1.4120    1.7812 C   0  0  0  0  0  0  0  0  0  0  0  0
    2.5020   -2.8628    1.9500 C   0  0  0  0  0  0  0  0  0  0  0  0
    1.7830   -3.5501    2.7320 O   0  5  0  0  0  0  0  0  0  0  0  0
    3.5360   -3.2005    1.3115 O   0  0  0  0  0  0  0  0  0  0  0  0
   -0.0113   -2.6869    0.5854 H   0  0  0  0  0  0  0  0  0  0  0  0
    0.1587   -1.6068    2.8727 H   0  0  0  0  0  0  0  0  0  0  0  0
    2.5934   -0.7913    2.4938 H   0  0  0  0  0  0  0  0  0  0  0  0
    2.3522   -1.0984    0.7787 H   0  0  0  0  0  0  0  0  0  0  0  0
   -0.6036    0.6954    2.9965 N   0  0  0  0  0  0  0  0  0  0  0  0
   -1.0559    2.0513    3.2046 C   0  0  2  0  0  0  0  0  0  0  0  0
   -1.2645    2.2532    4.6997 C   0  0  0  0  0  0  0  0  0  0  0  0
   -1.4585    1.3246    5.4814 O   0  0  0  0  0  0  0  0  0  0  0  0
   -2.3368    2.3316    2.4343 C   0  0  0  0  0  0  0  0  0  0  0  0
   -0.9548   -0.0218    3.6243 H   0  0  0  0  0  0  0  0  0  0  0  0
   -0.2531    2.7096    2.8551 H   0  0  0  0  0  0  0  0  0  0  0  0
   -3.1526    1.6814    2.7708 H   0  0  0  0  0  0  0  0  0  0  0  0
   -2.6628    3.3681    2.5703 H   0  0  0  0  0  0  0  0  0  0  0  0
   -2.1932    2.1571    1.3625 H   0  0  0  0  0  0  0  0  0  0  0  0
   -1.2515    3.5956    5.0518 N   0  0  0  0  0  0  0  0  0  0  0  0
   -1.4405    4.0471    6.4106 C   0  0  0  0  0  0  0  0  0  0  0  0
   -1.0648    4.2968    4.3410 H   0  0  0  0  0  0  0  0  0  0  0  0
   -2.5065    4.2572    6.5828 H   0  0  0  0  0  0  0  0  0  0  0  0
   -1.1040    3.2648    7.1069 H   0  0  0  0  0  0  0  0  0  0  0  0
   -0.8548    4.9631    6.5773 H   0  0  0  0  0  0  0  0  0  0  0  0
  1  3  1  0  0  0  0
  1  7  1  0  0  0  0
  1  2  2  0  0  0  0
 30 31  1  0  0  0  0
 31 39  1  0  0  0  0
 31 32  2  0  0  0  0
  8  9  1  0  0  0  0
  9 17  1  0  0  0  0
  9 10  2  0  0  0  0
 18 19  1  0  0  0  0
 19 29  1  0  0  0  0
 19 20  2  0  0  0  0
 21 22  1  0  0  0  0
 22 23  1  0  0  0  0
 22 24  2  0  0  0  0
 30 33  1  0  0  0  0
  8 11  1  0  0  0  0
 39 40  1  0  0  0  0
 18 21  1  0  0  0  0
 29 30  1  0  0  0  0
  7  8  1  0  0  0  0
 17 18  1  0  0  0  0
  3  4  1  0  0  0  0
  3  5  1  0  0  0  0
  3  6  1  0  0  0  0
 33 36  1  0  0  0  0
 33 37  1  0  0  0  0
 33 38  1  0  0  0  0
 11 14  1  0  0  0  0
 11 15  1  0  0  0  0
 11 16  1  0  0  0  0
 40 42  1  0  0  0  0
 40 43  1  0  0  0  0
 40 44  1  0  0  0  0
 21 27  1  0  0  0  0
 21 28  1  0  0  0  0
 30 35  1  0  0  0  0
  8 13  1  0  0  0  0
 18 26  1  0  0  0  0
 39 41  1  0  0  0  0
  7 12  1  0  0  0  0
 29 34  1  0  0  0  0
 17 25  1  0  0  0  0
M  CHG  1  23  -1
M  END
$$$$

  -OEChem-05262214473D

 44 43  0     1  0  0  0  0  0999 V2000
   -4.0256   -1.8030   -2.1581 C   0  0  0  0  0  0  0  0  0  0  0  0
   -3.7513   -2.6782   -2.9709 O   0  0  0  0  0  0  0  0  0  0  0  0
   -5.3491   -1.1169   -2.2339 C   0  0  0  0  0  0  0  0  0  0  0  0
   -5.3223   -0.2211   -2.8750 H   0  0  0  0  0  0  0  0  0  0  0  0
   -6.1322   -1.7605   -2.6658 H   0  0  0  0  0  0  0  0  0  0  0  0
   -5.7568   -0.7715   -1.2704 H   0  0  0  0  0  0  0  0  0  0  0  0
   -3.2124   -1.3578   -1.1289 N   0  0  0  0  0  0  0  0  0  0  0  0
   -1.8971   -1.8843   -0.8752 C   0  0  2  0  0  0  0  0  0  0  0  0
   -1.2676   -1.0599    0.2399 C   0  0  0  0  0  0  0  0  0  0  0  0
   -1.6270    0.0833    0.5138 O   0  0  0  0  0  0  0  0  0  0  0  0
   -1.0364   -1.8506   -2.1285 C   0  0  0  0  0  0  0  0  0  0  0  0
   -3.5631   -0.6202   -0.5206 H   0  0  0  0  0  0  0  0  0  0  0  0
   -2.0301   -2.9174   -0.5360 H   0  0  0  0  0  0  0  0  0  0  0  0
   -0.8921   -0.8236   -2.4833 H   0  0  0  0  0  0  0  0  0  0  0  0
   -0.0457   -2.2777   -1.9410 H   0  0  0  0  0  0  0  0  0  0  0  0
   -1.5052   -2.4193   -2.9387 H   0  0  0  0  0  0  0  0  0  0  0  0
   -0.2267   -1.7335    0.8672 N   0  0  0  0  0  0  0  0  0  0  0  0
    0.5363   -1.1590    1.9465 C   0  0  2  0  0  0  0  0  0  0  0  0
    0.2442    0.3371    1.9576 C   0  0  0  0  0  0  0  0  0  0  0  0
    0.4446    1.0665    0.9886 O   0  0  0  0  0  0  0  0  0  0  0  0
    2.0330   -1.4120    1.7812 C   0  0  0  0  0  0  0  0  0  0  0  0
    2.5020   -2.8628    1.9500 C   0  0  0  0  0  0  0  0  0  0  0  0
    1.7830   -3.5501    2.7320 O   0  5  0  0  0  0  0  0  0  0  0  0
    3.5360   -3.2005    1.3115 O   0  0  0  0  0  0  0  0  0  0  0  0
   -0.0113   -2.6869    0.5854 H   0  0  0  0  0  0  0  0  0  0  0  0
    0.1587   -1.6068    2.8727 H   0  0  0  0  0  0  0  0  0  0  0  0
    2.5934   -0.7913    2.4938 H   0  0  0  0  0  0  0  0  0  0  0  0
    2.3522   -1.0984    0.7787 H   0  0  0  0  0  0  0  0  0  0  0  0
   -0.3149    0.7505    3.1588 N   0  0  0  0  0  0  0  0  0  0  0  0
   -0.7108    2.1171    3.4078 C   0  0  2  0  0  0  0  0  0  0  0  0
   -0.5345    2.3943    4.8950 C   0  0  0  0  0  0  0  0  0  0  0  0
   -0.5159    1.5067    5.7452 O   0  0  0  0  0  0  0  0  0  0  0  0
   -2.1476    2.3645    2.9754 C   0  0  0  0  0  0  0  0  0  0  0  0
   -0.4892    0.0671    3.8898 H   0  0  0  0  0  0  0  0  0  0  0  0
   -0.0286    2.7536    2.8337 H   0  0  0  0  0  0  0  0  0  0  0  0
   -2.8458    1.7356    3.5397 H   0  0  0  0  0  0  0  0  0  0  0  0
   -2.4370    3.4079    3.1384 H   0  0  0  0  0  0  0  0  0  0  0  0
   -2.2794    2.1361    1.9122 H   0  0  0  0  0  0  0  0  0  0  0  0
   -0.4437    3.7525    5.1655 N   0  0  0  0  0  0  0  0  0  0  0  0
   -0.2852    4.2720    6.5038 C   0  0  0  0  0  0  0  0  0  0  0  0
   -0.4494    4.4166    4.3969 H   0  0  0  0  0  0  0  0  0  0  0  0
   -1.2741    4.4953    6.9305 H   0  0  0  0  0  0  0  0  0  0  0  0
    0.2236    3.5239    7.1295 H   0  0  0  0  0  0  0  0  0  0  0  0
    0.3161    5.1925    6.4708 H   0  0  0  0  0  0  0  0  0  0  0  0
  1  3  1  0  0  0  0
  1  7  1  0  0  0  0
  1  2  2  0  0  0  0
 30 31  1  0  0  0  0
 31 39  1  0  0  0  0
 31 32  2  0  0  0  0
  8  9  1  0  0  0  0
  9 17  1  0  0  0  0
  9 10  2  0  0  0  0
 18 19  1  0  0  0  0
 19 29  1  0  0  0  0
 19 20  2  0  0  0  0
 21 22  1  0  0  0  0
 22 23  1  0  0  0  0
 22 24  2  0  0  0  0
 30 33  1  0  0  0  0
  8 11  1  0  0  0  0
 39 40  1  0  0  0  0
 18 21  1  0  0  0  0
 29 30  1  0  0  0  0
  7  8  1  0  0  0  0
 17 18  1  0  0  0  0
  3  4  1  0  0  0  0
  3  5  1  0  0  0  0
  3  6  1  0  0  0  0
 33 36  1  0  0  0  0
 33 37  1  0  0  0  0
 33 38  1  0  0  0  0
 11 14  1  0  0  0  0
 11 15  1  0  0  0  0
 11 16  1  0  0  0  0
 40 42  1  0  0  0  0
 40 43  1  0  0  0  0
 40 44  1  0  0  0  0
 21 27  1  0  0  0  0
 21 28  1  0  0  0  0
 30 35  1  0  0  0  0
  8 13  1  0  0  0  0
 18 26  1  0  0  0  0
 39 41  1  0  0  0  0
  7 12  1  0  0  0  0
 29 34  1  0  0  0  0
 17 25  1  0  0  0  0
M  CHG  1  23  -1
M  END
$$$$

  -OEChem-05262214473D

 44 43  0     1  0  0  0  0  0999 V2000
   -4.0256   -1.8030   -2.1581 C   0  0  0  0  0  0  0  0  0  0  0  0
   -3.7513   -2.6782   -2.9709 O   0  0  0  0  0  0  0  0  0  0  0  0
   -5.3491   -1.1169   -2.2339 C   0  0  0  0  0  0  0  0  0  0  0  0
   -5.3223   -0.2211   -2.8750 H   0  0  0  0  0  0  0  0  0  0  0  0
   -6.1322   -1.7605   -2.6658 H   0  0  0  0  0  0  0  0  0  0  0  0
   -5.7568   -0.7715   -1.2704 H   0  0  0  0  0  0  0  0  0  0  0  0
   -3.2124   -1.3578   -1.1289 N   0  0  0  0  0  0  0  0  0  0  0  0
   -1.8971   -1.8843   -0.8752 C   0  0  2  0  0  0  0  0  0  0  0  0
   -1.2676   -1.0599    0.2399 C   0  0  0  0  0  0  0  0  0  0  0  0
   -1.6270    0.0833    0.5138 O   0  0  0  0  0  0  0  0  0  0  0  0
   -1.0364   -1.8506   -2.1285 C   0  0  0  0  0  0  0  0  0  0  0  0
   -3.5631   -0.6202   -0.5206 H   0  0  0  0  0  0  0  0  0  0  0  0
   -2.0301   -2.9174   -0.5360 H   0  0  0  0  0  0  0  0  0  0  0  0
   -0.8921   -0.8236   -2.4833 H   0  0  0  0  0  0  0  0  0  0  0  0
   -0.0457   -2.2777   -1.9410 H   0  0  0  0  0  0  0  0  0  0  0  0
   -1.5052   -2.4193   -2.9387 H   0  0  0  0  0  0  0  0  0  0  0  0
   -0.2267   -1.7335    0.8672 N   0  0  0  0  0  0  0  0  0  0  0  0
    0.5363   -1.1590    1.9465 C   0  0  2  0  0  0  0  0  0  0  0  0
    0.2442    0.3371    1.9576 C   0  0  0  0  0  0  0  0  0  0  0  0
    0.1859    1.0164    0.9347 O   0  0  0  0  0  0  0  0  0  0  0  0
    2.0330   -1.4120    1.7812 C   0  0  0  0  0  0  0  0  0  0  0  0
    2.5020   -2.8628    1.9500 C   0  0  0  0  0  0  0  0  0  0  0  0
    1.7830   -3.5501    2.7320 O   0  5  0  0  0  0  0  0  0  0  0  0
    3.5360   -3.2005    1.3115 O   0  0  0  0  0  0  0  0  0  0  0  0
   -0.0113   -2.6869    0.5854 H   0  0  0  0  0  0  0  0  0  0  0  0
    0.1587   -1.6068    2.8727 H   0  0  0  0  0  0  0  0  0  0  0  0
    2.5934   -0.7913    2.4938 H   0  0  0  0  0  0  0  0  0  0  0  0
    2.3522   -1.0984    0.7787 H   0  0  0  0  0  0  0  0  0  0  0  0
    0.0051    0.8124    3.2395 N   0  0  0  0  0  0  0  0  0  0  0  0
   -0.3259    2.1915    3.5132 C   0  0  2  0  0  0  0  0  0  0  0  0
    0.2200    2.5417    4.8912 C   0  0  0  0  0  0  0  0  0  0  0  0
    0.4613    1.6974    5.7515 O   0  0  0  0  0  0  0  0  0  0  0  0
   -1.8275    2.4235    3.4483 C   0  0  0  0  0  0  0  0  0  0  0  0
    0.0278    0.1671    4.0237 H   0  0  0  0  0  0  0  0  0  0  0  0
    0.1828    2.7955    2.7539 H   0  0  0  0  0  0  0  0  0  0  0  0
   -2.3542    1.8266    4.2018 H   0  0  0  0  0  0  0  0  0  0  0  0
   -2.0746    3.4750    3.6277 H   0  0  0  0  0  0  0  0  0  0  0  0
   -2.2231    2.1430    2.4661 H   0  0  0  0  0  0  0  0  0  0  0  0
    0.3652    3.9112    5.0624 N   0  0  0  0  0  0  0  0  0  0  0  0
    0.8541    4.4961    6.2892 C   0  0  0  0  0  0  0  0  0  0  0  0
    0.1589    4.5362    4.2887 H   0  0  0  0  0  0  0  0  0  0  0  0
    0.0041    4.7448    6.9416 H   0  0  0  0  0  0  0  0  0  0  0  0
    1.5113    3.7778    6.8012 H   0  0  0  0  0  0  0  0  0  0  0  0
    1.4197    5.4111    6.0591 H   0  0  0  0  0  0  0  0  0  0  0  0
  1  3  1  0  0  0  0
  1  7  1  0  0  0  0
  1  2  2  0  0  0  0
 30 31  1  0  0  0  0
 31 39  1  0  0  0  0
 31 32  2  0  0  0  0
  8  9  1  0  0  0  0
  9 17  1  0  0  0  0
  9 10  2  0  0  0  0
 18 19  1  0  0  0  0
 19 29  1  0  0  0  0
 19 20  2  0  0  0  0
 21 22  1  0  0  0  0
 22 23  1  0  0  0  0
 22 24  2  0  0  0  0
 30 33  1  0  0  0  0
  8 11  1  0  0  0  0
 39 40  1  0  0  0  0
 18 21  1  0  0  0  0
 29 30  1  0  0  0  0
  7  8  1  0  0  0  0
 17 18  1  0  0  0  0
  3  4  1  0  0  0  0
  3  5  1  0  0  0  0
  3  6  1  0  0  0  0
 33 36  1  0  0  0  0
 33 37  1  0  0  0  0
 33 38  1  0  0  0  0
 11 14  1  0  0  0  0
 11 15  1  0  0  0  0
 11 16  1  0  0  0  0
 40 42  1  0  0  0  0
 40 43  1  0  0  0  0
 40 44  1  0  0  0  0
 21 27  1  0  0  0  0
 21 28  1  0  0  0  0
 30 35  1  0  0  0  0
  8 13  1  0  0  0  0
 18 26  1  0  0  0  0
 39 41  1  0  0  0  0
  7 12  1  0  0  0  0
 29 34  1  0  0  0  0
 17 25  1  0  0  0  0
M  CHG  1  23  -1
M  END
$$$$

  -OEChem-05262214473D

 44 43  0     1  0  0  0  0  0999 V2000
   -4.0256   -1.8030   -2.1581 C   0  0  0  0  0  0  0  0  0  0  0  0
   -3.7513   -2.6782   -2.9709 O   0  0  0  0  0  0  0  0  0  0  0  0
   -5.3491   -1.1169   -2.2339 C   0  0  0  0  0  0  0  0  0  0  0  0
   -5.3223   -0.2211   -2.8750 H   0  0  0  0  0  0  0  0  0  0  0  0
   -6.1322   -1.7605   -2.6658 H   0  0  0  0  0  0  0  0  0  0  0  0
   -5.7568   -0.7715   -1.2704 H   0  0  0  0  0  0  0  0  0  0  0  0
   -3.2124   -1.3578   -1.1289 N   0  0  0  0  0  0  0  0  0  0  0  0
   -1.8971   -1.8843   -0.8752 C   0  0  2  0  0  0  0  0  0  0  0  0
   -1.2676   -1.0599    0.2399 C   0  0  0  0  0  0  0  0  0  0  0  0
   -1.6270    0.0833    0.5138 O   0  0  0  0  0  0  0  0  0  0  0  0
   -1.0364   -1.8506   -2.1285 C   0  0  0  0  0  0  0  0  0  0  0  0
   -3.5631   -0.6202   -0.5206 H   0  0  0  0  0  0  0  0  0  0  0  0
   -2.0301   -2.9174   -0.5360 H   0  0  0  0  0  0  0  0  0  0  0  0
   -0.8921   -0.8236   -2.4833 H   0  0  0  0  0  0  0  0  0  0  0  0
   -0.0457   -2.2777   -1.9410 H   0  0  0  0  0  0  0  0  0  0  0  0
   -1.5052   -2.4193   -2.9387 H   0  0  0  0  0  0  0  0  0  0  0  0
   -0.2267   -1.7335    0.8672 N   0  0  0  0  0  0  0  0  0  0  0  0
    0.5363   -1.1590    1.9465 C   0  0  2  0  0  0  0  0  0  0  0  0
    0.2442    0.3371    1.9576 C   0  0  0  0  0  0  0  0  0  0  0  0
   -0.0777    0.9648    0.9509 O   0  0  0  0  0  0  0  0  0  0  0  0
    2.0330   -1.4120    1.7812 C   0  0  0  0  0  0  0  0  0  0  0  0
    2.5020   -2.8628    1.9500 C   0  0  0  0  0  0  0  0  0  0  0  0
    1.7830   -3.5501    2.7320 O   0  5  0  0  0  0  0  0  0  0  0  0
    3.5360   -3.2005    1.3115 O   0  0  0  0  0  0  0  0  0  0  0  0
   -0.0113   -2.6869    0.5854 H   0  0  0  0  0  0  0  0  0  0  0  0
    0.1587   -1.6068    2.8727 H   0  0  0  0  0  0  0  0  0  0  0  0
    2.5934   -0.7913    2.4938 H   0  0  0  0  0  0  0  0  0  0  0  0
    2.3522   -1.0984    0.7787 H   0  0  0  0  0  0  0  0  0  0  0  0
    0.3346    0.8768    3.2331 N   0  0  0  0  0  0  0  0  0  0  0  0
    0.0725    2.2693    3.5135 C   0  0  2  0  0  0  0  0  0  0  0  0
    0.9475    2.6852    4.6886 C   0  0  0  0  0  0  0  0  0  0  0  0
    1.4063    1.8838    5.4999 O   0  0  0  0  0  0  0  0  0  0  0  0
   -1.3982    2.5045    3.8208 C   0  0  0  0  0  0  0  0  0  0  0  0
    0.5610    0.2712    4.0166 H   0  0  0  0  0  0  0  0  0  0  0  0
    0.3666    2.8324    2.6210 H   0  0  0  0  0  0  0  0  0  0  0  0
   -1.7113    1.9483    4.7120 H   0  0  0  0  0  0  0  0  0  0  0  0
   -1.6004    3.5648    4.0051 H   0  0  0  0  0  0  0  0  0  0  0  0
   -2.0280    2.1772    2.9865 H   0  0  0  0  0  0  0  0  0  0  0  0
    1.1201    4.0610    4.7495 N   0  0  0  0  0  0  0  0  0  0  0  0
    1.8996    4.7040    5.7813 C   0  0  0  0  0  0  0  0  0  0  0  0
    0.7189    4.6475    4.0237 H   0  0  0  0  0  0  0  0  0  0  0  0
    1.2412    4.9888    6.6152 H   0  0  0  0  0  0  0  0  0  0  0  0
    2.6712    4.0092    6.1444 H   0  0  0  0  0  0  0  0  0  0  0  0
    2.3806    5.6038    5.3703 H   0  0  0  0  0  0  0  0  0  0  0  0
  1  3  1  0  0  0  0
  1  7  1  0  0  0  0
  1  2  2  0  0  0  0
 30 31  1  0  0  0  0
 31 39  1  0  0  0  0
 31 32  2  0  0  0  0
  8  9  1  0  0  0  0
  9 17  1  0  0  0  0
  9 10  2  0  0  0  0
 18 19  1  0  0  0  0
 19 29  1  0  0  0  0
 19 20  2  0  0  0  0
 21 22  1  0  0  0  0
 22 23  1  0  0  0  0
 22 24  2  0  0  0  0
 30 33  1  0  0  0  0
  8 11  1  0  0  0  0
 39 40  1  0  0  0  0
 18 21  1  0  0  0  0
 29 30  1  0  0  0  0
  7  8  1  0  0  0  0
 17 18  1  0  0  0  0
  3  4  1  0  0  0  0
  3  5  1  0  0  0  0
  3  6  1  0  0  0  0
 33 36  1  0  0  0  0
 33 37  1  0  0  0  0
 33 38  1  0  0  0  0
 11 14  1  0  0  0  0
 11 15  1  0  0  0  0
 11 16  1  0  0  0  0
 40 42  1  0  0  0  0
 40 43  1  0  0  0  0
 40 44  1  0  0  0  0
 21 27  1  0  0  0  0
 21 28  1  0  0  0  0
 30 35  1  0  0  0  0
  8 13  1  0  0  0  0
 18 26  1  0  0  0  0
 39 41  1  0  0  0  0
  7 12  1  0  0  0  0
 29 34  1  0  0  0  0
 17 25  1  0  0  0  0
M  CHG  1  23  -1
M  END
$$$$

  -OEChem-05262214473D

 44 43  0     1  0  0  0  0  0999 V2000
   -4.0256   -1.8030   -2.1581 C   0  0  0  0  0  0  0  0  0  0  0  0
   -3.7513   -2.6782   -2.9709 O   0  0  0  0  0  0  0  0  0  0  0  0
   -5.3491   -1.1169   -2.2339 C   0  0  0  0  0  0  0  0  0  0  0  0
   -5.3223   -0.2211   -2.8750 H   0  0  0  0  0  0  0  0  0  0  0  0
   -6.1322   -1.7605   -2.6658 H   0  0  0  0  0  0  0  0  0  0  0  0
   -5.7568   -0.7715   -1.2704 H   0  0  0  0  0  0  0  0  0  0  0  0
   -3.2124   -1.3578   -1.1289 N   0  0  0  0  0  0  0  0  0  0  0  0
   -1.8971   -1.8843   -0.8752 C   0  0  2  0  0  0  0  0  0  0  0  0
   -1.2676   -1.0599    0.2399 C   0  0  0  0  0  0  0  0  0  0  0  0
   -1.6270    0.0833    0.5138 O   0  0  0  0  0  0  0  0  0  0  0  0
   -1.0364   -1.8506   -2.1285 C   0  0  0  0  0  0  0  0  0  0  0  0
   -3.5631   -0.6202   -0.5206 H   0  0  0  0  0  0  0  0  0  0  0  0
   -2.0301   -2.9174   -0.5360 H   0  0  0  0  0  0  0  0  0  0  0  0
   -0.8921   -0.8236   -2.4833 H   0  0  0  0  0  0  0  0  0  0  0  0
   -0.0457   -2.2777   -1.9410 H   0  0  0  0  0  0  0  0  0  0  0  0
   -1.5052   -2.4193   -2.9387 H   0  0  0  0  0  0  0  0  0  0  0  0
   -0.2267   -1.7335    0.8672 N   0  0  0  0  0  0  0  0  0  0  0  0
    0.5363   -1.1590    1.9465 C   0  0  2  0  0  0  0  0  0  0  0  0
    0.2442    0.3371    1.9576 C   0  0  0  0  0  0  0  0  0  0  0  0
   -0.3280    0.9153    1.0360 O   0  0  0  0  0  0  0  0  0  0  0  0
    2.0330   -1.4120    1.7812 C   0  0  0  0  0  0  0  0  0  0  0  0
    2.5020   -2.8628    1.9500 C   0  0  0  0  0  0  0  0  0  0  0  0
    1.7830   -3.5501    2.7320 O   0  5  0  0  0  0  0  0  0  0  0  0
    3.5360   -3.2005    1.3115 O   0  0  0  0  0  0  0  0  0  0  0  0
   -0.0113   -2.6869    0.5854 H   0  0  0  0  0  0  0  0  0  0  0  0
    0.1587   -1.6068    2.8727 H   0  0  0  0  0  0  0  0  0  0  0  0
    2.5934   -0.7913    2.4938 H   0  0  0  0  0  0  0  0  0  0  0  0
    2.3522   -1.0984    0.7787 H   0  0  0  0  0  0  0  0  0  0  0  0
    0.6510    0.9393    3.1401 N   0  0  0  0  0  0  0  0  0  0  0  0
    0.4572    2.3452    3.4087 C   0  0  2  0  0  0  0  0  0  0  0  0
    1.5984    2.8152    4.3009 C   0  0  0  0  0  0  0  0  0  0  0  0
    2.2550    2.0532    5.0076 O   0  0  0  0  0  0  0  0  0  0  0  0
   -0.8891    2.6021    4.0677 C   0  0  0  0  0  0  0  0  0  0  0  0
    1.0741    0.3725    3.8692 H   0  0  0  0  0  0  0  0  0  0  0  0
    0.5103    2.8618    2.4442 H   0  0  0  0  0  0  0  0  0  0  0  0
   -0.9610    2.0924    5.0354 H   0  0  0  0  0  0  0  0  0  0  0  0
   -1.0467    3.6711    4.2446 H   0  0  0  0  0  0  0  0  0  0  0  0
   -1.7074    2.2365    3.4379 H   0  0  0  0  0  0  0  0  0  0  0  0
    1.7694    4.1915    4.2480 N   0  0  0  0  0  0  0  0  0  0  0  0
    2.7801    4.8816    5.0149 C   0  0  0  0  0  0  0  0  0  0  0  0
    1.1922    4.7429    3.6199 H   0  0  0  0  0  0  0  0  0  0  0  0
    2.3527    5.2106    5.9736 H   0  0  0  0  0  0  0  0  0  0  0  0
    3.6244    4.2023    5.2039 H   0  0  0  0  0  0  0  0  0  0  0  0
    3.1334    5.7577    4.4513 H   0  0  0  0  0  0  0  0  0  0  0  0
  1  3  1  0  0  0  0
  1  7  1  0  0  0  0
  1  2  2  0  0  0  0
 30 31  1  0  0  0  0
 31 39  1  0  0  0  0
 31 32  2  0  0  0  0
  8  9  1  0  0  0  0
  9 17  1  0  0  0  0
  9 10  2  0  0  0  0
 18 19  1  0  0  0  0
 19 29  1  0  0  0  0
 19 20  2  0  0  0  0
 21 22  1  0  0  0  0
 22 23  1  0  0  0  0
 22 24  2  0  0  0  0
 30 33  1  0  0  0  0
  8 11  1  0  0  0  0
 39 40  1  0  0  0  0
 18 21  1  0  0  0  0
 29 30  1  0  0  0  0
  7  8  1  0  0  0  0
 17 18  1  0  0  0  0
  3  4  1  0  0  0  0
  3  5  1  0  0  0  0
  3  6  1  0  0  0  0
 33 36  1  0  0  0  0
 33 37  1  0  0  0  0
 33 38  1  0  0  0  0
 11 14  1  0  0  0  0
 11 15  1  0  0  0  0
 11 16  1  0  0  0  0
 40 42  1  0  0  0  0
 40 43  1  0  0  0  0
 40 44  1  0  0  0  0
 21 27  1  0  0  0  0
 21 28  1  0  0  0  0
 30 35  1  0  0  0  0
  8 13  1  0  0  0  0
 18 26  1  0  0  0  0
 39 41  1  0  0  0  0
  7 12  1  0  0  0  0
 29 34  1  0  0  0  0
 17 25  1  0  0  0  0
M  CHG  1  23  -1
M  END
$$$$

  -OEChem-05262214473D

 44 43  0     1  0  0  0  0  0999 V2000
   -4.0256   -1.8030   -2.1581 C   0  0  0  0  0  0  0  0  0  0  0  0
   -3.7513   -2.6782   -2.9709 O   0  0  0  0  0  0  0  0  0  0  0  0
   -5.3491   -1.1169   -2.2339 C   0  0  0  0  0  0  0  0  0  0  0  0
   -5.3223   -0.2211   -2.8750 H   0  0  0  0  0  0  0  0  0  0  0  0
   -6.1322   -1.7605   -2.6658 H   0  0  0  0  0  0  0  0  0  0  0  0
   -5.7568   -0.7715   -1.2704 H   0  0  0  0  0  0  0  0  0  0  0  0
   -3.2124   -1.3578   -1.1289 N   0  0  0  0  0  0  0  0  0  0  0  0
   -1.8971   -1.8843   -0.8752 C   0  0  2  0  0  0  0  0  0  0  0  0
   -1.2676   -1.0599    0.2399 C   0  0  0  0  0  0  0  0  0  0  0  0
   -1.6270    0.0833    0.5138 O   0  0  0  0  0  0  0  0  0  0  0  0
   -1.0364   -1.8506   -2.1285 C   0  0  0  0  0  0  0  0  0  0  0  0
   -3.5631   -0.6202   -0.5206 H   0  0  0  0  0  0  0  0  0  0  0  0
   -2.0301   -2.9174   -0.5360 H   0  0  0  0  0  0  0  0  0  0  0  0
   -0.8921   -0.8236   -2.4833 H   0  0  0  0  0  0  0  0  0  0  0  0
   -0.0457   -2.2777   -1.9410 H   0  0  0  0  0  0  0  0  0  0  0  0
   -1.5052   -2.4193   -2.9387 H   0  0  0  0  0  0  0  0  0  0  0  0
   -0.2267   -1.7335    0.8672 N   0  0  0  0  0  0  0  0  0  0  0  0
    0.5363   -1.1590    1.9465 C   0  0  2  0  0  0  0  0  0  0  0  0
   -0.0266    0.2341    2.2039 C   0  0  0  0  0  0  0  0  0  0  0  0
   -0.9894    0.6918    1.5916 O   0  0  0  0  0  0  0  0  0  0  0  0
    2.0242   -1.0829    1.6122 C   0  0  0  0  0  0  0  0  0  0  0  0
    2.7722   -2.4193    1.5229 C   0  0  0  0  0  0  0  0  0  0  0  0
    2.2903   -3.3306    2.2565 O   0  5  0  0  0  0  0  0  0  0  0  0
    3.7694   -2.4585    0.7515 O   0  0  0  0  0  0  0  0  0  0  0  0
   -0.0113   -2.6869    0.5854 H   0  0  0  0  0  0  0  0  0  0  0  0
    0.3596   -1.7873    2.8268 H   0  0  0  0  0  0  0  0  0  0  0  0
    2.5381   -0.4577    2.3553 H   0  0  0  0  0  0  0  0  0  0  0  0
    2.1601   -0.5870    0.6423 H   0  0  0  0  0  0  0  0  0  0  0  0
    0.6402    0.8842    3.2330 N   0  0  0  0  0  0  0  0  0  0  0  0
    0.2756    2.2053    3.6893 C   0  0  2  0  0  0  0  0  0  0  0  0
    1.5387    2.8965    4.1857 C   0  0  0  0  0  0  0  0  0  0  0  0
    2.5399    2.2834    4.5499 O   0  0  0  0  0  0  0  0  0  0  0  0
   -0.7758    2.1413    4.7861 C   0  0  0  0  0  0  0  0  0  0  0  0
    1.3966    0.4090    3.7165 H   0  0  0  0  0  0  0  0  0  0  0  0
   -0.1179    2.7428    2.8197 H   0  0  0  0  0  0  0  0  0  0  0  0
   -0.3997    1.6062    5.6657 H   0  0  0  0  0  0  0  0  0  0  0  0
   -1.0719    3.1442    5.1109 H   0  0  0  0  0  0  0  0  0  0  0  0
   -1.6722    1.6175    4.4367 H   0  0  0  0  0  0  0  0  0  0  0  0
    1.4008    4.2772    4.2148 N   0  0  0  0  0  0  0  0  0  0  0  0
    2.4564    5.1569    4.6599 C   0  0  0  0  0  0  0  0  0  0  0  0
    0.5419    4.7009    3.8765 H   0  0  0  0  0  0  0  0  0  0  0  0
    2.3362    5.3604    5.7342 H   0  0  0  0  0  0  0  0  0  0  0  0
    3.4310    4.6780    4.4843 H   0  0  0  0  0  0  0  0  0  0  0  0
    2.4061    6.1023    4.0998 H   0  0  0  0  0  0  0  0  0  0  0  0
  1  3  1  0  0  0  0
  1  7  1  0  0  0  0
  1  2  2  0  0  0  0
 30 31  1  0  0  0  0
 31 39  1  0  0  0  0
 31 32  2  0  0  0  0
  8  9  1  0  0  0  0
  9 17  1  0  0  0  0
  9 10  2  0  0  0  0
 18 19  1  0  0  0  0
 19 29  1  0  0  0  0
 19 20  2  0  0  0  0
 21 22  1  0  0  0  0
 22 23  1  0  0  0  0
 22 24  2  0  0  0  0
 30 33  1  0  0  0  0
  8 11  1  0  0  0  0
 39 40  1  0  0  0  0
 18 21  1  0  0  0  0
 29 30  1  0  0  0  0
  7  8  1  0  0  0  0
 17 18  1  0  0  0  0
  3  4  1  0  0  0  0
  3  5  1  0  0  0  0
  3  6  1  0  0  0  0
 33 36  1  0  0  0  0
 33 37  1  0  0  0  0
 33 38  1  0  0  0  0
 11 14  1  0  0  0  0
 11 15  1  0  0  0  0
 11 16  1  0  0  0  0
 40 42  1  0  0  0  0
 40 43  1  0  0  0  0
 40 44  1  0  0  0  0
 21 27  1  0  0  0  0
 21 28  1  0  0  0  0
 30 35  1  0  0  0  0
  8 13  1  0  0  0  0
 18 26  1  0  0  0  0
 39 41  1  0  0  0  0
  7 12  1  0  0  0  0
 29 34  1  0  0  0  0
 17 25  1  0  0  0  0
M  CHG  1  23  -1
M  END
$$$$

  -OEChem-05262214473D

 44 43  0     1  0  0  0  0  0999 V2000
   -4.0256   -1.8030   -2.1581 C   0  0  0  0  0  0  0  0  0  0  0  0
   -3.7513   -2.6782   -2.9709 O   0  0  0  0  0  0  0  0  0  0  0  0
   -5.3491   -1.1169   -2.2339 C   0  0  0  0  0  0  0  0  0  0  0  0
   -5.3223   -0.2211   -2.8750 H   0  0  0  0  0  0  0  0  0  0  0  0
   -6.1322   -1.7605   -2.6658 H   0  0  0  0  0  0  0  0  0  0  0  0
   -5.7568   -0.7715   -1.2704 H   0  0  0  0  0  0  0  0  0  0  0  0
   -3.2124   -1.3578   -1.1289 N   0  0  0  0  0  0  0  0  0  0  0  0
   -1.8971   -1.8843   -0.8752 C   0  0  2  0  0  0  0  0  0  0  0  0
   -1.2676   -1.0599    0.2399 C   0  0  0  0  0  0  0  0  0  0  0  0
   -1.6270    0.0833    0.5138 O   0  0  0  0  0  0  0  0  0  0  0  0
   -1.0364   -1.8506   -2.1285 C   0  0  0  0  0  0  0  0  0  0  0  0
   -3.5631   -0.6202   -0.5206 H   0  0  0  0  0  0  0  0  0  0  0  0
   -2.0301   -2.9174   -0.5360 H   0  0  0  0  0  0  0  0  0  0  0  0
   -0.8921   -0.8236   -2.4833 H   0  0  0  0  0  0  0  0  0  0  0  0
   -0.0457   -2.2777   -1.9410 H   0  0  0  0  0  0  0  0  0  0  0  0
   -1.5052   -2.4193   -2.9387 H   0  0  0  0  0  0  0  0  0  0  0  0
   -0.2267   -1.7335    0.8672 N   0  0  0  0  0  0  0  0  0  0  0  0
    0.5363   -1.1590    1.9465 C   0  0  2  0  0  0  0  0  0  0  0  0
   -0.0266    0.2341    2.2039 C   0  0  0  0  0  0  0  0  0  0  0  0
   -1.1298    0.5964    1.8003 O   0  0  0  0  0  0  0  0  0  0  0  0
    2.0242   -1.0829    1.6122 C   0  0  0  0  0  0  0  0  0  0  0  0
    2.7722   -2.4193    1.5229 C   0  0  0  0  0  0  0  0  0  0  0  0
    2.2903   -3.3306    2.2565 O   0  5  0  0  0  0  0  0  0  0  0  0
    3.7694   -2.4585    0.7515 O   0  0  0  0  0  0  0  0  0  0  0  0
   -0.0113   -2.6869    0.5854 H   0  0  0  0  0  0  0  0  0  0  0  0
    0.3596   -1.7873    2.8268 H   0  0  0  0  0  0  0  0  0  0  0  0
    2.5381   -0.4577    2.3553 H   0  0  0  0  0  0  0  0  0  0  0  0
    2.1601   -0.5870    0.6423 H   0  0  0  0  0  0  0  0  0  0  0  0
    0.8259    1.0058    2.9811 N   0  0  0  0  0  0  0  0  0  0  0  0
    0.5061    2.3537    3.3900 C   0  0  2  0  0  0  0  0  0  0  0  0
    1.8102    3.1318    3.5061 C   0  0  0  0  0  0  0  0  0  0  0  0
    2.9012    2.5911    3.6747 O   0  0  0  0  0  0  0  0  0  0  0  0
   -0.2538    2.3668    4.7072 C   0  0  0  0  0  0  0  0  0  0  0  0
    1.6996    0.6064    3.3110 H   0  0  0  0  0  0  0  0  0  0  0  0
   -0.1094    2.7879    2.5945 H   0  0  0  0  0  0  0  0  0  0  0  0
    0.3470    1.9355    5.5162 H   0  0  0  0  0  0  0  0  0  0  0  0
   -0.5204    3.3873    5.0013 H   0  0  0  0  0  0  0  0  0  0  0  0
   -1.1767    1.7819    4.6305 H   0  0  0  0  0  0  0  0  0  0  0  0
    1.6070    4.5033    3.4424 N   0  0  0  0  0  0  0  0  0  0  0  0
    2.6872    5.4568    3.5414 C   0  0  0  0  0  0  0  0  0  0  0  0
    0.6706    4.8628    3.2820 H   0  0  0  0  0  0  0  0  0  0  0  0
    2.8112    5.7637    4.5904 H   0  0  0  0  0  0  0  0  0  0  0  0
    3.6184    4.9944    3.1823 H   0  0  0  0  0  0  0  0  0  0  0  0
    2.4550    6.3389    2.9265 H   0  0  0  0  0  0  0  0  0  0  0  0
  1  3  1  0  0  0  0
  1  7  1  0  0  0  0
  1  2  2  0  0  0  0
 30 31  1  0  0  0  0
 31 39  1  0  0  0  0
 31 32  2  0  0  0  0
  8  9  1  0  0  0  0
  9 17  1  0  0  0  0
  9 10  2  0  0  0  0
 18 19  1  0  0  0  0
 19 29  1  0  0  0  0
 19 20  2  0  0  0  0
 21 22  1  0  0  0  0
 22 23  1  0  0  0  0
 22 24  2  0  0  0  0
 30 33  1  0  0  0  0
  8 11  1  0  0  0  0
 39 40  1  0  0  0  0
 18 21  1  0  0  0  0
 29 30  1  0  0  0  0
  7  8  1  0  0  0  0
 17 18  1  0  0  0  0
  3  4  1  0  0  0  0
  3  5  1  0  0  0  0
  3  6  1  0  0  0  0
 33 36  1  0  0  0  0
 33 37  1  0  0  0  0
 33 38  1  0  0  0  0
 11 14  1  0  0  0  0
 11 15  1  0  0  0  0
 11 16  1  0  0  0  0
 40 42  1  0  0  0  0
 40 43  1  0  0  0  0
 40 44  1  0  0  0  0
 21 27  1  0  0  0  0
 21 28  1  0  0  0  0
 30 35  1  0  0  0  0
  8 13  1  0  0  0  0
 18 26  1  0  0  0  0
 39 41  1  0  0  0  0
  7 12  1  0  0  0  0
 29 34  1  0  0  0  0
 17 25  1  0  0  0  0
M  CHG  1  23  -1
M  END
$$$$

  -OEChem-05262214473D

 44 43  0     1  0  0  0  0  0999 V2000
   -4.0256   -1.8030   -2.1581 C   0  0  0  0  0  0  0  0  0  0  0  0
   -3.7513   -2.6782   -2.9709 O   0  0  0  0  0  0  0  0  0  0  0  0
   -5.3491   -1.1169   -2.2339 C   0  0  0  0  0  0  0  0  0  0  0  0
   -5.3223   -0.2211   -2.8750 H   0  0  0  0  0  0  0  0  0  0  0  0
   -6.1322   -1.7605   -2.6658 H   0  0  0  0  0  0  0  0  0  0  0  0
   -5.7568   -0.7715   -1.2704 H   0  0  0  0  0  0  0  0  0  0  0  0
   -3.2124   -1.3578   -1.1289 N   0  0  0  0  0  0  0  0  0  0  0  0
   -1.8971   -1.8843   -0.8752 C   0  0  2  0  0  0  0  0  0  0  0  0
   -1.2676   -1.0599    0.2399 C   0  0  0  0  0  0  0  0  0  0  0  0
   -1.6270    0.0833    0.5138 O   0  0  0  0  0  0  0  0  0  0  0  0
   -1.0364   -1.8506   -2.1285 C   0  0  0  0  0  0  0  0  0  0  0  0
   -3.5631   -0.6202   -0.5206 H   0  0  0  0  0  0  0  0  0  0  0  0
   -2.0301   -2.9174   -0.5360 H   0  0  0  0  0  0  0  0  0  0  0  0
   -0.8921   -0.8236   -2.4833 H   0  0  0  0  0  0  0  0  0  0  0  0
   -0.0457   -2.2777   -1.9410 H   0  0  0  0  0  0  0  0  0  0  0  0
   -1.5052   -2.4193   -2.9387 H   0  0  0  0  0  0  0  0  0  0  0  0
   -0.2267   -1.7335    0.8672 N   0  0  0  0  0  0  0  0  0  0  0  0
    0.5363   -1.1590    1.9465 C   0  0  2  0  0  0  0  0  0  0  0  0
   -0.0266    0.2341    2.2039 C   0  0  0  0  0  0  0  0  0  0  0  0
   -1.2119    0.5182    2.0442 O   0  0  0  0  0  0  0  0  0  0  0  0
    2.0242   -1.0829    1.6122 C   0  0  0  0  0  0  0  0  0  0  0  0
    2.7722   -2.4193    1.5229 C   0  0  0  0  0  0  0  0  0  0  0  0
    2.2903   -3.3306    2.2565 O   0  5  0  0  0  0  0  0  0  0  0  0
    3.7694   -2.4585    0.7515 O   0  0  0  0  0  0  0  0  0  0  0  0
   -0.0113   -2.6869    0.5854 H   0  0  0  0  0  0  0  0  0  0  0  0
    0.3596   -1.7873    2.8268 H   0  0  0  0  0  0  0  0  0  0  0  0
    2.5381   -0.4577    2.3553 H   0  0  0  0  0  0  0  0  0  0  0  0
    2.1601   -0.5870    0.6423 H   0  0  0  0  0  0  0  0  0  0  0  0
    0.9404    1.1073    2.6822 N   0  0  0  0  0  0  0  0  0  0  0  0
    0.6514    2.4785    3.0321 C   0  0  2  0  0  0  0  0  0  0  0  0
    1.9014    3.3060    2.7629 C   0  0  0  0  0  0  0  0  0  0  0  0
    3.0296    2.8205    2.7144 O   0  0  0  0  0  0  0  0  0  0  0  0
    0.2219    2.5999    4.4859 C   0  0  0  0  0  0  0  0  0  0  0  0
    1.8878    0.7715    2.8287 H   0  0  0  0  0  0  0  0  0  0  0  0
   -0.1563    2.8103    2.3707 H   0  0  0  0  0  0  0  0  0  0  0  0
    1.0185    2.2720    5.1638 H   0  0  0  0  0  0  0  0  0  0  0  0
   -0.0242    3.6358    4.7418 H   0  0  0  0  0  0  0  0  0  0  0  0
   -0.6595    1.9808    4.6849 H   0  0  0  0  0  0  0  0  0  0  0  0
    1.6136    4.6568    2.6260 N   0  0  0  0  0  0  0  0  0  0  0  0
    2.6326    5.6497    2.3778 C   0  0  0  0  0  0  0  0  0  0  0  0
    0.6473    4.9679    2.6619 H   0  0  0  0  0  0  0  0  0  0  0  0
    2.9818    6.0646    3.3348 H   0  0  0  0  0  0  0  0  0  0  0  0
    3.4778    5.1837    1.8501 H   0  0  0  0  0  0  0  0  0  0  0  0
    2.2144    6.4573    1.7590 H   0  0  0  0  0  0  0  0  0  0  0  0
  1  3  1  0  0  0  0
  1  7  1  0  0  0  0
  1  2  2  0  0  0  0
 30 31  1  0  0  0  0
 31 39  1  0  0  0  0
 31 32  2  0  0  0  0
  8  9  1  0  0  0  0
  9 17  1  0  0  0  0
  9 10  2  0  0  0  0
 18 19  1  0  0  0  0
 19 29  1  0  0  0  0
 19 20  2  0  0  0  0
 21 22  1  0  0  0  0
 22 23  1  0  0  0  0
 22 24  2  0  0  0  0
 30 33  1  0  0  0  0
  8 11  1  0  0  0  0
 39 40  1  0  0  0  0
 18 21  1  0  0  0  0
 29 30  1  0  0  0  0
  7  8  1  0  0  0  0
 17 18  1  0  0  0  0
  3  4  1  0  0  0  0
  3  5  1  0  0  0  0
  3  6  1  0  0  0  0
 33 36  1  0  0  0  0
 33 37  1  0  0  0  0
 33 38  1  0  0  0  0
 11 14  1  0  0  0  0
 11 15  1  0  0  0  0
 11 16  1  0  0  0  0
 40 42  1  0  0  0  0
 40 43  1  0  0  0  0
 40 44  1  0  0  0  0
 21 27  1  0  0  0  0
 21 28  1  0  0  0  0
 30 35  1  0  0  0  0
  8 13  1  0  0  0  0
 18 26  1  0  0  0  0
 39 41  1  0  0  0  0
  7 12  1  0  0  0  0
 29 34  1  0  0  0  0
 17 25  1  0  0  0  0
M  CHG  1  23  -1
M  END
$$$$

  -OEChem-05262214473D

 44 43  0     1  0  0  0  0  0999 V2000
   -4.0256   -1.8030   -2.1581 C   0  0  0  0  0  0  0  0  0  0  0  0
   -3.7513   -2.6782   -2.9709 O   0  0  0  0  0  0  0  0  0  0  0  0
   -5.3491   -1.1169   -2.2339 C   0  0  0  0  0  0  0  0  0  0  0  0
   -5.3223   -0.2211   -2.8750 H   0  0  0  0  0  0  0  0  0  0  0  0
   -6.1322   -1.7605   -2.6658 H   0  0  0  0  0  0  0  0  0  0  0  0
   -5.7568   -0.7715   -1.2704 H   0  0  0  0  0  0  0  0  0  0  0  0
   -3.2124   -1.3578   -1.1289 N   0  0  0  0  0  0  0  0  0  0  0  0
   -1.8971   -1.8843   -0.8752 C   0  0  2  0  0  0  0  0  0  0  0  0
   -1.2676   -1.0599    0.2399 C   0  0  0  0  0  0  0  0  0  0  0  0
   -1.6270    0.0833    0.5138 O   0  0  0  0  0  0  0  0  0  0  0  0
   -1.0364   -1.8506   -2.1285 C   0  0  0  0  0  0  0  0  0  0  0  0
   -3.5631   -0.6202   -0.5206 H   0  0  0  0  0  0  0  0  0  0  0  0
   -2.0301   -2.9174   -0.5360 H   0  0  0  0  0  0  0  0  0  0  0  0
   -0.8921   -0.8236   -2.4833 H   0  0  0  0  0  0  0  0  0  0  0  0
   -0.0457   -2.2777   -1.9410 H   0  0  0  0  0  0  0  0  0  0  0  0
   -1.5052   -2.4193   -2.9387 H   0  0  0  0  0  0  0  0  0  0  0  0
   -0.2267   -1.7335    0.8672 N   0  0  0  0  0  0  0  0  0  0  0  0
    0.5363   -1.1590    1.9465 C   0  0  2  0  0  0  0  0  0  0  0  0
   -0.0266    0.2341    2.2039 C   0  0  0  0  0  0  0  0  0  0  0  0
   -1.2302    0.4623    2.3067 O   0  0  0  0  0  0  0  0  0  0  0  0
    2.0242   -1.0829    1.6122 C   0  0  0  0  0  0  0  0  0  0  0  0
    2.7722   -2.4193    1.5229 C   0  0  0  0  0  0  0  0  0  0  0  0
    2.2903   -3.3306    2.2565 O   0  5  0  0  0  0  0  0  0  0  0  0
    3.7694   -2.4585    0.7515 O   0  0  0  0  0  0  0  0  0  0  0  0
   -0.0113   -2.6869    0.5854 H   0  0  0  0  0  0  0  0  0  0  0  0
    0.3596   -1.7873    2.8268 H   0  0  0  0  0  0  0  0  0  0  0  0
    2.5381   -0.4577    2.3553 H   0  0  0  0  0  0  0  0  0  0  0  0
    2.1601   -0.5870    0.6423 H   0  0  0  0  0  0  0  0  0  0  0  0
    0.9758    1.1817    2.3567 N   0  0  0  0  0  0  0  0  0  0  0  0
    0.7017    2.5713    2.6402 C   0  0  2  0  0  0  0  0  0  0  0  0
    1.8061    3.4072    2.0069 C   0  0  0  0  0  0  0  0  0  0  0  0
    2.9166    2.9558    1.7346 O   0  0  0  0  0  0  0  0  0  0  0  0
    0.6189    2.8247    4.1374 C   0  0  0  0  0  0  0  0  0  0  0  0
    1.9482    0.8931    2.3026 H   0  0  0  0  0  0  0  0  0  0  0  0
   -0.2556    2.8084    2.1635 H   0  0  0  0  0  0  0  0  0  0  0  0
    1.5690    2.5926    4.6323 H   0  0  0  0  0  0  0  0  0  0  0  0
    0.3829    3.8726    4.3500 H   0  0  0  0  0  0  0  0  0  0  0  0
   -0.1558    2.2008    4.5960 H   0  0  0  0  0  0  0  0  0  0  0  0
    1.4201    4.7273    1.8212 N   0  0  0  0  0  0  0  0  0  0  0  0
    2.2961    5.7225    1.2483 C   0  0  0  0  0  0  0  0  0  0  0  0
    0.4736    5.0092    2.0584 H   0  0  0  0  0  0  0  0  0  0  0  0
    2.8365    6.2428    2.0528 H   0  0  0  0  0  0  0  0  0  0  0  0
    3.0185    5.2330    0.5785 H   0  0  0  0  0  0  0  0  0  0  0  0
    1.7006    6.4497    0.6769 H   0  0  0  0  0  0  0  0  0  0  0  0
  1  3  1  0  0  0  0
  1  7  1  0  0  0  0
  1  2  2  0  0  0  0
 30 31  1  0  0  0  0
 31 39  1  0  0  0  0
 31 32  2  0  0  0  0
  8  9  1  0  0  0  0
  9 17  1  0  0  0  0
  9 10  2  0  0  0  0
 18 19  1  0  0  0  0
 19 29  1  0  0  0  0
 19 20  2  0  0  0  0
 21 22  1  0  0  0  0
 22 23  1  0  0  0  0
 22 24  2  0  0  0  0
 30 33  1  0  0  0  0
  8 11  1  0  0  0  0
 39 40  1  0  0  0  0
 18 21  1  0  0  0  0
 29 30  1  0  0  0  0
  7  8  1  0  0  0  0
 17 18  1  0  0  0  0
  3  4  1  0  0  0  0
  3  5  1  0  0  0  0
  3  6  1  0  0  0  0
 33 36  1  0  0  0  0
 33 37  1  0  0  0  0
 33 38  1  0  0  0  0
 11 14  1  0  0  0  0
 11 15  1  0  0  0  0
 11 16  1  0  0  0  0
 40 42  1  0  0  0  0
 40 43  1  0  0  0  0
 40 44  1  0  0  0  0
 21 27  1  0  0  0  0
 21 28  1  0  0  0  0
 30 35  1  0  0  0  0
  8 13  1  0  0  0  0
 18 26  1  0  0  0  0
 39 41  1  0  0  0  0
  7 12  1  0  0  0  0
 29 34  1  0  0  0  0
 17 25  1  0  0  0  0
M  CHG  1  23  -1
M  END
$$$$

  -OEChem-05262214473D

 44 43  0     1  0  0  0  0  0999 V2000
   -4.0256   -1.8030   -2.1581 C   0  0  0  0  0  0  0  0  0  0  0  0
   -3.7513   -2.6782   -2.9709 O   0  0  0  0  0  0  0  0  0  0  0  0
   -5.3491   -1.1169   -2.2339 C   0  0  0  0  0  0  0  0  0  0  0  0
   -5.3223   -0.2211   -2.8750 H   0  0  0  0  0  0  0  0  0  0  0  0
   -6.1322   -1.7605   -2.6658 H   0  0  0  0  0  0  0  0  0  0  0  0
   -5.7568   -0.7715   -1.2704 H   0  0  0  0  0  0  0  0  0  0  0  0
   -3.2124   -1.3578   -1.1289 N   0  0  0  0  0  0  0  0  0  0  0  0
   -1.8971   -1.8843   -0.8752 C   0  0  2  0  0  0  0  0  0  0  0  0
   -1.2676   -1.0599    0.2399 C   0  0  0  0  0  0  0  0  0  0  0  0
   -1.6270    0.0833    0.5138 O   0  0  0  0  0  0  0  0  0  0  0  0
   -1.0364   -1.8506   -2.1285 C   0  0  0  0  0  0  0  0  0  0  0  0
   -3.5631   -0.6202   -0.5206 H   0  0  0  0  0  0  0  0  0  0  0  0
   -2.0301   -2.9174   -0.5360 H   0  0  0  0  0  0  0  0  0  0  0  0
   -0.8921   -0.8236   -2.4833 H   0  0  0  0  0  0  0  0  0  0  0  0
   -0.0457   -2.2777   -1.9410 H   0  0  0  0  0  0  0  0  0  0  0  0
   -1.5052   -2.4193   -2.9387 H   0  0  0  0  0  0  0  0  0  0  0  0
   -0.2267   -1.7335    0.8672 N   0  0  0  0  0  0  0  0  0  0  0  0
    0.5363   -1.1590    1.9465 C   0  0  2  0  0  0  0  0  0  0  0  0
   -0.0266    0.2341    2.2039 C   0  0  0  0  0  0  0  0  0  0  0  0
   -1.1832    0.4327    2.5700 O   0  0  0  0  0  0  0  0  0  0  0  0
    2.0242   -1.0829    1.6122 C   0  0  0  0  0  0  0  0  0  0  0  0
    2.7722   -2.4193    1.5229 C   0  0  0  0  0  0  0  0  0  0  0  0
    2.2903   -3.3306    2.2565 O   0  5  0  0  0  0  0  0  0  0  0  0
    3.7694   -2.4585    0.7515 O   0  0  0  0  0  0  0  0  0  0  0  0
   -0.0113   -2.6869    0.5854 H   0  0  0  0  0  0  0  0  0  0  0  0
    0.3596   -1.7873    2.8268 H   0  0  0  0  0  0  0  0  0  0  0  0
    2.5381   -0.4577    2.3553 H   0  0  0  0  0  0  0  0  0  0  0  0
    2.1601   -0.5870    0.6423 H   0  0  0  0  0  0  0  0  0  0  0  0
    0.9298    1.2241    2.0269 N   0  0  0  0  0  0  0  0  0  0  0  0
    0.6535    2.6256    2.2409 C   0  0  2  0  0  0  0  0  0  0  0  0
    1.5308    3.4285    1.2894 C   0  0  0  0  0  0  0  0  0  0  0  0
    2.5697    2.9880    0.8019 O   0  0  0  0  0  0  0  0  0  0  0  0
    0.9101    3.0259    3.6854 C   0  0  0  0  0  0  0  0  0  0  0  0
    1.8769    0.9630    1.7686 H   0  0  0  0  0  0  0  0  0  0  0  0
   -0.4005    2.7825    1.9870 H   0  0  0  0  0  0  0  0  0  0  0  0
    1.9611    2.8756    3.9581 H   0  0  0  0  0  0  0  0  0  0  0  0
    0.6730    4.0818    3.8526 H   0  0  0  0  0  0  0  0  0  0  0  0
    0.3002    2.4268    4.3701 H   0  0  0  0  0  0  0  0  0  0  0  0
    1.0398    4.7101    1.0828 N   0  0  0  0  0  0  0  0  0  0  0  0
    1.7008    5.6701    0.2300 C   0  0  0  0  0  0  0  0  0  0  0  0
    0.1611    4.9838    1.5126 H   0  0  0  0  0  0  0  0  0  0  0  0
    2.3852    6.2860    0.8319 H   0  0  0  0  0  0  0  0  0  0  0  0
    2.2719    5.1391   -0.5459 H   0  0  0  0  0  0  0  0  0  0  0  0
    0.9488    6.3164   -0.2461 H   0  0  0  0  0  0  0  0  0  0  0  0
  1  3  1  0  0  0  0
  1  7  1  0  0  0  0
  1  2  2  0  0  0  0
 30 31  1  0  0  0  0
 31 39  1  0  0  0  0
 31 32  2  0  0  0  0
  8  9  1  0  0  0  0
  9 17  1  0  0  0  0
  9 10  2  0  0  0  0
 18 19  1  0  0  0  0
 19 29  1  0  0  0  0
 19 20  2  0  0  0  0
 21 22  1  0  0  0  0
 22 23  1  0  0  0  0
 22 24  2  0  0  0  0
 30 33  1  0  0  0  0
  8 11  1  0  0  0  0
 39 40  1  0  0  0  0
 18 21  1  0  0  0  0
 29 30  1  0  0  0  0
  7  8  1  0  0  0  0
 17 18  1  0  0  0  0
  3  4  1  0  0  0  0
  3  5  1  0  0  0  0
  3  6  1  0  0  0  0
 33 36  1  0  0  0  0
 33 37  1  0  0  0  0
 33 38  1  0  0  0  0
 11 14  1  0  0  0  0
 11 15  1  0  0  0  0
 11 16  1  0  0  0  0
 40 42  1  0  0  0  0
 40 43  1  0  0  0  0
 40 44  1  0  0  0  0
 21 27  1  0  0  0  0
 21 28  1  0  0  0  0
 30 35  1  0  0  0  0
  8 13  1  0  0  0  0
 18 26  1  0  0  0  0
 39 41  1  0  0  0  0
  7 12  1  0  0  0  0
 29 34  1  0  0  0  0
 17 25  1  0  0  0  0
M  CHG  1  23  -1
M  END
$$$$

  -OEChem-05262214473D

 44 43  0     1  0  0  0  0  0999 V2000
   -4.0256   -1.8030   -2.1581 C   0  0  0  0  0  0  0  0  0  0  0  0
   -3.7513   -2.6782   -2.9709 O   0  0  0  0  0  0  0  0  0  0  0  0
   -5.3491   -1.1169   -2.2339 C   0  0  0  0  0  0  0  0  0  0  0  0
   -5.3223   -0.2211   -2.8750 H   0  0  0  0  0  0  0  0  0  0  0  0
   -6.1322   -1.7605   -2.6658 H   0  0  0  0  0  0  0  0  0  0  0  0
   -5.7568   -0.7715   -1.2704 H   0  0  0  0  0  0  0  0  0  0  0  0
   -3.2124   -1.3578   -1.1289 N   0  0  0  0  0  0  0  0  0  0  0  0
   -1.8971   -1.8843   -0.8752 C   0  0  2  0  0  0  0  0  0  0  0  0
   -1.2676   -1.0599    0.2399 C   0  0  0  0  0  0  0  0  0  0  0  0
   -1.6270    0.0833    0.5138 O   0  0  0  0  0  0  0  0  0  0  0  0
   -1.0364   -1.8506   -2.1285 C   0  0  0  0  0  0  0  0  0  0  0  0
   -3.5631   -0.6202   -0.5206 H   0  0  0  0  0  0  0  0  0  0  0  0
   -2.0301   -2.9174   -0.5360 H   0  0  0  0  0  0  0  0  0  0  0  0
   -0.8921   -0.8236   -2.4833 H   0  0  0  0  0  0  0  0  0  0  0  0
   -0.0457   -2.2777   -1.9410 H   0  0  0  0  0  0  0  0  0  0  0  0
   -1.5052   -2.4193   -2.9387 H   0  0  0  0  0  0  0  0  0  0  0  0
   -0.2267   -1.7335    0.8672 N   0  0  0  0  0  0  0  0  0  0  0  0
    0.5363   -1.1590    1.9465 C   0  0  2  0  0  0  0  0  0  0  0  0
   -0.0266    0.2341    2.2039 C   0  0  0  0  0  0  0  0  0  0  0  0
   -1.0743    0.4312    2.8159 O   0  0  0  0  0  0  0  0  0  0  0  0
    2.0242   -1.0829    1.6122 C   0  0  0  0  0  0  0  0  0  0  0  0
    2.7722   -2.4193    1.5229 C   0  0  0  0  0  0  0  0  0  0  0  0
    2.2903   -3.3306    2.2565 O   0  5  0  0  0  0  0  0  0  0  0  0
    3.7694   -2.4585    0.7515 O   0  0  0  0  0  0  0  0  0  0  0  0
   -0.0113   -2.6869    0.5854 H   0  0  0  0  0  0  0  0  0  0  0  0
    0.3596   -1.7873    2.8268 H   0  0  0  0  0  0  0  0  0  0  0  0
    2.5381   -0.4577    2.3553 H   0  0  0  0  0  0  0  0  0  0  0  0
    2.1601   -0.5870    0.6423 H   0  0  0  0  0  0  0  0  0  0  0  0
    0.8055    1.2315    1.7151 N   0  0  0  0  0  0  0  0  0  0  0  0
    0.5102    2.6378    1.8613 C   0  0  2  0  0  0  0  0  0  0  0  0
    1.0943    3.3685    0.6595 C   0  0  0  0  0  0  0  0  0  0  0  0
    2.0127    2.9148   -0.0200 O   0  0  0  0  0  0  0  0  0  0  0  0
    1.0757    3.1898    3.1606 C   0  0  0  0  0  0  0  0  0  0  0  0
    1.6786    0.9763    1.2629 H   0  0  0  0  0  0  0  0  0  0  0  0
   -0.5810    2.7343    1.8532 H   0  0  0  0  0  0  0  0  0  0  0  0
    2.1680    3.1017    3.1871 H   0  0  0  0  0  0  0  0  0  0  0  0
    0.8265    4.2489    3.2836 H   0  0  0  0  0  0  0  0  0  0  0  0
    0.6773    2.6434    4.0223 H   0  0  0  0  0  0  0  0  0  0  0  0
    0.4986    4.6062    0.4612 N   0  0  0  0  0  0  0  0  0  0  0  0
    0.8872    5.4962   -0.6079 C   0  0  0  0  0  0  0  0  0  0  0  0
   -0.2686    4.8935    1.0617 H   0  0  0  0  0  0  0  0  0  0  0  0
    1.6586    6.1914   -0.2448 H   0  0  0  0  0  0  0  0  0  0  0  0
    1.2890    4.9084   -1.4464 H   0  0  0  0  0  0  0  0  0  0  0  0
    0.0100    6.0666   -0.9471 H   0  0  0  0  0  0  0  0  0  0  0  0
  1  3  1  0  0  0  0
  1  7  1  0  0  0  0
  1  2  2  0  0  0  0
 30 31  1  0  0  0  0
 31 39  1  0  0  0  0
 31 32  2  0  0  0  0
  8  9  1  0  0  0  0
  9 17  1  0  0  0  0
  9 10  2  0  0  0  0
 18 19  1  0  0  0  0
 19 29  1  0  0  0  0
 19 20  2  0  0  0  0
 21 22  1  0  0  0  0
 22 23  1  0  0  0  0
 22 24  2  0  0  0  0
 30 33  1  0  0  0  0
  8 11  1  0  0  0  0
 39 40  1  0  0  0  0
 18 21  1  0  0  0  0
 29 30  1  0  0  0  0
  7  8  1  0  0  0  0
 17 18  1  0  0  0  0
  3  4  1  0  0  0  0
  3  5  1  0  0  0  0
  3  6  1  0  0  0  0
 33 36  1  0  0  0  0
 33 37  1  0  0  0  0
 33 38  1  0  0  0  0
 11 14  1  0  0  0  0
 11 15  1  0  0  0  0
 11 16  1  0  0  0  0
 40 42  1  0  0  0  0
 40 43  1  0  0  0  0
 40 44  1  0  0  0  0
 21 27  1  0  0  0  0
 21 28  1  0  0  0  0
 30 35  1  0  0  0  0
  8 13  1  0  0  0  0
 18 26  1  0  0  0  0
 39 41  1  0  0  0  0
  7 12  1  0  0  0  0
 29 34  1  0  0  0  0
 17 25  1  0  0  0  0
M  CHG  1  23  -1
M  END
$$$$

  -OEChem-05262214473D

 44 43  0     1  0  0  0  0  0999 V2000
   -4.0256   -1.8030   -2.1581 C   0  0  0  0  0  0  0  0  0  0  0  0
   -3.7513   -2.6782   -2.9709 O   0  0  0  0  0  0  0  0  0  0  0  0
   -5.3491   -1.1169   -2.2339 C   0  0  0  0  0  0  0  0  0  0  0  0
   -5.3223   -0.2211   -2.8750 H   0  0  0  0  0  0  0  0  0  0  0  0
   -6.1322   -1.7605   -2.6658 H   0  0  0  0  0  0  0  0  0  0  0  0
   -5.7568   -0.7715   -1.2704 H   0  0  0  0  0  0  0  0  0  0  0  0
   -3.2124   -1.3578   -1.1289 N   0  0  0  0  0  0  0  0  0  0  0  0
   -1.8971   -1.8843   -0.8752 C   0  0  2  0  0  0  0  0  0  0  0  0
   -1.2676   -1.0599    0.2399 C   0  0  0  0  0  0  0  0  0  0  0  0
   -1.6270    0.0833    0.5138 O   0  0  0  0  0  0  0  0  0  0  0  0
   -1.0364   -1.8506   -2.1285 C   0  0  0  0  0  0  0  0  0  0  0  0
   -3.5631   -0.6202   -0.5206 H   0  0  0  0  0  0  0  0  0  0  0  0
   -2.0301   -2.9174   -0.5360 H   0  0  0  0  0  0  0  0  0  0  0  0
   -0.8921   -0.8236   -2.4833 H   0  0  0  0  0  0  0  0  0  0  0  0
   -0.0457   -2.2777   -1.9410 H   0  0  0  0  0  0  0  0  0  0  0  0
   -1.5052   -2.4193   -2.9387 H   0  0  0  0  0  0  0  0  0  0  0  0
   -0.2267   -1.7335    0.8672 N   0  0  0  0  0  0  0  0  0  0  0  0
    0.5363   -1.1590    1.9465 C   0  0  2  0  0  0  0  0  0  0  0  0
   -0.0266    0.2341    2.2039 C   0  0  0  0  0  0  0  0  0  0  0  0
   -0.9109    0.4581    3.0279 O   0  0  0  0  0  0  0  0  0  0  0  0
    2.0242   -1.0829    1.6122 C   0  0  0  0  0  0  0  0  0  0  0  0
    2.7722   -2.4193    1.5229 C   0  0  0  0  0  0  0  0  0  0  0  0
    2.2903   -3.3306    2.2565 O   0  5  0  0  0  0  0  0  0  0  0  0
    3.7694   -2.4585    0.7515 O   0  0  0  0  0  0  0  0  0  0  0  0
   -0.0113   -2.6869    0.5854 H   0  0  0  0  0  0  0  0  0  0  0  0
    0.3596   -1.7873    2.8268 H   0  0  0  0  0  0  0  0  0  0  0  0
    2.5381   -0.4577    2.3553 H   0  0  0  0  0  0  0  0  0  0  0  0
    2.1601   -0.5870    0.6423 H   0  0  0  0  0  0  0  0  0  0  0  0
    0.6114    1.2034    1.4426 N   0  0  0  0  0  0  0  0  0  0  0  0
    0.2814    2.6070    1.5275 C   0  0  2  0  0  0  0  0  0  0  0  0
    0.5263    3.2313    0.1601 C   0  0  0  0  0  0  0  0  0  0  0  0
    1.2834    2.7412   -0.6752 O   0  0  0  0  0  0  0  0  0  0  0  0
    1.1044    3.3051    2.5990 C   0  0  0  0  0  0  0  0  0  0  0  0
    1.3669    0.9322    0.8200 H   0  0  0  0  0  0  0  0  0  0  0  0
   -0.7849    2.6670    1.7713 H   0  0  0  0  0  0  0  0  0  0  0  0
    2.1756    3.2554    2.3719 H   0  0  0  0  0  0  0  0  0  0  0  0
    0.8328    4.3627    2.6817 H   0  0  0  0  0  0  0  0  0  0  0  0
    0.9498    2.8359    3.5766 H   0  0  0  0  0  0  0  0  0  0  0  0
   -0.1667    4.4229   -0.0013 N   0  0  0  0  0  0  0  0  0  0  0  0
   -0.0892    5.2125   -1.2081 C   0  0  0  0  0  0  0  0  0  0  0  0
   -0.7864    4.7444    0.7364 H   0  0  0  0  0  0  0  0  0  0  0  0
    0.7061    5.9653   -1.1040 H   0  0  0  0  0  0  0  0  0  0  0  0
    0.1366    4.5564   -2.0617 H   0  0  0  0  0  0  0  0  0  0  0  0
   -1.0516    5.7173   -1.3783 H   0  0  0  0  0  0  0  0  0  0  0  0
  1  3  1  0  0  0  0
  1  7  1  0  0  0  0
  1  2  2  0  0  0  0
 30 31  1  0  0  0  0
 31 39  1  0  0  0  0
 31 32  2  0  0  0  0
  8  9  1  0  0  0  0
  9 17  1  0  0  0  0
  9 10  2  0  0  0  0
 18 19  1  0  0  0  0
 19 29  1  0  0  0  0
 19 20  2  0  0  0  0
 21 22  1  0  0  0  0
 22 23  1  0  0  0  0
 22 24  2  0  0  0  0
 30 33  1  0  0  0  0
  8 11  1  0  0  0  0
 39 40  1  0  0  0  0
 18 21  1  0  0  0  0
 29 30  1  0  0  0  0
  7  8  1  0  0  0  0
 17 18  1  0  0  0  0
  3  4  1  0  0  0  0
  3  5  1  0  0  0  0
  3  6  1  0  0  0  0
 33 36  1  0  0  0  0
 33 37  1  0  0  0  0
 33 38  1  0  0  0  0
 11 14  1  0  0  0  0
 11 15  1  0  0  0  0
 11 16  1  0  0  0  0
 40 42  1  0  0  0  0
 40 43  1  0  0  0  0
 40 44  1  0  0  0  0
 21 27  1  0  0  0  0
 21 28  1  0  0  0  0
 30 35  1  0  0  0  0
  8 13  1  0  0  0  0
 18 26  1  0  0  0  0
 39 41  1  0  0  0  0
  7 12  1  0  0  0  0
 29 34  1  0  0  0  0
 17 25  1  0  0  0  0
M  CHG  1  23  -1
M  END
$$$$

  -OEChem-05262214473D

 44 43  0     1  0  0  0  0  0999 V2000
   -4.0256   -1.8030   -2.1581 C   0  0  0  0  0  0  0  0  0  0  0  0
   -3.7513   -2.6782   -2.9709 O   0  0  0  0  0  0  0  0  0  0  0  0
   -5.3491   -1.1169   -2.2339 C   0  0  0  0  0  0  0  0  0  0  0  0
   -5.3223   -0.2211   -2.8750 H   0  0  0  0  0  0  0  0  0  0  0  0
   -6.1322   -1.7605   -2.6658 H   0  0  0  0  0  0  0  0  0  0  0  0
   -5.7568   -0.7715   -1.2704 H   0  0  0  0  0  0  0  0  0  0  0  0
   -3.2124   -1.3578   -1.1289 N   0  0  0  0  0  0  0  0  0  0  0  0
   -1.8971   -1.8843   -0.8752 C   0  0  2  0  0  0  0  0  0  0  0  0
   -1.2676   -1.0599    0.2399 C   0  0  0  0  0  0  0  0  0  0  0  0
   -1.6270    0.0833    0.5138 O   0  0  0  0  0  0  0  0  0  0  0  0
   -1.0364   -1.8506   -2.1285 C   0  0  0  0  0  0  0  0  0  0  0  0
   -3.5631   -0.6202   -0.5206 H   0  0  0  0  0  0  0  0  0  0  0  0
   -2.0301   -2.9174   -0.5360 H   0  0  0  0  0  0  0  0  0  0  0  0
   -0.8921   -0.8236   -2.4833 H   0  0  0  0  0  0  0  0  0  0  0  0
   -0.0457   -2.2777   -1.9410 H   0  0  0  0  0  0  0  0  0  0  0  0
   -1.5052   -2.4193   -2.9387 H   0  0  0  0  0  0  0  0  0  0  0  0
   -0.2267   -1.7335    0.8672 N   0  0  0  0  0  0  0  0  0  0  0  0
    0.5363   -1.1590    1.9465 C   0  0  2  0  0  0  0  0  0  0  0  0
   -0.0266    0.2341    2.2039 C   0  0  0  0  0  0  0  0  0  0  0  0
   -0.7041    0.5114    3.1914 O   0  0  0  0  0  0  0  0  0  0  0  0
    2.0242   -1.0829    1.6122 C   0  0  0  0  0  0  0  0  0  0  0  0
    2.7722   -2.4193    1.5229 C   0  0  0  0  0  0  0  0  0  0  0  0
    2.2903   -3.3306    2.2565 O   0  5  0  0  0  0  0  0  0  0  0  0
    3.7694   -2.4585    0.7515 O   0  0  0  0  0  0  0  0  0  0  0  0
   -0.0113   -2.6869    0.5854 H   0  0  0  0  0  0  0  0  0  0  0  0
    0.3596   -1.7873    2.8268 H   0  0  0  0  0  0  0  0  0  0  0  0
    2.5381   -0.4577    2.3553 H   0  0  0  0  0  0  0  0  0  0  0  0
    2.1601   -0.5870    0.6423 H   0  0  0  0  0  0  0  0  0  0  0  0
    0.3607    1.1417    1.2280 N   0  0  0  0  0  0  0  0  0  0  0  0
   -0.0172    2.5354    1.2621 C   0  0  2  0  0  0  0  0  0  0  0  0
   -0.1345    3.0262   -0.1749 C   0  0  0  0  0  0  0  0  0  0  0  0
    0.4316    2.4790   -1.1189 O   0  0  0  0  0  0  0  0  0  0  0  0
    0.9942    3.3641    2.0386 C   0  0  0  0  0  0  0  0  0  0  0  0
    0.9629    0.8336    0.4703 H   0  0  0  0  0  0  0  0  0  0  0  0
   -0.9983    2.5853    1.7469 H   0  0  0  0  0  0  0  0  0  0  0  0
    1.9834    3.3263    1.5679 H   0  0  0  0  0  0  0  0  0  0  0  0
    0.6916    4.4154    2.0879 H   0  0  0  0  0  0  0  0  0  0  0  0
    1.0992    2.9911    3.0631 H   0  0  0  0  0  0  0  0  0  0  0  0
   -0.9107    4.1725   -0.2732 N   0  0  0  0  0  0  0  0  0  0  0  0
   -1.1620    4.8385   -1.5299 C   0  0  0  0  0  0  0  0  0  0  0  0
   -1.3570    4.5466    0.5590 H   0  0  0  0  0  0  0  0  0  0  0  0
   -0.4072    5.6231   -1.6869 H   0  0  0  0  0  0  0  0  0  0  0  0
   -1.1066    4.1073   -2.3498 H   0  0  0  0  0  0  0  0  0  0  0  0
   -2.1638    5.2923   -1.5103 H   0  0  0  0  0  0  0  0  0  0  0  0
  1  3  1  0  0  0  0
  1  7  1  0  0  0  0
  1  2  2  0  0  0  0
 30 31  1  0  0  0  0
 31 39  1  0  0  0  0
 31 32  2  0  0  0  0
  8  9  1  0  0  0  0
  9 17  1  0  0  0  0
  9 10  2  0  0  0  0
 18 19  1  0  0  0  0
 19 29  1  0  0  0  0
 19 20  2  0  0  0  0
 21 22  1  0  0  0  0
 22 23  1  0  0  0  0
 22 24  2  0  0  0  0
 30 33  1  0  0  0  0
  8 11  1  0  0  0  0
 39 40  1  0  0  0  0
 18 21  1  0  0  0  0
 29 30  1  0  0  0  0
  7  8  1  0  0  0  0
 17 18  1  0  0  0  0
  3  4  1  0  0  0  0
  3  5  1  0  0  0  0
  3  6  1  0  0  0  0
 33 36  1  0  0  0  0
 33 37  1  0  0  0  0
 33 38  1  0  0  0  0
 11 14  1  0  0  0  0
 11 15  1  0  0  0  0
 11 16  1  0  0  0  0
 40 42  1  0  0  0  0
 40 43  1  0  0  0  0
 40 44  1  0  0  0  0
 21 27  1  0  0  0  0
 21 28  1  0  0  0  0
 30 35  1  0  0  0  0
  8 13  1  0  0  0  0
 18 26  1  0  0  0  0
 39 41  1  0  0  0  0
  7 12  1  0  0  0  0
 29 34  1  0  0  0  0
 17 25  1  0  0  0  0
M  CHG  1  23  -1
M  END
$$$$

  -OEChem-05262214473D

 44 43  0     1  0  0  0  0  0999 V2000
   -4.0256   -1.8030   -2.1581 C   0  0  0  0  0  0  0  0  0  0  0  0
   -3.7513   -2.6782   -2.9709 O   0  0  0  0  0  0  0  0  0  0  0  0
   -5.3491   -1.1169   -2.2339 C   0  0  0  0  0  0  0  0  0  0  0  0
   -5.3223   -0.2211   -2.8750 H   0  0  0  0  0  0  0  0  0  0  0  0
   -6.1322   -1.7605   -2.6658 H   0  0  0  0  0  0  0  0  0  0  0  0
   -5.7568   -0.7715   -1.2704 H   0  0  0  0  0  0  0  0  0  0  0  0
   -3.2124   -1.3578   -1.1289 N   0  0  0  0  0  0  0  0  0  0  0  0
   -1.8971   -1.8843   -0.8752 C   0  0  2  0  0  0  0  0  0  0  0  0
   -1.2676   -1.0599    0.2399 C   0  0  0  0  0  0  0  0  0  0  0  0
   -1.6270    0.0833    0.5138 O   0  0  0  0  0  0  0  0  0  0  0  0
   -1.0364   -1.8506   -2.1285 C   0  0  0  0  0  0  0  0  0  0  0  0
   -3.5631   -0.6202   -0.5206 H   0  0  0  0  0  0  0  0  0  0  0  0
   -2.0301   -2.9174   -0.5360 H   0  0  0  0  0  0  0  0  0  0  0  0
   -0.8921   -0.8236   -2.4833 H   0  0  0  0  0  0  0  0  0  0  0  0
   -0.0457   -2.2777   -1.9410 H   0  0  0  0  0  0  0  0  0  0  0  0
   -1.5052   -2.4193   -2.9387 H   0  0  0  0  0  0  0  0  0  0  0  0
   -0.2267   -1.7335    0.8672 N   0  0  0  0  0  0  0  0  0  0  0  0
    0.5363   -1.1590    1.9465 C   0  0  2  0  0  0  0  0  0  0  0  0
   -0.0266    0.2341    2.2039 C   0  0  0  0  0  0  0  0  0  0  0  0
   -0.4680    0.5876    3.2954 O   0  0  0  0  0  0  0  0  0  0  0  0
    2.0242   -1.0829    1.6122 C   0  0  0  0  0  0  0  0  0  0  0  0
    2.7722   -2.4193    1.5229 C   0  0  0  0  0  0  0  0  0  0  0  0
    2.2903   -3.3306    2.2565 O   0  5  0  0  0  0  0  0  0  0  0  0
    3.7694   -2.4585    0.7515 O   0  0  0  0  0  0  0  0  0  0  0  0
   -0.0113   -2.6869    0.5854 H   0  0  0  0  0  0  0  0  0  0  0  0
    0.3596   -1.7873    2.8268 H   0  0  0  0  0  0  0  0  0  0  0  0
    2.5381   -0.4577    2.3553 H   0  0  0  0  0  0  0  0  0  0  0  0
    2.1601   -0.5870    0.6423 H   0  0  0  0  0  0  0  0  0  0  0  0
    0.0704    1.0507    1.0859 N   0  0  0  0  0  0  0  0  0  0  0  0
   -0.3653    2.4278    1.0831 C   0  0  2  0  0  0  0  0  0  0  0  0
   -0.8430    2.7672   -0.3226 C   0  0  0  0  0  0  0  0  0  0  0  0
   -0.4847    2.1461   -1.3210 O   0  0  0  0  0  0  0  0  0  0  0  0
    0.7526    3.3628    1.5178 C   0  0  0  0  0  0  0  0  0  0  0  0
    0.4944    0.6873    0.2373 H   0  0  0  0  0  0  0  0  0  0  0  0
   -1.2066    2.4948    1.7815 H   0  0  0  0  0  0  0  0  0  0  0  0
    1.6044    3.3095    0.8300 H   0  0  0  0  0  0  0  0  0  0  0  0
    0.4125    4.4033    1.5427 H   0  0  0  0  0  0  0  0  0  0  0  0
    1.1153    3.0985    2.5170 H   0  0  0  0  0  0  0  0  0  0  0  0
   -1.6827    3.8721   -0.3359 N   0  0  0  0  0  0  0  0  0  0  0  0
   -2.2579    4.3996   -1.5512 C   0  0  0  0  0  0  0  0  0  0  0  0
   -1.9415    4.3137    0.5415 H   0  0  0  0  0  0  0  0  0  0  0  0
   -1.6054    5.1883   -1.9540 H   0  0  0  0  0  0  0  0  0  0  0  0
   -2.3560    3.5916   -2.2911 H   0  0  0  0  0  0  0  0  0  0  0  0
   -3.2507    4.8206   -1.3342 H   0  0  0  0  0  0  0  0  0  0  0  0
  1  3  1  0  0  0  0
  1  7  1  0  0  0  0
  1  2  2  0  0  0  0
 30 31  1  0  0  0  0
 31 39  1  0  0  0  0
 31 32  2  0  0  0  0
  8  9  1  0  0  0  0
  9 17  1  0  0  0  0
  9 10  2  0  0  0  0
 18 19  1  0  0  0  0
 19 29  1  0  0  0  0
 19 20  2  0  0  0  0
 21 22  1  0  0  0  0
 22 23  1  0  0  0  0
 22 24  2  0  0  0  0
 30 33  1  0  0  0  0
  8 11  1  0  0  0  0
 39 40  1  0  0  0  0
 18 21  1  0  0  0  0
 29 30  1  0  0  0  0
  7  8  1  0  0  0  0
 17 18  1  0  0  0  0
  3  4  1  0  0  0  0
  3  5  1  0  0  0  0
  3  6  1  0  0  0  0
 33 36  1  0  0  0  0
 33 37  1  0  0  0  0
 33 38  1  0  0  0  0
 11 14  1  0  0  0  0
 11 15  1  0  0  0  0
 11 16  1  0  0  0  0
 40 42  1  0  0  0  0
 40 43  1  0  0  0  0
 40 44  1  0  0  0  0
 21 27  1  0  0  0  0
 21 28  1  0  0  0  0
 30 35  1  0  0  0  0
  8 13  1  0  0  0  0
 18 26  1  0  0  0  0
 39 41  1  0  0  0  0
  7 12  1  0  0  0  0
 29 34  1  0  0  0  0
 17 25  1  0  0  0  0
M  CHG  1  23  -1
M  END
$$$$

  -OEChem-05262214473D

 44 43  0     1  0  0  0  0  0999 V2000
   -4.0256   -1.8030   -2.1581 C   0  0  0  0  0  0  0  0  0  0  0  0
   -3.7513   -2.6782   -2.9709 O   0  0  0  0  0  0  0  0  0  0  0  0
   -5.3491   -1.1169   -2.2339 C   0  0  0  0  0  0  0  0  0  0  0  0
   -5.3223   -0.2211   -2.8750 H   0  0  0  0  0  0  0  0  0  0  0  0
   -6.1322   -1.7605   -2.6658 H   0  0  0  0  0  0  0  0  0  0  0  0
   -5.7568   -0.7715   -1.2704 H   0  0  0  0  0  0  0  0  0  0  0  0
   -3.2124   -1.3578   -1.1289 N   0  0  0  0  0  0  0  0  0  0  0  0
   -1.8971   -1.8843   -0.8752 C   0  0  2  0  0  0  0  0  0  0  0  0
   -1.2676   -1.0599    0.2399 C   0  0  0  0  0  0  0  0  0  0  0  0
   -1.6270    0.0833    0.5138 O   0  0  0  0  0  0  0  0  0  0  0  0
   -1.0364   -1.8506   -2.1285 C   0  0  0  0  0  0  0  0  0  0  0  0
   -3.5631   -0.6202   -0.5206 H   0  0  0  0  0  0  0  0  0  0  0  0
   -2.0301   -2.9174   -0.5360 H   0  0  0  0  0  0  0  0  0  0  0  0
   -0.8921   -0.8236   -2.4833 H   0  0  0  0  0  0  0  0  0  0  0  0
   -0.0457   -2.2777   -1.9410 H   0  0  0  0  0  0  0  0  0  0  0  0
   -1.5052   -2.4193   -2.9387 H   0  0  0  0  0  0  0  0  0  0  0  0
   -0.2267   -1.7335    0.8672 N   0  0  0  0  0  0  0  0  0  0  0  0
    0.5363   -1.1590    1.9465 C   0  0  2  0  0  0  0  0  0  0  0  0
   -0.0266    0.2341    2.2039 C   0  0  0  0  0  0  0  0  0  0  0  0
   -0.2187    0.6815    3.3327 O   0  0  0  0  0  0  0  0  0  0  0  0
    2.0242   -1.0829    1.6122 C   0  0  0  0  0  0  0  0  0  0  0  0
    2.7722   -2.4193    1.5229 C   0  0  0  0  0  0  0  0  0  0  0  0
    2.2903   -3.3306    2.2565 O   0  5  0  0  0  0  0  0  0  0  0  0
    3.7694   -2.4585    0.7515 O   0  0  0  0  0  0  0  0  0  0  0  0
   -0.0113   -2.6869    0.5854 H   0  0  0  0  0  0  0  0  0  0  0  0
    0.3596   -1.7873    2.8268 H   0  0  0  0  0  0  0  0  0  0  0  0
    2.5381   -0.4577    2.3553 H   0  0  0  0  0  0  0  0  0  0  0  0
    2.1601   -0.5870    0.6423 H   0  0  0  0  0  0  0  0  0  0  0  0
   -0.2396    0.9365    1.0260 N   0  0  0  0  0  0  0  0  0  0  0  0
   -0.7391    2.2916    1.0029 C   0  0  2  0  0  0  0  0  0  0  0  0
   -1.5510    2.4719   -0.2729 C   0  0  0  0  0  0  0  0  0  0  0  0
   -1.4030    1.7652   -1.2677 O   0  0  0  0  0  0  0  0  0  0  0  0
    0.3962    3.3011    1.0720 C   0  0  0  0  0  0  0  0  0  0  0  0
   -0.0069    0.5032    0.1372 H   0  0  0  0  0  0  0  0  0  0  0  0
   -1.3957    2.4015    1.8729 H   0  0  0  0  0  0  0  0  0  0  0  0
    1.0646    3.2062    0.2085 H   0  0  0  0  0  0  0  0  0  0  0  0
    0.0144    4.3274    1.0832 H   0  0  0  0  0  0  0  0  0  0  0  0
    0.9970    3.1508    1.9754 H   0  0  0  0  0  0  0  0  0  0  0  0
   -2.4301    3.5423   -0.1852 N   0  0  0  0  0  0  0  0  0  0  0  0
   -3.3024    3.9258   -1.2706 C   0  0  0  0  0  0  0  0  0  0  0  0
   -2.5000    4.0615    0.6851 H   0  0  0  0  0  0  0  0  0  0  0  0
   -2.8071    4.6904   -1.8870 H   0  0  0  0  0  0  0  0  0  0  0  0
   -3.5264    3.0445   -1.8896 H   0  0  0  0  0  0  0  0  0  0  0  0
   -4.2383    4.3343   -0.8618 H   0  0  0  0  0  0  0  0  0  0  0  0
  1  3  1  0  0  0  0
  1  7  1  0  0  0  0
  1  2  2  0  0  0  0
 30 31  1  0  0  0  0
 31 39  1  0  0  0  0
 31 32  2  0  0  0  0
  8  9  1  0  0  0  0
  9 17  1  0  0  0  0
  9 10  2  0  0  0  0
 18 19  1  0  0  0  0
 19 29  1  0  0  0  0
 19 20  2  0  0  0  0
 21 22  1  0  0  0  0
 22 23  1  0  0  0  0
 22 24  2  0  0  0  0
 30 33  1  0  0  0  0
  8 11  1  0  0  0  0
 39 40  1  0  0  0  0
 18 21  1  0  0  0  0
 29 30  1  0  0  0  0
  7  8  1  0  0  0  0
 17 18  1  0  0  0  0
  3  4  1  0  0  0  0
  3  5  1  0  0  0  0
  3  6  1  0  0  0  0
 33 36  1  0  0  0  0
 33 37  1  0  0  0  0
 33 38  1  0  0  0  0
 11 14  1  0  0  0  0
 11 15  1  0  0  0  0
 11 16  1  0  0  0  0
 40 42  1  0  0  0  0
 40 43  1  0  0  0  0
 40 44  1  0  0  0  0
 21 27  1  0  0  0  0
 21 28  1  0  0  0  0
 30 35  1  0  0  0  0
  8 13  1  0  0  0  0
 18 26  1  0  0  0  0
 39 41  1  0  0  0  0
  7 12  1  0  0  0  0
 29 34  1  0  0  0  0
 17 25  1  0  0  0  0
M  CHG  1  23  -1
M  END
$$$$

  -OEChem-05262214473D

 44 43  0     1  0  0  0  0  0999 V2000
   -4.0256   -1.8030   -2.1581 C   0  0  0  0  0  0  0  0  0  0  0  0
   -3.7513   -2.6782   -2.9709 O   0  0  0  0  0  0  0  0  0  0  0  0
   -5.3491   -1.1169   -2.2339 C   0  0  0  0  0  0  0  0  0  0  0  0
   -5.3223   -0.2211   -2.8750 H   0  0  0  0  0  0  0  0  0  0  0  0
   -6.1322   -1.7605   -2.6658 H   0  0  0  0  0  0  0  0  0  0  0  0
   -5.7568   -0.7715   -1.2704 H   0  0  0  0  0  0  0  0  0  0  0  0
   -3.2124   -1.3578   -1.1289 N   0  0  0  0  0  0  0  0  0  0  0  0
   -1.8971   -1.8843   -0.8752 C   0  0  2  0  0  0  0  0  0  0  0  0
   -1.2676   -1.0599    0.2399 C   0  0  0  0  0  0  0  0  0  0  0  0
   -1.6270    0.0833    0.5138 O   0  0  0  0  0  0  0  0  0  0  0  0
   -1.0364   -1.8506   -2.1285 C   0  0  0  0  0  0  0  0  0  0  0  0
   -3.5631   -0.6202   -0.5206 H   0  0  0  0  0  0  0  0  0  0  0  0
   -2.0301   -2.9174   -0.5360 H   0  0  0  0  0  0  0  0  0  0  0  0
   -0.8921   -0.8236   -2.4833 H   0  0  0  0  0  0  0  0  0  0  0  0
   -0.0457   -2.2777   -1.9410 H   0  0  0  0  0  0  0  0  0  0  0  0
   -1.5052   -2.4193   -2.9387 H   0  0  0  0  0  0  0  0  0  0  0  0
   -0.2267   -1.7335    0.8672 N   0  0  0  0  0  0  0  0  0  0  0  0
    0.5363   -1.1590    1.9465 C   0  0  2  0  0  0  0  0  0  0  0  0
   -0.0266    0.2341    2.2039 C   0  0  0  0  0  0  0  0  0  0  0  0
    0.0269    0.7866    3.3007 O   0  0  0  0  0  0  0  0  0  0  0  0
    2.0242   -1.0829    1.6122 C   0  0  0  0  0  0  0  0  0  0  0  0
    2.7722   -2.4193    1.5229 C   0  0  0  0  0  0  0  0  0  0  0  0
    2.2903   -3.3306    2.2565 O   0  5  0  0  0  0  0  0  0  0  0  0
    3.7694   -2.4585    0.7515 O   0  0  0  0  0  0  0  0  0  0  0  0
   -0.0113   -2.6869    0.5854 H   0  0  0  0  0  0  0  0  0  0  0  0
    0.3596   -1.7873    2.8268 H   0  0  0  0  0  0  0  0  0  0  0  0
    2.5381   -0.4577    2.3553 H   0  0  0  0  0  0  0  0  0  0  0  0
    2.1601   -0.5870    0.6423 H   0  0  0  0  0  0  0  0  0  0  0  0
   -0.5482    0.8069    1.0523 N   0  0  0  0  0  0  0  0  0  0  0  0
   -1.1132    2.1360    1.0269 C   0  0  2  0  0  0  0  0  0  0  0  0
   -2.2103    2.1605   -0.0292 C   0  0  0  0  0  0  0  0  0  0  0  0
   -2.2607    1.3622   -0.9626 O   0  0  0  0  0  0  0  0  0  0  0  0
   -0.0509    3.1834    0.7316 C   0  0  0  0  0  0  0  0  0  0  0  0
   -0.5068    0.2940    0.1766 H   0  0  0  0  0  0  0  0  0  0  0  0
   -1.5526    2.3118    2.0149 H   0  0  0  0  0  0  0  0  0  0  0  0
    0.4007    3.0235   -0.2543 H   0  0  0  0  0  0  0  0  0  0  0  0
   -0.4754    4.1927    0.7409 H   0  0  0  0  0  0  0  0  0  0  0  0
    0.7523    3.1443    1.4753 H   0  0  0  0  0  0  0  0  0  0  0  0
   -3.1020    3.2054    0.1687 N   0  0  0  0  0  0  0  0  0  0  0  0
   -4.2242    3.4492   -0.7072 C   0  0  0  0  0  0  0  0  0  0  0  0
   -2.9945    3.8072    0.9799 H   0  0  0  0  0  0  0  0  0  0  0  0
   -3.9301    4.1633   -1.4905 H   0  0  0  0  0  0  0  0  0  0  0  0
   -4.5381    2.5033   -1.1727 H   0  0  0  0  0  0  0  0  0  0  0  0
   -5.0593    3.8665   -0.1255 H   0  0  0  0  0  0  0  0  0  0  0  0
  1  3  1  0  0  0  0
  1  7  1  0  0  0  0
  1  2  2  0  0  0  0
 30 31  1  0  0  0  0
 31 39  1  0  0  0  0
 31 32  2  0  0  0  0
  8  9  1  0  0  0  0
  9 17  1  0  0  0  0
  9 10  2  0  0  0  0
 18 19  1  0  0  0  0
 19 29  1  0  0  0  0
 19 20  2  0  0  0  0
 21 22  1  0  0  0  0
 22 23  1  0  0  0  0
 22 24  2  0  0  0  0
 30 33  1  0  0  0  0
  8 11  1  0  0  0  0
 39 40  1  0  0  0  0
 18 21  1  0  0  0  0
 29 30  1  0  0  0  0
  7  8  1  0  0  0  0
 17 18  1  0  0  0  0
  3  4  1  0  0  0  0
  3  5  1  0  0  0  0
  3  6  1  0  0  0  0
 33 36  1  0  0  0  0
 33 37  1  0  0  0  0
 33 38  1  0  0  0  0
 11 14  1  0  0  0  0
 11 15  1  0  0  0  0
 11 16  1  0  0  0  0
 40 42  1  0  0  0  0
 40 43  1  0  0  0  0
 40 44  1  0  0  0  0
 21 27  1  0  0  0  0
 21 28  1  0  0  0  0
 30 35  1  0  0  0  0
  8 13  1  0  0  0  0
 18 26  1  0  0  0  0
 39 41  1  0  0  0  0
  7 12  1  0  0  0  0
 29 34  1  0  0  0  0
 17 25  1  0  0  0  0
M  CHG  1  23  -1
M  END
$$$$

  -OEChem-05262214473D

 44 43  0     1  0  0  0  0  0999 V2000
   -4.0256   -1.8030   -2.1581 C   0  0  0  0  0  0  0  0  0  0  0  0
   -3.7513   -2.6782   -2.9709 O   0  0  0  0  0  0  0  0  0  0  0  0
   -5.3491   -1.1169   -2.2339 C   0  0  0  0  0  0  0  0  0  0  0  0
   -5.3223   -0.2211   -2.8750 H   0  0  0  0  0  0  0  0  0  0  0  0
   -6.1322   -1.7605   -2.6658 H   0  0  0  0  0  0  0  0  0  0  0  0
   -5.7568   -0.7715   -1.2704 H   0  0  0  0  0  0  0  0  0  0  0  0
   -3.2124   -1.3578   -1.1289 N   0  0  0  0  0  0  0  0  0  0  0  0
   -1.8971   -1.8843   -0.8752 C   0  0  2  0  0  0  0  0  0  0  0  0
   -1.2676   -1.0599    0.2399 C   0  0  0  0  0  0  0  0  0  0  0  0
   -1.6270    0.0833    0.5138 O   0  0  0  0  0  0  0  0  0  0  0  0
   -1.0364   -1.8506   -2.1285 C   0  0  0  0  0  0  0  0  0  0  0  0
   -3.5631   -0.6202   -0.5206 H   0  0  0  0  0  0  0  0  0  0  0  0
   -2.0301   -2.9174   -0.5360 H   0  0  0  0  0  0  0  0  0  0  0  0
   -0.8921   -0.8236   -2.4833 H   0  0  0  0  0  0  0  0  0  0  0  0
   -0.0457   -2.2777   -1.9410 H   0  0  0  0  0  0  0  0  0  0  0  0
   -1.5052   -2.4193   -2.9387 H   0  0  0  0  0  0  0  0  0  0  0  0
   -0.2267   -1.7335    0.8672 N   0  0  0  0  0  0  0  0  0  0  0  0
    0.5363   -1.1590    1.9465 C   0  0  2  0  0  0  0  0  0  0  0  0
   -0.0266    0.2341    2.2039 C   0  0  0  0  0  0  0  0  0  0  0  0
    0.2519    0.8958    3.2018 O   0  0  0  0  0  0  0  0  0  0  0  0
    2.0242   -1.0829    1.6122 C   0  0  0  0  0  0  0  0  0  0  0  0
    2.7722   -2.4193    1.5229 C   0  0  0  0  0  0  0  0  0  0  0  0
    2.2903   -3.3306    2.2565 O   0  5  0  0  0  0  0  0  0  0  0  0
    3.7694   -2.4585    0.7515 O   0  0  0  0  0  0  0  0  0  0  0  0
   -0.0113   -2.6869    0.5854 H   0  0  0  0  0  0  0  0  0  0  0  0
    0.3596   -1.7873    2.8268 H   0  0  0  0  0  0  0  0  0  0  0  0
    2.5381   -0.4577    2.3553 H   0  0  0  0  0  0  0  0  0  0  0  0
    2.1601   -0.5870    0.6423 H   0  0  0  0  0  0  0  0  0  0  0  0
   -0.8344    0.6708    1.1632 N   0  0  0  0  0  0  0  0  0  0  0  0
   -1.4621    1.9717    1.1534 C   0  0  2  0  0  0  0  0  0  0  0  0
   -2.7758    1.8542    0.3919 C   0  0  0  0  0  0  0  0  0  0  0  0
   -2.9995    0.9647   -0.4265 O   0  0  0  0  0  0  0  0  0  0  0  0
   -0.5581    3.0176    0.5197 C   0  0  0  0  0  0  0  0  0  0  0  0
   -0.9712    0.0738    0.3529 H   0  0  0  0  0  0  0  0  0  0  0  0
   -1.6667    2.2320    2.1977 H   0  0  0  0  0  0  0  0  0  0  0  0
   -0.3420    2.7737   -0.5269 H   0  0  0  0  0  0  0  0  0  0  0  0
   -1.0236    4.0085    0.5389 H   0  0  0  0  0  0  0  0  0  0  0  0
    0.3979    3.0796    1.0507 H   0  0  0  0  0  0  0  0  0  0  0  0
   -3.6526    2.8845    0.7017 N   0  0  0  0  0  0  0  0  0  0  0  0
   -4.9605    3.0024    0.1005 C   0  0  0  0  0  0  0  0  0  0  0  0
   -3.3913    3.5681    1.4060 H   0  0  0  0  0  0  0  0  0  0  0  0
   -4.8981    3.6431   -0.7915 H   0  0  0  0  0  0  0  0  0  0  0  0
   -5.3220    2.0048   -0.1892 H   0  0  0  0  0  0  0  0  0  0  0  0
   -5.6578    3.4491    0.8246 H   0  0  0  0  0  0  0  0  0  0  0  0
  1  3  1  0  0  0  0
  1  7  1  0  0  0  0
  1  2  2  0  0  0  0
 30 31  1  0  0  0  0
 31 39  1  0  0  0  0
 31 32  2  0  0  0  0
  8  9  1  0  0  0  0
  9 17  1  0  0  0  0
  9 10  2  0  0  0  0
 18 19  1  0  0  0  0
 19 29  1  0  0  0  0
 19 20  2  0  0  0  0
 21 22  1  0  0  0  0
 22 23  1  0  0  0  0
 22 24  2  0  0  0  0
 30 33  1  0  0  0  0
  8 11  1  0  0  0  0
 39 40  1  0  0  0  0
 18 21  1  0  0  0  0
 29 30  1  0  0  0  0
  7  8  1  0  0  0  0
 17 18  1  0  0  0  0
  3  4  1  0  0  0  0
  3  5  1  0  0  0  0
  3  6  1  0  0  0  0
 33 36  1  0  0  0  0
 33 37  1  0  0  0  0
 33 38  1  0  0  0  0
 11 14  1  0  0  0  0
 11 15  1  0  0  0  0
 11 16  1  0  0  0  0
 40 42  1  0  0  0  0
 40 43  1  0  0  0  0
 40 44  1  0  0  0  0
 21 27  1  0  0  0  0
 21 28  1  0  0  0  0
 30 35  1  0  0  0  0
  8 13  1  0  0  0  0
 18 26  1  0  0  0  0
 39 41  1  0  0  0  0
  7 12  1  0  0  0  0
 29 34  1  0  0  0  0
 17 25  1  0  0  0  0
M  CHG  1  23  -1
M  END
$$$$

  -OEChem-05262214473D

 44 43  0     1  0  0  0  0  0999 V2000
   -4.0256   -1.8030   -2.1581 C   0  0  0  0  0  0  0  0  0  0  0  0
   -3.7513   -2.6782   -2.9709 O   0  0  0  0  0  0  0  0  0  0  0  0
   -5.3491   -1.1169   -2.2339 C   0  0  0  0  0  0  0  0  0  0  0  0
   -5.3223   -0.2211   -2.8750 H   0  0  0  0  0  0  0  0  0  0  0  0
   -6.1322   -1.7605   -2.6658 H   0  0  0  0  0  0  0  0  0  0  0  0
   -5.7568   -0.7715   -1.2704 H   0  0  0  0  0  0  0  0  0  0  0  0
   -3.2124   -1.3578   -1.1289 N   0  0  0  0  0  0  0  0  0  0  0  0
   -1.8971   -1.8843   -0.8752 C   0  0  2  0  0  0  0  0  0  0  0  0
   -1.2676   -1.0599    0.2399 C   0  0  0  0  0  0  0  0  0  0  0  0
   -1.6270    0.0833    0.5138 O   0  0  0  0  0  0  0  0  0  0  0  0
   -1.0364   -1.8506   -2.1285 C   0  0  0  0  0  0  0  0  0  0  0  0
   -3.5631   -0.6202   -0.5206 H   0  0  0  0  0  0  0  0  0  0  0  0
   -2.0301   -2.9174   -0.5360 H   0  0  0  0  0  0  0  0  0  0  0  0
   -0.8921   -0.8236   -2.4833 H   0  0  0  0  0  0  0  0  0  0  0  0
   -0.0457   -2.2777   -1.9410 H   0  0  0  0  0  0  0  0  0  0  0  0
   -1.5052   -2.4193   -2.9387 H   0  0  0  0  0  0  0  0  0  0  0  0
   -0.2267   -1.7335    0.8672 N   0  0  0  0  0  0  0  0  0  0  0  0
    0.5363   -1.1590    1.9465 C   0  0  2  0  0  0  0  0  0  0  0  0
   -0.0266    0.2341    2.2039 C   0  0  0  0  0  0  0  0  0  0  0  0
    0.4411    1.0017    3.0425 O   0  0  0  0  0  0  0  0  0  0  0  0
    2.0242   -1.0829    1.6122 C   0  0  0  0  0  0  0  0  0  0  0  0
    2.7722   -2.4193    1.5229 C   0  0  0  0  0  0  0  0  0  0  0  0
    2.2903   -3.3306    2.2565 O   0  5  0  0  0  0  0  0  0  0  0  0
    3.7694   -2.4585    0.7515 O   0  0  0  0  0  0  0  0  0  0  0  0
   -0.0113   -2.6869    0.5854 H   0  0  0  0  0  0  0  0  0  0  0  0
    0.3596   -1.7873    2.8268 H   0  0  0  0  0  0  0  0  0  0  0  0
    2.5381   -0.4577    2.3553 H   0  0  0  0  0  0  0  0  0  0  0  0
    2.1601   -0.5870    0.6423 H   0  0  0  0  0  0  0  0  0  0  0  0
   -1.0786    0.5374    1.3510 N   0  0  0  0  0  0  0  0  0  0  0  0
   -1.7620    1.8098    1.3738 C   0  0  2  0  0  0  0  0  0  0  0  0
   -3.2090    1.5739    0.9616 C   0  0  0  0  0  0  0  0  0  0  0  0
   -3.5689    0.5996    0.3040 O   0  0  0  0  0  0  0  0  0  0  0  0
   -1.0909    2.8150    0.4509 C   0  0  0  0  0  0  0  0  0  0  0  0
   -1.3684   -0.1424    0.6541 H   0  0  0  0  0  0  0  0  0  0  0  0
   -1.7302    2.1673    2.4088 H   0  0  0  0  0  0  0  0  0  0  0  0
   -1.1130    2.4740   -0.5906 H   0  0  0  0  0  0  0  0  0  0  0  0
   -1.5929    3.7873    0.4911 H   0  0  0  0  0  0  0  0  0  0  0  0
   -0.0419    2.9610    0.7306 H   0  0  0  0  0  0  0  0  0  0  0  0
   -4.0443    2.6013    1.3774 N   0  0  0  0  0  0  0  0  0  0  0  0
   -5.4611    2.6159    1.0976 C   0  0  0  0  0  0  0  0  0  0  0  0
   -3.6633    3.3606    1.9343 H   0  0  0  0  0  0  0  0  0  0  0  0
   -5.6451    3.1650    0.1623 H   0  0  0  0  0  0  0  0  0  0  0  0
   -5.8249    1.5830    0.9938 H   0  0  0  0  0  0  0  0  0  0  0  0
   -5.9928    3.1107    1.9237 H   0  0  0  0  0  0  0  0  0  0  0  0
  1  3  1  0  0  0  0
  1  7  1  0  0  0  0
  1  2  2  0  0  0  0
 30 31  1  0  0  0  0
 31 39  1  0  0  0  0
 31 32  2  0  0  0  0
  8  9  1  0  0  0  0
  9 17  1  0  0  0  0
  9 10  2  0  0  0  0
 18 19  1  0  0  0  0
 19 29  1  0  0  0  0
 19 20  2  0  0  0  0
 21 22  1  0  0  0  0
 22 23  1  0  0  0  0
 22 24  2  0  0  0  0
 30 33  1  0  0  0  0
  8 11  1  0  0  0  0
 39 40  1  0  0  0  0
 18 21  1  0  0  0  0
 29 30  1  0  0  0  0
  7  8  1  0  0  0  0
 17 18  1  0  0  0  0
  3  4  1  0  0  0  0
  3  5  1  0  0  0  0
  3  6  1  0  0  0  0
 33 36  1  0  0  0  0
 33 37  1  0  0  0  0
 33 38  1  0  0  0  0
 11 14  1  0  0  0  0
 11 15  1  0  0  0  0
 11 16  1  0  0  0  0
 40 42  1  0  0  0  0
 40 43  1  0  0  0  0
 40 44  1  0  0  0  0
 21 27  1  0  0  0  0
 21 28  1  0  0  0  0
 30 35  1  0  0  0  0
  8 13  1  0  0  0  0
 18 26  1  0  0  0  0
 39 41  1  0  0  0  0
  7 12  1  0  0  0  0
 29 34  1  0  0  0  0
 17 25  1  0  0  0  0
M  CHG  1  23  -1
M  END
$$$$

  -OEChem-05262214473D

 44 43  0     1  0  0  0  0  0999 V2000
   -4.0256   -1.8030   -2.1581 C   0  0  0  0  0  0  0  0  0  0  0  0
   -3.7513   -2.6782   -2.9709 O   0  0  0  0  0  0  0  0  0  0  0  0
   -5.3491   -1.1169   -2.2339 C   0  0  0  0  0  0  0  0  0  0  0  0
   -5.3223   -0.2211   -2.8750 H   0  0  0  0  0  0  0  0  0  0  0  0
   -6.1322   -1.7605   -2.6658 H   0  0  0  0  0  0  0  0  0  0  0  0
   -5.7568   -0.7715   -1.2704 H   0  0  0  0  0  0  0  0  0  0  0  0
   -3.2124   -1.3578   -1.1289 N   0  0  0  0  0  0  0  0  0  0  0  0
   -1.8971   -1.8843   -0.8752 C   0  0  2  0  0  0  0  0  0  0  0  0
   -1.2676   -1.0599    0.2399 C   0  0  0  0  0  0  0  0  0  0  0  0
   -1.6270    0.0833    0.5138 O   0  0  0  0  0  0  0  0  0  0  0  0
   -1.0364   -1.8506   -2.1285 C   0  0  0  0  0  0  0  0  0  0  0  0
   -3.5631   -0.6202   -0.5206 H   0  0  0  0  0  0  0  0  0  0  0  0
   -2.0301   -2.9174   -0.5360 H   0  0  0  0  0  0  0  0  0  0  0  0
   -0.8921   -0.8236   -2.4833 H   0  0  0  0  0  0  0  0  0  0  0  0
   -0.0457   -2.2777   -1.9410 H   0  0  0  0  0  0  0  0  0  0  0  0
   -1.5052   -2.4193   -2.9387 H   0  0  0  0  0  0  0  0  0  0  0  0
   -0.2267   -1.7335    0.8672 N   0  0  0  0  0  0  0  0  0  0  0  0
    0.5363   -1.1590    1.9465 C   0  0  2  0  0  0  0  0  0  0  0  0
   -0.0266    0.2341    2.2039 C   0  0  0  0  0  0  0  0  0  0  0  0
    0.5815    1.0970    2.8338 O   0  0  0  0  0  0  0  0  0  0  0  0
    2.0242   -1.0829    1.6122 C   0  0  0  0  0  0  0  0  0  0  0  0
    2.7722   -2.4193    1.5229 C   0  0  0  0  0  0  0  0  0  0  0  0
    2.2903   -3.3306    2.2565 O   0  5  0  0  0  0  0  0  0  0  0  0
    3.7694   -2.4585    0.7515 O   0  0  0  0  0  0  0  0  0  0  0  0
   -0.0113   -2.6869    0.5854 H   0  0  0  0  0  0  0  0  0  0  0  0
    0.3596   -1.7873    2.8268 H   0  0  0  0  0  0  0  0  0  0  0  0
    2.5381   -0.4577    2.3553 H   0  0  0  0  0  0  0  0  0  0  0  0
    2.1601   -0.5870    0.6423 H   0  0  0  0  0  0  0  0  0  0  0  0
   -1.2644    0.4158    1.6029 N   0  0  0  0  0  0  0  0  0  0  0  0
   -1.9925    1.6613    1.6732 C   0  0  2  0  0  0  0  0  0  0  0  0
   -3.4805    1.3386    1.6412 C   0  0  0  0  0  0  0  0  0  0  0  0
   -3.9301    0.2919    1.1793 O   0  0  0  0  0  0  0  0  0  0  0  0
   -1.6129    2.5895    0.5299 C   0  0  0  0  0  0  0  0  0  0  0  0
   -1.6714   -0.3398    1.0596 H   0  0  0  0  0  0  0  0  0  0  0  0
   -1.7387    2.1222    2.6340 H   0  0  0  0  0  0  0  0  0  0  0  0
   -1.8597    2.1446   -0.4411 H   0  0  0  0  0  0  0  0  0  0  0  0
   -2.1445    3.5442    0.6007 H   0  0  0  0  0  0  0  0  0  0  0  0
   -0.5373    2.7967    0.5367 H   0  0  0  0  0  0  0  0  0  0  0  0
   -4.2504    2.3753    2.1498 N   0  0  0  0  0  0  0  0  0  0  0  0
   -5.6920    2.3160    2.2160 C   0  0  0  0  0  0  0  0  0  0  0  0
   -3.7921    3.1987    2.5288 H   0  0  0  0  0  0  0  0  0  0  0  0
   -6.1201    2.7618    1.3061 H   0  0  0  0  0  0  0  0  0  0  0  0
   -6.0124    1.2667    2.2958 H   0  0  0  0  0  0  0  0  0  0  0  0
   -6.0417    2.8741    3.0970 H   0  0  0  0  0  0  0  0  0  0  0  0
  1  3  1  0  0  0  0
  1  7  1  0  0  0  0
  1  2  2  0  0  0  0
 30 31  1  0  0  0  0
 31 39  1  0  0  0  0
 31 32  2  0  0  0  0
  8  9  1  0  0  0  0
  9 17  1  0  0  0  0
  9 10  2  0  0  0  0
 18 19  1  0  0  0  0
 19 29  1  0  0  0  0
 19 20  2  0  0  0  0
 21 22  1  0  0  0  0
 22 23  1  0  0  0  0
 22 24  2  0  0  0  0
 30 33  1  0  0  0  0
  8 11  1  0  0  0  0
 39 40  1  0  0  0  0
 18 21  1  0  0  0  0
 29 30  1  0  0  0  0
  7  8  1  0  0  0  0
 17 18  1  0  0  0  0
  3  4  1  0  0  0  0
  3  5  1  0  0  0  0
  3  6  1  0  0  0  0
 33 36  1  0  0  0  0
 33 37  1  0  0  0  0
 33 38  1  0  0  0  0
 11 14  1  0  0  0  0
 11 15  1  0  0  0  0
 11 16  1  0  0  0  0
 40 42  1  0  0  0  0
 40 43  1  0  0  0  0
 40 44  1  0  0  0  0
 21 27  1  0  0  0  0
 21 28  1  0  0  0  0
 30 35  1  0  0  0  0
  8 13  1  0  0  0  0
 18 26  1  0  0  0  0
 39 41  1  0  0  0  0
  7 12  1  0  0  0  0
 29 34  1  0  0  0  0
 17 25  1  0  0  0  0
M  CHG  1  23  -1
M  END
$$$$

  -OEChem-05262214473D

 44 43  0     1  0  0  0  0  0999 V2000
   -4.0256   -1.8030   -2.1581 C   0  0  0  0  0  0  0  0  0  0  0  0
   -3.7513   -2.6782   -2.9709 O   0  0  0  0  0  0  0  0  0  0  0  0
   -5.3491   -1.1169   -2.2339 C   0  0  0  0  0  0  0  0  0  0  0  0
   -5.3223   -0.2211   -2.8750 H   0  0  0  0  0  0  0  0  0  0  0  0
   -6.1322   -1.7605   -2.6658 H   0  0  0  0  0  0  0  0  0  0  0  0
   -5.7568   -0.7715   -1.2704 H   0  0  0  0  0  0  0  0  0  0  0  0
   -3.2124   -1.3578   -1.1289 N   0  0  0  0  0  0  0  0  0  0  0  0
   -1.8971   -1.8843   -0.8752 C   0  0  2  0  0  0  0  0  0  0  0  0
   -1.2676   -1.0599    0.2399 C   0  0  0  0  0  0  0  0  0  0  0  0
   -1.6270    0.0833    0.5138 O   0  0  0  0  0  0  0  0  0  0  0  0
   -1.0364   -1.8506   -2.1285 C   0  0  0  0  0  0  0  0  0  0  0  0
   -3.5631   -0.6202   -0.5206 H   0  0  0  0  0  0  0  0  0  0  0  0
   -2.0301   -2.9174   -0.5360 H   0  0  0  0  0  0  0  0  0  0  0  0
   -0.8921   -0.8236   -2.4833 H   0  0  0  0  0  0  0  0  0  0  0  0
   -0.0457   -2.2777   -1.9410 H   0  0  0  0  0  0  0  0  0  0  0  0
   -1.5052   -2.4193   -2.9387 H   0  0  0  0  0  0  0  0  0  0  0  0
   -0.2267   -1.7335    0.8672 N   0  0  0  0  0  0  0  0  0  0  0  0
    0.5363   -1.1590    1.9465 C   0  0  2  0  0  0  0  0  0  0  0  0
   -0.0266    0.2341    2.2039 C   0  0  0  0  0  0  0  0  0  0  0  0
    0.6636    1.1752    2.5899 O   0  0  0  0  0  0  0  0  0  0  0  0
    2.0242   -1.0829    1.6122 C   0  0  0  0  0  0  0  0  0  0  0  0
    2.7722   -2.4193    1.5229 C   0  0  0  0  0  0  0  0  0  0  0  0
    2.2903   -3.3306    2.2565 O   0  5  0  0  0  0  0  0  0  0  0  0
    3.7694   -2.4585    0.7515 O   0  0  0  0  0  0  0  0  0  0  0  0
   -0.0113   -2.6869    0.5854 H   0  0  0  0  0  0  0  0  0  0  0  0
    0.3596   -1.7873    2.8268 H   0  0  0  0  0  0  0  0  0  0  0  0
    2.5381   -0.4577    2.3553 H   0  0  0  0  0  0  0  0  0  0  0  0
    2.1601   -0.5870    0.6423 H   0  0  0  0  0  0  0  0  0  0  0  0
   -1.3788    0.3144    1.9017 N   0  0  0  0  0  0  0  0  0  0  0  0
   -2.1378    1.5365    2.0310 C   0  0  2  0  0  0  0  0  0  0  0  0
   -3.5718    1.1644    2.3844 C   0  0  0  0  0  0  0  0  0  0  0  0
   -4.0586    0.0626    2.1395 O   0  0  0  0  0  0  0  0  0  0  0  0
   -2.0886    2.3564    0.7511 C   0  0  0  0  0  0  0  0  0  0  0  0
   -1.8596   -0.5049    1.5418 H   0  0  0  0  0  0  0  0  0  0  0  0
   -1.6917    2.0999    2.8578 H   0  0  0  0  0  0  0  0  0  0  0  0
   -2.5312    1.8082   -0.0886 H   0  0  0  0  0  0  0  0  0  0  0  0
   -2.6407    3.2957    0.8602 H   0  0  0  0  0  0  0  0  0  0  0  0
   -1.0546    2.5977    0.4824 H   0  0  0  0  0  0  0  0  0  0  0  0
   -4.2570    2.2218    2.9662 N   0  0  0  0  0  0  0  0  0  0  0  0
   -5.6373    2.1231    3.3796 C   0  0  0  0  0  0  0  0  0  0  0  0
   -3.7688    3.0936    3.1489 H   0  0  0  0  0  0  0  0  0  0  0  0
   -6.2907    2.4608    2.5617 H   0  0  0  0  0  0  0  0  0  0  0  0
   -5.8717    1.0774    3.6280 H   0  0  0  0  0  0  0  0  0  0  0  0
   -5.8011    2.7556    4.2645 H   0  0  0  0  0  0  0  0  0  0  0  0
  1  3  1  0  0  0  0
  1  7  1  0  0  0  0
  1  2  2  0  0  0  0
 30 31  1  0  0  0  0
 31 39  1  0  0  0  0
 31 32  2  0  0  0  0
  8  9  1  0  0  0  0
  9 17  1  0  0  0  0
  9 10  2  0  0  0  0
 18 19  1  0  0  0  0
 19 29  1  0  0  0  0
 19 20  2  0  0  0  0
 21 22  1  0  0  0  0
 22 23  1  0  0  0  0
 22 24  2  0  0  0  0
 30 33  1  0  0  0  0
  8 11  1  0  0  0  0
 39 40  1  0  0  0  0
 18 21  1  0  0  0  0
 29 30  1  0  0  0  0
  7  8  1  0  0  0  0
 17 18  1  0  0  0  0
  3  4  1  0  0  0  0
  3  5  1  0  0  0  0
  3  6  1  0  0  0  0
 33 36  1  0  0  0  0
 33 37  1  0  0  0  0
 33 38  1  0  0  0  0
 11 14  1  0  0  0  0
 11 15  1  0  0  0  0
 11 16  1  0  0  0  0
 40 42  1  0  0  0  0
 40 43  1  0  0  0  0
 40 44  1  0  0  0  0
 21 27  1  0  0  0  0
 21 28  1  0  0  0  0
 30 35  1  0  0  0  0
  8 13  1  0  0  0  0
 18 26  1  0  0  0  0
 39 41  1  0  0  0  0
  7 12  1  0  0  0  0
 29 34  1  0  0  0  0
 17 25  1  0  0  0  0
M  CHG  1  23  -1
M  END
$$$$

  -OEChem-05262214473D

 44 43  0     1  0  0  0  0  0999 V2000
   -4.0256   -1.8030   -2.1581 C   0  0  0  0  0  0  0  0  0  0  0  0
   -3.7513   -2.6782   -2.9709 O   0  0  0  0  0  0  0  0  0  0  0  0
   -5.3491   -1.1169   -2.2339 C   0  0  0  0  0  0  0  0  0  0  0  0
   -5.3223   -0.2211   -2.8750 H   0  0  0  0  0  0  0  0  0  0  0  0
   -6.1322   -1.7605   -2.6658 H   0  0  0  0  0  0  0  0  0  0  0  0
   -5.7568   -0.7715   -1.2704 H   0  0  0  0  0  0  0  0  0  0  0  0
   -3.2124   -1.3578   -1.1289 N   0  0  0  0  0  0  0  0  0  0  0  0
   -1.8971   -1.8843   -0.8752 C   0  0  2  0  0  0  0  0  0  0  0  0
   -1.2676   -1.0599    0.2399 C   0  0  0  0  0  0  0  0  0  0  0  0
   -1.6270    0.0833    0.5138 O   0  0  0  0  0  0  0  0  0  0  0  0
   -1.0364   -1.8506   -2.1285 C   0  0  0  0  0  0  0  0  0  0  0  0
   -3.5631   -0.6202   -0.5206 H   0  0  0  0  0  0  0  0  0  0  0  0
   -2.0301   -2.9174   -0.5360 H   0  0  0  0  0  0  0  0  0  0  0  0
   -0.8921   -0.8236   -2.4833 H   0  0  0  0  0  0  0  0  0  0  0  0
   -0.0457   -2.2777   -1.9410 H   0  0  0  0  0  0  0  0  0  0  0  0
   -1.5052   -2.4193   -2.9387 H   0  0  0  0  0  0  0  0  0  0  0  0
   -0.2267   -1.7335    0.8672 N   0  0  0  0  0  0  0  0  0  0  0  0
    0.5363   -1.1590    1.9465 C   0  0  2  0  0  0  0  0  0  0  0  0
   -0.0266    0.2341    2.2039 C   0  0  0  0  0  0  0  0  0  0  0  0
    0.6819    1.2311    2.3274 O   0  0  0  0  0  0  0  0  0  0  0  0
    2.0242   -1.0829    1.6122 C   0  0  0  0  0  0  0  0  0  0  0  0
    2.7722   -2.4193    1.5229 C   0  0  0  0  0  0  0  0  0  0  0  0
    2.2903   -3.3306    2.2565 O   0  5  0  0  0  0  0  0  0  0  0  0
    3.7694   -2.4585    0.7515 O   0  0  0  0  0  0  0  0  0  0  0  0
   -0.0113   -2.6869    0.5854 H   0  0  0  0  0  0  0  0  0  0  0  0
    0.3596   -1.7873    2.8268 H   0  0  0  0  0  0  0  0  0  0  0  0
    2.5381   -0.4577    2.3553 H   0  0  0  0  0  0  0  0  0  0  0  0
    2.1601   -0.5870    0.6423 H   0  0  0  0  0  0  0  0  0  0  0  0
   -1.4143    0.2399    2.2272 N   0  0  0  0  0  0  0  0  0  0  0  0
   -2.1881    1.4438    2.4229 C   0  0  2  0  0  0  0  0  0  0  0  0
   -3.4765    1.0632    3.1404 C   0  0  0  0  0  0  0  0  0  0  0  0
   -3.9456   -0.0728    3.1194 O   0  0  0  0  0  0  0  0  0  0  0  0
   -2.4856    2.1316    1.0996 C   0  0  0  0  0  0  0  0  0  0  0  0
   -1.9200   -0.6265    2.0679 H   0  0  0  0  0  0  0  0  0  0  0  0
   -1.5924    2.1017    3.0651 H   0  0  0  0  0  0  0  0  0  0  0  0
   -3.0817    1.4875    0.4428 H   0  0  0  0  0  0  0  0  0  0  0  0
   -3.0477    3.0589    1.2520 H   0  0  0  0  0  0  0  0  0  0  0  0
   -1.5583    2.3778    0.5712 H   0  0  0  0  0  0  0  0  0  0  0  0
   -4.0636    2.1513    3.7710 N   0  0  0  0  0  0  0  0  0  0  0  0
   -5.3009    2.0503    4.5091 C   0  0  0  0  0  0  0  0  0  0  0  0
   -3.5950    3.0523    3.7524 H   0  0  0  0  0  0  0  0  0  0  0  0
   -6.1454    2.2826    3.8437 H   0  0  0  0  0  0  0  0  0  0  0  0
   -5.4124    1.0280    4.8996 H   0  0  0  0  0  0  0  0  0  0  0  0
   -5.2873    2.7633    5.3467 H   0  0  0  0  0  0  0  0  0  0  0  0
  1  3  1  0  0  0  0
  1  7  1  0  0  0  0
  1  2  2  0  0  0  0
 30 31  1  0  0  0  0
 31 39  1  0  0  0  0
 31 32  2  0  0  0  0
  8  9  1  0  0  0  0
  9 17  1  0  0  0  0
  9 10  2  0  0  0  0
 18 19  1  0  0  0  0
 19 29  1  0  0  0  0
 19 20  2  0  0  0  0
 21 22  1  0  0  0  0
 22 23  1  0  0  0  0
 22 24  2  0  0  0  0
 30 33  1  0  0  0  0
  8 11  1  0  0  0  0
 39 40  1  0  0  0  0
 18 21  1  0  0  0  0
 29 30  1  0  0  0  0
  7  8  1  0  0  0  0
 17 18  1  0  0  0  0
  3  4  1  0  0  0  0
  3  5  1  0  0  0  0
  3  6  1  0  0  0  0
 33 36  1  0  0  0  0
 33 37  1  0  0  0  0
 33 38  1  0  0  0  0
 11 14  1  0  0  0  0
 11 15  1  0  0  0  0
 11 16  1  0  0  0  0
 40 42  1  0  0  0  0
 40 43  1  0  0  0  0
 40 44  1  0  0  0  0
 21 27  1  0  0  0  0
 21 28  1  0  0  0  0
 30 35  1  0  0  0  0
  8 13  1  0  0  0  0
 18 26  1  0  0  0  0
 39 41  1  0  0  0  0
  7 12  1  0  0  0  0
 29 34  1  0  0  0  0
 17 25  1  0  0  0  0
M  CHG  1  23  -1
M  END
$$$$

  -OEChem-05262214473D

 44 43  0     1  0  0  0  0  0999 V2000
   -4.0256   -1.8030   -2.1581 C   0  0  0  0  0  0  0  0  0  0  0  0
   -3.7513   -2.6782   -2.9709 O   0  0  0  0  0  0  0  0  0  0  0  0
   -5.3491   -1.1169   -2.2339 C   0  0  0  0  0  0  0  0  0  0  0  0
   -5.3223   -0.2211   -2.8750 H   0  0  0  0  0  0  0  0  0  0  0  0
   -6.1322   -1.7605   -2.6658 H   0  0  0  0  0  0  0  0  0  0  0  0
   -5.7568   -0.7715   -1.2704 H   0  0  0  0  0  0  0  0  0  0  0  0
   -3.2124   -1.3578   -1.1289 N   0  0  0  0  0  0  0  0  0  0  0  0
   -1.8971   -1.8843   -0.8752 C   0  0  2  0  0  0  0  0  0  0  0  0
   -1.2676   -1.0599    0.2399 C   0  0  0  0  0  0  0  0  0  0  0  0
   -1.6270    0.0833    0.5138 O   0  0  0  0  0  0  0  0  0  0  0  0
   -1.0364   -1.8506   -2.1285 C   0  0  0  0  0  0  0  0  0  0  0  0
   -3.5631   -0.6202   -0.5206 H   0  0  0  0  0  0  0  0  0  0  0  0
   -2.0301   -2.9174   -0.5360 H   0  0  0  0  0  0  0  0  0  0  0  0
   -0.8921   -0.8236   -2.4833 H   0  0  0  0  0  0  0  0  0  0  0  0
   -0.0457   -2.2777   -1.9410 H   0  0  0  0  0  0  0  0  0  0  0  0
   -1.5052   -2.4193   -2.9387 H   0  0  0  0  0  0  0  0  0  0  0  0
   -0.2267   -1.7335    0.8672 N   0  0  0  0  0  0  0  0  0  0  0  0
    0.5363   -1.1590    1.9465 C   0  0  2  0  0  0  0  0  0  0  0  0
   -0.0266    0.2341    2.2039 C   0  0  0  0  0  0  0  0  0  0  0  0
    0.6349    1.2608    2.0642 O   0  0  0  0  0  0  0  0  0  0  0  0
    2.0242   -1.0829    1.6122 C   0  0  0  0  0  0  0  0  0  0  0  0
    2.7722   -2.4193    1.5229 C   0  0  0  0  0  0  0  0  0  0  0  0
    2.2903   -3.3306    2.2565 O   0  5  0  0  0  0  0  0  0  0  0  0
    3.7694   -2.4585    0.7515 O   0  0  0  0  0  0  0  0  0  0  0  0
   -0.0113   -2.6869    0.5854 H   0  0  0  0  0  0  0  0  0  0  0  0
    0.3596   -1.7873    2.8268 H   0  0  0  0  0  0  0  0  0  0  0  0
    2.5381   -0.4577    2.3553 H   0  0  0  0  0  0  0  0  0  0  0  0
    2.1601   -0.5870    0.6423 H   0  0  0  0  0  0  0  0  0  0  0  0
   -1.3683    0.1975    2.5571 N   0  0  0  0  0  0  0  0  0  0  0  0
   -2.1399    1.3894    2.8223 C   0  0  2  0  0  0  0  0  0  0  0  0
   -3.2012    1.0419    3.8578 C   0  0  0  0  0  0  0  0  0  0  0  0
   -3.5987   -0.1050    4.0521 O   0  0  0  0  0  0  0  0  0  0  0  0
   -2.7769    1.9304    1.5517 C   0  0  0  0  0  0  0  0  0  0  0  0
   -1.8487   -0.6964    2.6020 H   0  0  0  0  0  0  0  0  0  0  0  0
   -1.4476    2.1276    3.2416 H   0  0  0  0  0  0  0  0  0  0  0  0
   -3.4738    1.2045    1.1170 H   0  0  0  0  0  0  0  0  0  0  0  0
   -3.3378    2.8497    1.7494 H   0  0  0  0  0  0  0  0  0  0  0  0
   -2.0143    2.1518    0.7972 H   0  0  0  0  0  0  0  0  0  0  0  0
   -3.6833    2.1685    4.5094 N   0  0  0  0  0  0  0  0  0  0  0  0
   -4.7056    2.1027    5.5275 C   0  0  0  0  0  0  0  0  0  0  0  0
   -3.2826    3.0777    4.2982 H   0  0  0  0  0  0  0  0  0  0  0  0
   -5.6941    2.2394    5.0646 H   0  0  0  0  0  0  0  0  0  0  0  0
   -4.6659    1.1219    6.0240 H   0  0  0  0  0  0  0  0  0  0  0  0
   -4.5354    2.8965    6.2697 H   0  0  0  0  0  0  0  0  0  0  0  0
  1  3  1  0  0  0  0
  1  7  1  0  0  0  0
  1  2  2  0  0  0  0
 30 31  1  0  0  0  0
 31 39  1  0  0  0  0
 31 32  2  0  0  0  0
  8  9  1  0  0  0  0
  9 17  1  0  0  0  0
  9 10  2  0  0  0  0
 18 19  1  0  0  0  0
 19 29  1  0  0  0  0
 19 20  2  0  0  0  0
 21 22  1  0  0  0  0
 22 23  1  0  0  0  0
 22 24  2  0  0  0  0
 30 33  1  0  0  0  0
  8 11  1  0  0  0  0
 39 40  1  0  0  0  0
 18 21  1  0  0  0  0
 29 30  1  0  0  0  0
  7  8  1  0  0  0  0
 17 18  1  0  0  0  0
  3  4  1  0  0  0  0
  3  5  1  0  0  0  0
  3  6  1  0  0  0  0
 33 36  1  0  0  0  0
 33 37  1  0  0  0  0
 33 38  1  0  0  0  0
 11 14  1  0  0  0  0
 11 15  1  0  0  0  0
 11 16  1  0  0  0  0
 40 42  1  0  0  0  0
 40 43  1  0  0  0  0
 40 44  1  0  0  0  0
 21 27  1  0  0  0  0
 21 28  1  0  0  0  0
 30 35  1  0  0  0  0
  8 13  1  0  0  0  0
 18 26  1  0  0  0  0
 39 41  1  0  0  0  0
  7 12  1  0  0  0  0
 29 34  1  0  0  0  0
 17 25  1  0  0  0  0
M  CHG  1  23  -1
M  END
$$$$

  -OEChem-05262214473D

 44 43  0     1  0  0  0  0  0999 V2000
   -4.0256   -1.8030   -2.1581 C   0  0  0  0  0  0  0  0  0  0  0  0
   -3.7513   -2.6782   -2.9709 O   0  0  0  0  0  0  0  0  0  0  0  0
   -5.3491   -1.1169   -2.2339 C   0  0  0  0  0  0  0  0  0  0  0  0
   -5.3223   -0.2211   -2.8750 H   0  0  0  0  0  0  0  0  0  0  0  0
   -6.1322   -1.7605   -2.6658 H   0  0  0  0  0  0  0  0  0  0  0  0
   -5.7568   -0.7715   -1.2704 H   0  0  0  0  0  0  0  0  0  0  0  0
   -3.2124   -1.3578   -1.1289 N   0  0  0  0  0  0  0  0  0  0  0  0
   -1.8971   -1.8843   -0.8752 C   0  0  2  0  0  0  0  0  0  0  0  0
   -1.2676   -1.0599    0.2399 C   0  0  0  0  0  0  0  0  0  0  0  0
   -1.6270    0.0833    0.5138 O   0  0  0  0  0  0  0  0  0  0  0  0
   -1.0364   -1.8506   -2.1285 C   0  0  0  0  0  0  0  0  0  0  0  0
   -3.5631   -0.6202   -0.5206 H   0  0  0  0  0  0  0  0  0  0  0  0
   -2.0301   -2.9174   -0.5360 H   0  0  0  0  0  0  0  0  0  0  0  0
   -0.8921   -0.8236   -2.4833 H   0  0  0  0  0  0  0  0  0  0  0  0
   -0.0457   -2.2777   -1.9410 H   0  0  0  0  0  0  0  0  0  0  0  0
   -1.5052   -2.4193   -2.9387 H   0  0  0  0  0  0  0  0  0  0  0  0
   -0.2267   -1.7335    0.8672 N   0  0  0  0  0  0  0  0  0  0  0  0
    0.5363   -1.1590    1.9465 C   0  0  2  0  0  0  0  0  0  0  0  0
   -0.0266    0.2341    2.2039 C   0  0  0  0  0  0  0  0  0  0  0  0
    0.5260    1.2622    1.8182 O   0  0  0  0  0  0  0  0  0  0  0  0
    2.0242   -1.0829    1.6122 C   0  0  0  0  0  0  0  0  0  0  0  0
    2.7722   -2.4193    1.5229 C   0  0  0  0  0  0  0  0  0  0  0  0
    2.2903   -3.3306    2.2565 O   0  5  0  0  0  0  0  0  0  0  0  0
    3.7694   -2.4585    0.7515 O   0  0  0  0  0  0  0  0  0  0  0  0
   -0.0113   -2.6869    0.5854 H   0  0  0  0  0  0  0  0  0  0  0  0
    0.3596   -1.7873    2.8268 H   0  0  0  0  0  0  0  0  0  0  0  0
    2.5381   -0.4577    2.3553 H   0  0  0  0  0  0  0  0  0  0  0  0
    2.1601   -0.5870    0.6423 H   0  0  0  0  0  0  0  0  0  0  0  0
   -1.2440    0.1901    2.8689 N   0  0  0  0  0  0  0  0  0  0  0  0
   -1.9966    1.3772    3.2018 C   0  0  2  0  0  0  0  0  0  0  0  0
   -2.7647    1.1019    4.4877 C   0  0  0  0  0  0  0  0  0  0  0  0
   -3.0417   -0.0317    4.8740 O   0  0  0  0  0  0  0  0  0  0  0  0
   -2.9424    1.7665    2.0764 C   0  0  0  0  0  0  0  0  0  0  0  0
   -1.6504   -0.7097    3.1077 H   0  0  0  0  0  0  0  0  0  0  0  0
   -1.2671    2.1758    3.3753 H   0  0  0  0  0  0  0  0  0  0  0  0
   -3.6807    0.9785    1.8880 H   0  0  0  0  0  0  0  0  0  0  0  0
   -3.4913    2.6826    2.3184 H   0  0  0  0  0  0  0  0  0  0  0  0
   -2.3913    1.9352    1.1449 H   0  0  0  0  0  0  0  0  0  0  0  0
   -3.1420    2.2723    5.1310 N   0  0  0  0  0  0  0  0  0  0  0  0
   -3.8920    2.2766    6.3653 C   0  0  0  0  0  0  0  0  0  0  0  0
   -2.8528    3.1680    4.7491 H   0  0  0  0  0  0  0  0  0  0  0  0
   -4.9674    2.3341    6.1414 H   0  0  0  0  0  0  0  0  0  0  0  0
   -3.6829    1.3527    6.9245 H   0  0  0  0  0  0  0  0  0  0  0  0
   -3.5967    3.1463    6.9707 H   0  0  0  0  0  0  0  0  0  0  0  0
  1  3  1  0  0  0  0
  1  7  1  0  0  0  0
  1  2  2  0  0  0  0
 30 31  1  0  0  0  0
 31 39  1  0  0  0  0
 31 32  2  0  0  0  0
  8  9  1  0  0  0  0
  9 17  1  0  0  0  0
  9 10  2  0  0  0  0
 18 19  1  0  0  0  0
 19 29  1  0  0  0  0
 19 20  2  0  0  0  0
 21 22  1  0  0  0  0
 22 23  1  0  0  0  0
 22 24  2  0  0  0  0
 30 33  1  0  0  0  0
  8 11  1  0  0  0  0
 39 40  1  0  0  0  0
 18 21  1  0  0  0  0
 29 30  1  0  0  0  0
  7  8  1  0  0  0  0
 17 18  1  0  0  0  0
  3  4  1  0  0  0  0
  3  5  1  0  0  0  0
  3  6  1  0  0  0  0
 33 36  1  0  0  0  0
 33 37  1  0  0  0  0
 33 38  1  0  0  0  0
 11 14  1  0  0  0  0
 11 15  1  0  0  0  0
 11 16  1  0  0  0  0
 40 42  1  0  0  0  0
 40 43  1  0  0  0  0
 40 44  1  0  0  0  0
 21 27  1  0  0  0  0
 21 28  1  0  0  0  0
 30 35  1  0  0  0  0
  8 13  1  0  0  0  0
 18 26  1  0  0  0  0
 39 41  1  0  0  0  0
  7 12  1  0  0  0  0
 29 34  1  0  0  0  0
 17 25  1  0  0  0  0
M  CHG  1  23  -1
M  END
$$$$

  -OEChem-05262214473D

 44 43  0     1  0  0  0  0  0999 V2000
   -4.0256   -1.8030   -2.1581 C   0  0  0  0  0  0  0  0  0  0  0  0
   -3.7513   -2.6782   -2.9709 O   0  0  0  0  0  0  0  0  0  0  0  0
   -5.3491   -1.1169   -2.2339 C   0  0  0  0  0  0  0  0  0  0  0  0
   -5.3223   -0.2211   -2.8750 H   0  0  0  0  0  0  0  0  0  0  0  0
   -6.1322   -1.7605   -2.6658 H   0  0  0  0  0  0  0  0  0  0  0  0
   -5.7568   -0.7715   -1.2704 H   0  0  0  0  0  0  0  0  0  0  0  0
   -3.2124   -1.3578   -1.1289 N   0  0  0  0  0  0  0  0  0  0  0  0
   -1.8971   -1.8843   -0.8752 C   0  0  2  0  0  0  0  0  0  0  0  0
   -1.2676   -1.0599    0.2399 C   0  0  0  0  0  0  0  0  0  0  0  0
   -1.6270    0.0833    0.5138 O   0  0  0  0  0  0  0  0  0  0  0  0
   -1.0364   -1.8506   -2.1285 C   0  0  0  0  0  0  0  0  0  0  0  0
   -3.5631   -0.6202   -0.5206 H   0  0  0  0  0  0  0  0  0  0  0  0
   -2.0301   -2.9174   -0.5360 H   0  0  0  0  0  0  0  0  0  0  0  0
   -0.8921   -0.8236   -2.4833 H   0  0  0  0  0  0  0  0  0  0  0  0
   -0.0457   -2.2777   -1.9410 H   0  0  0  0  0  0  0  0  0  0  0  0
   -1.5052   -2.4193   -2.9387 H   0  0  0  0  0  0  0  0  0  0  0  0
   -0.2267   -1.7335    0.8672 N   0  0  0  0  0  0  0  0  0  0  0  0
    0.5363   -1.1590    1.9465 C   0  0  2  0  0  0  0  0  0  0  0  0
   -0.0266    0.2341    2.2039 C   0  0  0  0  0  0  0  0  0  0  0  0
    0.3626    1.2353    1.6063 O   0  0  0  0  0  0  0  0  0  0  0  0
    2.0242   -1.0829    1.6122 C   0  0  0  0  0  0  0  0  0  0  0  0
    2.7722   -2.4193    1.5229 C   0  0  0  0  0  0  0  0  0  0  0  0
    2.2903   -3.3306    2.2565 O   0  5  0  0  0  0  0  0  0  0  0  0
    3.7694   -2.4585    0.7515 O   0  0  0  0  0  0  0  0  0  0  0  0
   -0.0113   -2.6869    0.5854 H   0  0  0  0  0  0  0  0  0  0  0  0
    0.3596   -1.7873    2.8268 H   0  0  0  0  0  0  0  0  0  0  0  0
    2.5381   -0.4577    2.3553 H   0  0  0  0  0  0  0  0  0  0  0  0
    2.1601   -0.5870    0.6423 H   0  0  0  0  0  0  0  0  0  0  0  0
   -1.0499    0.2182    3.1414 N   0  0  0  0  0  0  0  0  0  0  0  0
   -1.7678    1.4080    3.5356 C   0  0  2  0  0  0  0  0  0  0  0  0
   -2.1967    1.2391    4.9872 C   0  0  0  0  0  0  0  0  0  0  0  0
   -2.3124    0.1419    5.5292 O   0  0  0  0  0  0  0  0  0  0  0  0
   -2.9711    1.6511    2.6381 C   0  0  0  0  0  0  0  0  0  0  0  0
   -1.3386   -0.6655    3.5505 H   0  0  0  0  0  0  0  0  0  0  0  0
   -1.0632    2.2431    3.4572 H   0  0  0  0  0  0  0  0  0  0  0  0
   -3.6883    0.8248    2.7033 H   0  0  0  0  0  0  0  0  0  0  0  0
   -3.4977    2.5688    2.9203 H   0  0  0  0  0  0  0  0  0  0  0  0
   -2.6639    1.7427    1.5907 H   0  0  0  0  0  0  0  0  0  0  0  0
   -2.4767    2.4557    5.5936 N   0  0  0  0  0  0  0  0  0  0  0  0
   -2.9156    2.5603    6.9656 C   0  0  0  0  0  0  0  0  0  0  0  0
   -2.3350    3.3171    5.0743 H   0  0  0  0  0  0  0  0  0  0  0  0
   -4.0150    2.5602    7.0005 H   0  0  0  0  0  0  0  0  0  0  0  0
   -2.5306    1.7046    7.5398 H   0  0  0  0  0  0  0  0  0  0  0  0
   -2.5351    3.4956    7.4019 H   0  0  0  0  0  0  0  0  0  0  0  0
  1  3  1  0  0  0  0
  1  7  1  0  0  0  0
  1  2  2  0  0  0  0
 30 31  1  0  0  0  0
 31 39  1  0  0  0  0
 31 32  2  0  0  0  0
  8  9  1  0  0  0  0
  9 17  1  0  0  0  0
  9 10  2  0  0  0  0
 18 19  1  0  0  0  0
 19 29  1  0  0  0  0
 19 20  2  0  0  0  0
 21 22  1  0  0  0  0
 22 23  1  0  0  0  0
 22 24  2  0  0  0  0
 30 33  1  0  0  0  0
  8 11  1  0  0  0  0
 39 40  1  0  0  0  0
 18 21  1  0  0  0  0
 29 30  1  0  0  0  0
  7  8  1  0  0  0  0
 17 18  1  0  0  0  0
  3  4  1  0  0  0  0
  3  5  1  0  0  0  0
  3  6  1  0  0  0  0
 33 36  1  0  0  0  0
 33 37  1  0  0  0  0
 33 38  1  0  0  0  0
 11 14  1  0  0  0  0
 11 15  1  0  0  0  0
 11 16  1  0  0  0  0
 40 42  1  0  0  0  0
 40 43  1  0  0  0  0
 40 44  1  0  0  0  0
 21 27  1  0  0  0  0
 21 28  1  0  0  0  0
 30 35  1  0  0  0  0
  8 13  1  0  0  0  0
 18 26  1  0  0  0  0
 39 41  1  0  0  0  0
  7 12  1  0  0  0  0
 29 34  1  0  0  0  0
 17 25  1  0  0  0  0
M  CHG  1  23  -1
M  END
$$$$

  -OEChem-05262214473D

 44 43  0     1  0  0  0  0  0999 V2000
   -4.0256   -1.8030   -2.1581 C   0  0  0  0  0  0  0  0  0  0  0  0
   -3.7513   -2.6782   -2.9709 O   0  0  0  0  0  0  0  0  0  0  0  0
   -5.3491   -1.1169   -2.2339 C   0  0  0  0  0  0  0  0  0  0  0  0
   -5.3223   -0.2211   -2.8750 H   0  0  0  0  0  0  0  0  0  0  0  0
   -6.1322   -1.7605   -2.6658 H   0  0  0  0  0  0  0  0  0  0  0  0
   -5.7568   -0.7715   -1.2704 H   0  0  0  0  0  0  0  0  0  0  0  0
   -3.2124   -1.3578   -1.1289 N   0  0  0  0  0  0  0  0  0  0  0  0
   -1.8971   -1.8843   -0.8752 C   0  0  2  0  0  0  0  0  0  0  0  0
   -1.2676   -1.0599    0.2399 C   0  0  0  0  0  0  0  0  0  0  0  0
   -1.6270    0.0833    0.5138 O   0  0  0  0  0  0  0  0  0  0  0  0
   -1.0364   -1.8506   -2.1285 C   0  0  0  0  0  0  0  0  0  0  0  0
   -3.5631   -0.6202   -0.5206 H   0  0  0  0  0  0  0  0  0  0  0  0
   -2.0301   -2.9174   -0.5360 H   0  0  0  0  0  0  0  0  0  0  0  0
   -0.8921   -0.8236   -2.4833 H   0  0  0  0  0  0  0  0  0  0  0  0
   -0.0457   -2.2777   -1.9410 H   0  0  0  0  0  0  0  0  0  0  0  0
   -1.5052   -2.4193   -2.9387 H   0  0  0  0  0  0  0  0  0  0  0  0
   -0.2267   -1.7335    0.8672 N   0  0  0  0  0  0  0  0  0  0  0  0
    0.5363   -1.1590    1.9465 C   0  0  2  0  0  0  0  0  0  0  0  0
   -0.0266    0.2341    2.2039 C   0  0  0  0  0  0  0  0  0  0  0  0
    0.1558    1.1820    1.4427 O   0  0  0  0  0  0  0  0  0  0  0  0
    2.0242   -1.0829    1.6122 C   0  0  0  0  0  0  0  0  0  0  0  0
    2.7722   -2.4193    1.5229 C   0  0  0  0  0  0  0  0  0  0  0  0
    2.2903   -3.3306    2.2565 O   0  5  0  0  0  0  0  0  0  0  0  0
    3.7694   -2.4585    0.7515 O   0  0  0  0  0  0  0  0  0  0  0  0
   -0.0113   -2.6869    0.5854 H   0  0  0  0  0  0  0  0  0  0  0  0
    0.3596   -1.7873    2.8268 H   0  0  0  0  0  0  0  0  0  0  0  0
    2.5381   -0.4577    2.3553 H   0  0  0  0  0  0  0  0  0  0  0  0
    2.1601   -0.5870    0.6423 H   0  0  0  0  0  0  0  0  0  0  0  0
   -0.7992    0.2799    3.3560 N   0  0  0  0  0  0  0  0  0  0  0  0
   -1.4692    1.4796    3.8011 C   0  0  2  0  0  0  0  0  0  0  0  0
   -1.5359    1.4442    5.3222 C   0  0  0  0  0  0  0  0  0  0  0  0
   -1.4606    0.4041    5.9729 O   0  0  0  0  0  0  0  0  0  0  0  0
   -2.8609    1.5921    3.1984 C   0  0  0  0  0  0  0  0  0  0  0  0
   -0.9347   -0.5670    3.9003 H   0  0  0  0  0  0  0  0  0  0  0  0
   -0.8498    2.3248    3.4817 H   0  0  0  0  0  0  0  0  0  0  0  0
   -3.4961    0.7539    3.5073 H   0  0  0  0  0  0  0  0  0  0  0  0
   -3.3565    2.5161    3.5141 H   0  0  0  0  0  0  0  0  0  0  0  0
   -2.8133    1.5874    2.1041 H   0  0  0  0  0  0  0  0  0  0  0  0
   -1.7327    2.7061    5.8654 N   0  0  0  0  0  0  0  0  0  0  0  0
   -1.8428    2.9343    7.2873 C   0  0  0  0  0  0  0  0  0  0  0  0
   -1.7644    3.5149    5.2518 H   0  0  0  0  0  0  0  0  0  0  0  0
   -2.9017    2.9023    7.5834 H   0  0  0  0  0  0  0  0  0  0  0  0
   -1.2873    2.1538    7.8279 H   0  0  0  0  0  0  0  0  0  0  0  0
   -1.4229    3.9206    7.5339 H   0  0  0  0  0  0  0  0  0  0  0  0
  1  3  1  0  0  0  0
  1  7  1  0  0  0  0
  1  2  2  0  0  0  0
 30 31  1  0  0  0  0
 31 39  1  0  0  0  0
 31 32  2  0  0  0  0
  8  9  1  0  0  0  0
  9 17  1  0  0  0  0
  9 10  2  0  0  0  0
 18 19  1  0  0  0  0
 19 29  1  0  0  0  0
 19 20  2  0  0  0  0
 21 22  1  0  0  0  0
 22 23  1  0  0  0  0
 22 24  2  0  0  0  0
 30 33  1  0  0  0  0
  8 11  1  0  0  0  0
 39 40  1  0  0  0  0
 18 21  1  0  0  0  0
 29 30  1  0  0  0  0
  7  8  1  0  0  0  0
 17 18  1  0  0  0  0
  3  4  1  0  0  0  0
  3  5  1  0  0  0  0
  3  6  1  0  0  0  0
 33 36  1  0  0  0  0
 33 37  1  0  0  0  0
 33 38  1  0  0  0  0
 11 14  1  0  0  0  0
 11 15  1  0  0  0  0
 11 16  1  0  0  0  0
 40 42  1  0  0  0  0
 40 43  1  0  0  0  0
 40 44  1  0  0  0  0
 21 27  1  0  0  0  0
 21 28  1  0  0  0  0
 30 35  1  0  0  0  0
  8 13  1  0  0  0  0
 18 26  1  0  0  0  0
 39 41  1  0  0  0  0
  7 12  1  0  0  0  0
 29 34  1  0  0  0  0
 17 25  1  0  0  0  0
M  CHG  1  23  -1
M  END
$$$$

  -OEChem-05262214473D

 44 43  0     1  0  0  0  0  0999 V2000
   -4.0256   -1.8030   -2.1581 C   0  0  0  0  0  0  0  0  0  0  0  0
   -3.7513   -2.6782   -2.9709 O   0  0  0  0  0  0  0  0  0  0  0  0
   -5.3491   -1.1169   -2.2339 C   0  0  0  0  0  0  0  0  0  0  0  0
   -5.3223   -0.2211   -2.8750 H   0  0  0  0  0  0  0  0  0  0  0  0
   -6.1322   -1.7605   -2.6658 H   0  0  0  0  0  0  0  0  0  0  0  0
   -5.7568   -0.7715   -1.2704 H   0  0  0  0  0  0  0  0  0  0  0  0
   -3.2124   -1.3578   -1.1289 N   0  0  0  0  0  0  0  0  0  0  0  0
   -1.8971   -1.8843   -0.8752 C   0  0  2  0  0  0  0  0  0  0  0  0
   -1.2676   -1.0599    0.2399 C   0  0  0  0  0  0  0  0  0  0  0  0
   -1.6270    0.0833    0.5138 O   0  0  0  0  0  0  0  0  0  0  0  0
   -1.0364   -1.8506   -2.1285 C   0  0  0  0  0  0  0  0  0  0  0  0
   -3.5631   -0.6202   -0.5206 H   0  0  0  0  0  0  0  0  0  0  0  0
   -2.0301   -2.9174   -0.5360 H   0  0  0  0  0  0  0  0  0  0  0  0
   -0.8921   -0.8236   -2.4833 H   0  0  0  0  0  0  0  0  0  0  0  0
   -0.0457   -2.2777   -1.9410 H   0  0  0  0  0  0  0  0  0  0  0  0
   -1.5052   -2.4193   -2.9387 H   0  0  0  0  0  0  0  0  0  0  0  0
   -0.2267   -1.7335    0.8672 N   0  0  0  0  0  0  0  0  0  0  0  0
    0.5363   -1.1590    1.9465 C   0  0  2  0  0  0  0  0  0  0  0  0
   -0.0266    0.2341    2.2039 C   0  0  0  0  0  0  0  0  0  0  0  0
   -0.0803    1.1058    1.3388 O   0  0  0  0  0  0  0  0  0  0  0  0
    2.0242   -1.0829    1.6122 C   0  0  0  0  0  0  0  0  0  0  0  0
    2.7722   -2.4193    1.5229 C   0  0  0  0  0  0  0  0  0  0  0  0
    2.2903   -3.3306    2.2565 O   0  5  0  0  0  0  0  0  0  0  0  0
    3.7694   -2.4585    0.7515 O   0  0  0  0  0  0  0  0  0  0  0  0
   -0.0113   -2.6869    0.5854 H   0  0  0  0  0  0  0  0  0  0  0  0
    0.3596   -1.7873    2.8268 H   0  0  0  0  0  0  0  0  0  0  0  0
    2.5381   -0.4577    2.3553 H   0  0  0  0  0  0  0  0  0  0  0  0
    2.1601   -0.5870    0.6423 H   0  0  0  0  0  0  0  0  0  0  0  0
   -0.5089    0.3709    3.4981 N   0  0  0  0  0  0  0  0  0  0  0  0
   -1.1211    1.5872    3.9800 C   0  0  2  0  0  0  0  0  0  0  0  0
   -0.8274    1.7032    5.4699 C   0  0  0  0  0  0  0  0  0  0  0  0
   -0.5443    0.7369    6.1750 O   0  0  0  0  0  0  0  0  0  0  0  0
   -2.6193    1.5935    3.7192 C   0  0  0  0  0  0  0  0  0  0  0  0
   -0.4662   -0.4207    4.1332 H   0  0  0  0  0  0  0  0  0  0  0  0
   -0.6415    2.4154    3.4470 H   0  0  0  0  0  0  0  0  0  0  0  0
   -3.1172    0.7707    4.2452 H   0  0  0  0  0  0  0  0  0  0  0  0
   -3.0773    2.5282    4.0593 H   0  0  0  0  0  0  0  0  0  0  0  0
   -2.8294    1.4800    2.6502 H   0  0  0  0  0  0  0  0  0  0  0  0
   -0.9607    3.0065    5.9281 N   0  0  0  0  0  0  0  0  0  0  0  0
   -0.7469    3.3732    7.3086 C   0  0  0  0  0  0  0  0  0  0  0  0
   -1.1799    3.7478    5.2693 H   0  0  0  0  0  0  0  0  0  0  0  0
   -1.7034    3.3371    7.8505 H   0  0  0  0  0  0  0  0  0  0  0  0
   -0.0379    2.6694    7.7692 H   0  0  0  0  0  0  0  0  0  0  0  0
   -0.3360    4.3924    7.3577 H   0  0  0  0  0  0  0  0  0  0  0  0
  1  3  1  0  0  0  0
  1  7  1  0  0  0  0
  1  2  2  0  0  0  0
 30 31  1  0  0  0  0
 31 39  1  0  0  0  0
 31 32  2  0  0  0  0
  8  9  1  0  0  0  0
  9 17  1  0  0  0  0
  9 10  2  0  0  0  0
 18 19  1  0  0  0  0
 19 29  1  0  0  0  0
 19 20  2  0  0  0  0
 21 22  1  0  0  0  0
 22 23  1  0  0  0  0
 22 24  2  0  0  0  0
 30 33  1  0  0  0  0
  8 11  1  0  0  0  0
 39 40  1  0  0  0  0
 18 21  1  0  0  0  0
 29 30  1  0  0  0  0
  7  8  1  0  0  0  0
 17 18  1  0  0  0  0
  3  4  1  0  0  0  0
  3  5  1  0  0  0  0
  3  6  1  0  0  0  0
 33 36  1  0  0  0  0
 33 37  1  0  0  0  0
 33 38  1  0  0  0  0
 11 14  1  0  0  0  0
 11 15  1  0  0  0  0
 11 16  1  0  0  0  0
 40 42  1  0  0  0  0
 40 43  1  0  0  0  0
 40 44  1  0  0  0  0
 21 27  1  0  0  0  0
 21 28  1  0  0  0  0
 30 35  1  0  0  0  0
  8 13  1  0  0  0  0
 18 26  1  0  0  0  0
 39 41  1  0  0  0  0
  7 12  1  0  0  0  0
 29 34  1  0  0  0  0
 17 25  1  0  0  0  0
M  CHG  1  23  -1
M  END
$$$$

  -OEChem-05262214473D

 44 43  0     1  0  0  0  0  0999 V2000
   -4.0256   -1.8030   -2.1581 C   0  0  0  0  0  0  0  0  0  0  0  0
   -3.7513   -2.6782   -2.9709 O   0  0  0  0  0  0  0  0  0  0  0  0
   -5.3491   -1.1169   -2.2339 C   0  0  0  0  0  0  0  0  0  0  0  0
   -5.3223   -0.2211   -2.8750 H   0  0  0  0  0  0  0  0  0  0  0  0
   -6.1322   -1.7605   -2.6658 H   0  0  0  0  0  0  0  0  0  0  0  0
   -5.7568   -0.7715   -1.2704 H   0  0  0  0  0  0  0  0  0  0  0  0
   -3.2124   -1.3578   -1.1289 N   0  0  0  0  0  0  0  0  0  0  0  0
   -1.8971   -1.8843   -0.8752 C   0  0  2  0  0  0  0  0  0  0  0  0
   -1.2676   -1.0599    0.2399 C   0  0  0  0  0  0  0  0  0  0  0  0
   -1.6270    0.0833    0.5138 O   0  0  0  0  0  0  0  0  0  0  0  0
   -1.0364   -1.8506   -2.1285 C   0  0  0  0  0  0  0  0  0  0  0  0
   -3.5631   -0.6202   -0.5206 H   0  0  0  0  0  0  0  0  0  0  0  0
   -2.0301   -2.9174   -0.5360 H   0  0  0  0  0  0  0  0  0  0  0  0
   -0.8921   -0.8236   -2.4833 H   0  0  0  0  0  0  0  0  0  0  0  0
   -0.0457   -2.2777   -1.9410 H   0  0  0  0  0  0  0  0  0  0  0  0
   -1.5052   -2.4193   -2.9387 H   0  0  0  0  0  0  0  0  0  0  0  0
   -0.2267   -1.7335    0.8672 N   0  0  0  0  0  0  0  0  0  0  0  0
    0.5363   -1.1590    1.9465 C   0  0  2  0  0  0  0  0  0  0  0  0
   -0.0266    0.2341    2.2039 C   0  0  0  0  0  0  0  0  0  0  0  0
   -0.3296    1.0119    1.3015 O   0  0  0  0  0  0  0  0  0  0  0  0
    2.0242   -1.0829    1.6122 C   0  0  0  0  0  0  0  0  0  0  0  0
    2.7722   -2.4193    1.5229 C   0  0  0  0  0  0  0  0  0  0  0  0
    2.2903   -3.3306    2.2565 O   0  5  0  0  0  0  0  0  0  0  0  0
    3.7694   -2.4585    0.7515 O   0  0  0  0  0  0  0  0  0  0  0  0
   -0.0113   -2.6869    0.5854 H   0  0  0  0  0  0  0  0  0  0  0  0
    0.3596   -1.7873    2.8268 H   0  0  0  0  0  0  0  0  0  0  0  0
    2.5381   -0.4577    2.3553 H   0  0  0  0  0  0  0  0  0  0  0  0
    2.1601   -0.5870    0.6423 H   0  0  0  0  0  0  0  0  0  0  0  0
   -0.1989    0.4851    3.5580 N   0  0  0  0  0  0  0  0  0  0  0  0
   -0.7473    1.7234    4.0602 C   0  0  2  0  0  0  0  0  0  0  0  0
   -0.1194    1.9985    5.4202 C   0  0  0  0  0  0  0  0  0  0  0  0
    0.3740    1.1179    6.1217 O   0  0  0  0  0  0  0  0  0  0  0  0
   -2.2629    1.6552    4.1651 C   0  0  0  0  0  0  0  0  0  0  0  0
    0.0351   -0.2366    4.2334 H   0  0  0  0  0  0  0  0  0  0  0  0
   -0.4524    2.5087    3.3556 H   0  0  0  0  0  0  0  0  0  0  0  0
   -2.5774    0.8739    4.8667 H   0  0  0  0  0  0  0  0  0  0  0  0
   -2.6793    2.6041    4.5188 H   0  0  0  0  0  0  0  0  0  0  0  0
   -2.7110    1.4278    3.1918 H   0  0  0  0  0  0  0  0  0  0  0  0
   -0.2133    3.3363    5.7774 N   0  0  0  0  0  0  0  0  0  0  0  0
    0.2976    3.8470    7.0280 C   0  0  0  0  0  0  0  0  0  0  0  0
   -0.6214    4.0000    5.1257 H   0  0  0  0  0  0  0  0  0  0  0  0
   -0.5018    3.8350    7.7835 H   0  0  0  0  0  0  0  0  0  0  0  0
    1.1325    3.2165    7.3677 H   0  0  0  0  0  0  0  0  0  0  0  0
    0.6517    4.8787    6.8854 H   0  0  0  0  0  0  0  0  0  0  0  0
  1  3  1  0  0  0  0
  1  7  1  0  0  0  0
  1  2  2  0  0  0  0
 30 31  1  0  0  0  0
 31 39  1  0  0  0  0
 31 32  2  0  0  0  0
  8  9  1  0  0  0  0
  9 17  1  0  0  0  0
  9 10  2  0  0  0  0
 18 19  1  0  0  0  0
 19 29  1  0  0  0  0
 19 20  2  0  0  0  0
 21 22  1  0  0  0  0
 22 23  1  0  0  0  0
 22 24  2  0  0  0  0
 30 33  1  0  0  0  0
  8 11  1  0  0  0  0
 39 40  1  0  0  0  0
 18 21  1  0  0  0  0
 29 30  1  0  0  0  0
  7  8  1  0  0  0  0
 17 18  1  0  0  0  0
  3  4  1  0  0  0  0
  3  5  1  0  0  0  0
  3  6  1  0  0  0  0
 33 36  1  0  0  0  0
 33 37  1  0  0  0  0
 33 38  1  0  0  0  0
 11 14  1  0  0  0  0
 11 15  1  0  0  0  0
 11 16  1  0  0  0  0
 40 42  1  0  0  0  0
 40 43  1  0  0  0  0
 40 44  1  0  0  0  0
 21 27  1  0  0  0  0
 21 28  1  0  0  0  0
 30 35  1  0  0  0  0
  8 13  1  0  0  0  0
 18 26  1  0  0  0  0
 39 41  1  0  0  0  0
  7 12  1  0  0  0  0
 29 34  1  0  0  0  0
 17 25  1  0  0  0  0
M  CHG  1  23  -1
M  END
$$$$

  -OEChem-05262214473D

 44 43  0     1  0  0  0  0  0999 V2000
   -4.0256   -1.8030   -2.1581 C   0  0  0  0  0  0  0  0  0  0  0  0
   -3.7513   -2.6782   -2.9709 O   0  0  0  0  0  0  0  0  0  0  0  0
   -5.3491   -1.1169   -2.2339 C   0  0  0  0  0  0  0  0  0  0  0  0
   -5.3223   -0.2211   -2.8750 H   0  0  0  0  0  0  0  0  0  0  0  0
   -6.1322   -1.7605   -2.6658 H   0  0  0  0  0  0  0  0  0  0  0  0
   -5.7568   -0.7715   -1.2704 H   0  0  0  0  0  0  0  0  0  0  0  0
   -3.2124   -1.3578   -1.1289 N   0  0  0  0  0  0  0  0  0  0  0  0
   -1.8971   -1.8843   -0.8752 C   0  0  2  0  0  0  0  0  0  0  0  0
   -1.2676   -1.0599    0.2399 C   0  0  0  0  0  0  0  0  0  0  0  0
   -1.6270    0.0833    0.5138 O   0  0  0  0  0  0  0  0  0  0  0  0
   -1.0364   -1.8506   -2.1285 C   0  0  0  0  0  0  0  0  0  0  0  0
   -3.5631   -0.6202   -0.5206 H   0  0  0  0  0  0  0  0  0  0  0  0
   -2.0301   -2.9174   -0.5360 H   0  0  0  0  0  0  0  0  0  0  0  0
   -0.8921   -0.8236   -2.4833 H   0  0  0  0  0  0  0  0  0  0  0  0
   -0.0457   -2.2777   -1.9410 H   0  0  0  0  0  0  0  0  0  0  0  0
   -1.5052   -2.4193   -2.9387 H   0  0  0  0  0  0  0  0  0  0  0  0
   -0.2267   -1.7335    0.8672 N   0  0  0  0  0  0  0  0  0  0  0  0
    0.5363   -1.1590    1.9465 C   0  0  2  0  0  0  0  0  0  0  0  0
   -0.0266    0.2341    2.2039 C   0  0  0  0  0  0  0  0  0  0  0  0
   -0.5752    0.9068    1.3334 O   0  0  0  0  0  0  0  0  0  0  0  0
    2.0242   -1.0829    1.6122 C   0  0  0  0  0  0  0  0  0  0  0  0
    2.7722   -2.4193    1.5229 C   0  0  0  0  0  0  0  0  0  0  0  0
    2.2903   -3.3306    2.2565 O   0  5  0  0  0  0  0  0  0  0  0  0
    3.7694   -2.4585    0.7515 O   0  0  0  0  0  0  0  0  0  0  0  0
   -0.0113   -2.6869    0.5854 H   0  0  0  0  0  0  0  0  0  0  0  0
    0.3596   -1.7873    2.8268 H   0  0  0  0  0  0  0  0  0  0  0  0
    2.5381   -0.4577    2.3553 H   0  0  0  0  0  0  0  0  0  0  0  0
    2.1601   -0.5870    0.6423 H   0  0  0  0  0  0  0  0  0  0  0  0
    0.1097    0.6147    3.5316 N   0  0  0  0  0  0  0  0  0  0  0  0
   -0.3732    1.8790    4.0362 C   0  0  2  0  0  0  0  0  0  0  0  0
    0.5399    2.3099    5.1765 C   0  0  0  0  0  0  0  0  0  0  0  0
    1.2317    1.5208    5.8166 O   0  0  0  0  0  0  0  0  0  0  0  0
   -1.8158    1.7729    4.5055 C   0  0  0  0  0  0  0  0  0  0  0  0
    0.5350   -0.0274    4.1939 H   0  0  0  0  0  0  0  0  0  0  0  0
   -0.2955    2.5983    3.2136 H   0  0  0  0  0  0  0  0  0  0  0  0
   -1.9134    1.0567    5.3295 H   0  0  0  0  0  0  0  0  0  0  0  0
   -2.1894    2.7388    4.8611 H   0  0  0  0  0  0  0  0  0  0  0  0
   -2.4664    1.4342    3.6919 H   0  0  0  0  0  0  0  0  0  0  0  0
    0.4586    3.6732    5.4235 N   0  0  0  0  0  0  0  0  0  0  0  0
    1.2194    4.3236    6.4647 C   0  0  0  0  0  0  0  0  0  0  0  0
   -0.1269    4.2543    4.8309 H   0  0  0  0  0  0  0  0  0  0  0  0
    0.6213    4.3621    7.3870 H   0  0  0  0  0  0  0  0  0  0  0  0
    2.1442    3.7578    6.6508 H   0  0  0  0  0  0  0  0  0  0  0  0
    1.4727    5.3465    6.1491 H   0  0  0  0  0  0  0  0  0  0  0  0
  1  3  1  0  0  0  0
  1  7  1  0  0  0  0
  1  2  2  0  0  0  0
 30 31  1  0  0  0  0
 31 39  1  0  0  0  0
 31 32  2  0  0  0  0
  8  9  1  0  0  0  0
  9 17  1  0  0  0  0
  9 10  2  0  0  0  0
 18 19  1  0  0  0  0
 19 29  1  0  0  0  0
 19 20  2  0  0  0  0
 21 22  1  0  0  0  0
 22 23  1  0  0  0  0
 22 24  2  0  0  0  0
 30 33  1  0  0  0  0
  8 11  1  0  0  0  0
 39 40  1  0  0  0  0
 18 21  1  0  0  0  0
 29 30  1  0  0  0  0
  7  8  1  0  0  0  0
 17 18  1  0  0  0  0
  3  4  1  0  0  0  0
  3  5  1  0  0  0  0
  3  6  1  0  0  0  0
 33 36  1  0  0  0  0
 33 37  1  0  0  0  0
 33 38  1  0  0  0  0
 11 14  1  0  0  0  0
 11 15  1  0  0  0  0
 11 16  1  0  0  0  0
 40 42  1  0  0  0  0
 40 43  1  0  0  0  0
 40 44  1  0  0  0  0
 21 27  1  0  0  0  0
 21 28  1  0  0  0  0
 30 35  1  0  0  0  0
  8 13  1  0  0  0  0
 18 26  1  0  0  0  0
 39 41  1  0  0  0  0
  7 12  1  0  0  0  0
 29 34  1  0  0  0  0
 17 25  1  0  0  0  0
M  CHG  1  23  -1
M  END
$$$$

  -OEChem-05262214473D

 44 43  0     1  0  0  0  0  0999 V2000
   -4.0256   -1.8030   -2.1581 C   0  0  0  0  0  0  0  0  0  0  0  0
   -3.7513   -2.6782   -2.9709 O   0  0  0  0  0  0  0  0  0  0  0  0
   -5.3491   -1.1169   -2.2339 C   0  0  0  0  0  0  0  0  0  0  0  0
   -5.3223   -0.2211   -2.8750 H   0  0  0  0  0  0  0  0  0  0  0  0
   -6.1322   -1.7605   -2.6658 H   0  0  0  0  0  0  0  0  0  0  0  0
   -5.7568   -0.7715   -1.2704 H   0  0  0  0  0  0  0  0  0  0  0  0
   -3.2124   -1.3578   -1.1289 N   0  0  0  0  0  0  0  0  0  0  0  0
   -1.8971   -1.8843   -0.8752 C   0  0  2  0  0  0  0  0  0  0  0  0
   -1.2676   -1.0599    0.2399 C   0  0  0  0  0  0  0  0  0  0  0  0
   -1.6270    0.0833    0.5138 O   0  0  0  0  0  0  0  0  0  0  0  0
   -1.0364   -1.8506   -2.1285 C   0  0  0  0  0  0  0  0  0  0  0  0
   -3.5631   -0.6202   -0.5206 H   0  0  0  0  0  0  0  0  0  0  0  0
   -2.0301   -2.9174   -0.5360 H   0  0  0  0  0  0  0  0  0  0  0  0
   -0.8921   -0.8236   -2.4833 H   0  0  0  0  0  0  0  0  0  0  0  0
   -0.0457   -2.2777   -1.9410 H   0  0  0  0  0  0  0  0  0  0  0  0
   -1.5052   -2.4193   -2.9387 H   0  0  0  0  0  0  0  0  0  0  0  0
   -0.2267   -1.7335    0.8672 N   0  0  0  0  0  0  0  0  0  0  0  0
    0.5363   -1.1590    1.9465 C   0  0  2  0  0  0  0  0  0  0  0  0
   -0.0266    0.2341    2.2039 C   0  0  0  0  0  0  0  0  0  0  0  0
   -0.8002    0.7976    1.4324 O   0  0  0  0  0  0  0  0  0  0  0  0
    2.0242   -1.0829    1.6122 C   0  0  0  0  0  0  0  0  0  0  0  0
    2.7722   -2.4193    1.5229 C   0  0  0  0  0  0  0  0  0  0  0  0
    2.2903   -3.3306    2.2565 O   0  5  0  0  0  0  0  0  0  0  0  0
    3.7694   -2.4585    0.7515 O   0  0  0  0  0  0  0  0  0  0  0  0
   -0.0113   -2.6869    0.5854 H   0  0  0  0  0  0  0  0  0  0  0  0
    0.3596   -1.7873    2.8268 H   0  0  0  0  0  0  0  0  0  0  0  0
    2.5381   -0.4577    2.3553 H   0  0  0  0  0  0  0  0  0  0  0  0
    2.1601   -0.5870    0.6423 H   0  0  0  0  0  0  0  0  0  0  0  0
    0.3959    0.7508    3.4207 N   0  0  0  0  0  0  0  0  0  0  0  0
   -0.0243    2.0434    3.9097 C   0  0  2  0  0  0  0  0  0  0  0  0
    1.1054    2.6162    4.7554 C   0  0  0  0  0  0  0  0  0  0  0  0
    1.9705    1.9184    5.2805 O   0  0  0  0  0  0  0  0  0  0  0  0
   -1.3086    1.9387    4.7173 C   0  0  0  0  0  0  0  0  0  0  0  0
    0.9994    0.1929    4.0176 H   0  0  0  0  0  0  0  0  0  0  0  0
   -0.1814    2.6782    3.0309 H   0  0  0  0  0  0  0  0  0  0  0  0
   -1.1707    1.3065    5.6020 H   0  0  0  0  0  0  0  0  0  0  0  0
   -1.6412    2.9230    5.0631 H   0  0  0  0  0  0  0  0  0  0  0  0
   -2.1120    1.4990    4.1165 H   0  0  0  0  0  0  0  0  0  0  0  0
    1.0091    3.9941    4.8905 N   0  0  0  0  0  0  0  0  0  0  0  0
    1.9557    4.7704    5.6569 C   0  0  0  0  0  0  0  0  0  0  0  0
    0.2699    4.4934    4.4048 H   0  0  0  0  0  0  0  0  0  0  0  0
    1.5893    4.8824    6.6880 H   0  0  0  0  0  0  0  0  0  0  0  0
    2.9281    4.2563    5.6673 H   0  0  0  0  0  0  0  0  0  0  0  0
    2.0711    5.7638    5.1990 H   0  0  0  0  0  0  0  0  0  0  0  0
  1  3  1  0  0  0  0
  1  7  1  0  0  0  0
  1  2  2  0  0  0  0
 30 31  1  0  0  0  0
 31 39  1  0  0  0  0
 31 32  2  0  0  0  0
  8  9  1  0  0  0  0
  9 17  1  0  0  0  0
  9 10  2  0  0  0  0
 18 19  1  0  0  0  0
 19 29  1  0  0  0  0
 19 20  2  0  0  0  0
 21 22  1  0  0  0  0
 22 23  1  0  0  0  0
 22 24  2  0  0  0  0
 30 33  1  0  0  0  0
  8 11  1  0  0  0  0
 39 40  1  0  0  0  0
 18 21  1  0  0  0  0
 29 30  1  0  0  0  0
  7  8  1  0  0  0  0
 17 18  1  0  0  0  0
  3  4  1  0  0  0  0
  3  5  1  0  0  0  0
  3  6  1  0  0  0  0
 33 36  1  0  0  0  0
 33 37  1  0  0  0  0
 33 38  1  0  0  0  0
 11 14  1  0  0  0  0
 11 15  1  0  0  0  0
 11 16  1  0  0  0  0
 40 42  1  0  0  0  0
 40 43  1  0  0  0  0
 40 44  1  0  0  0  0
 21 27  1  0  0  0  0
 21 28  1  0  0  0  0
 30 35  1  0  0  0  0
  8 13  1  0  0  0  0
 18 26  1  0  0  0  0
 39 41  1  0  0  0  0
  7 12  1  0  0  0  0
 29 34  1  0  0  0  0
 17 25  1  0  0  0  0
M  CHG  1  23  -1
M  END
$$$$

  -OEChem-05262214473D

 44 43  0     1  0  0  0  0  0999 V2000
   -4.0256   -1.8030   -2.1581 C   0  0  0  0  0  0  0  0  0  0  0  0
   -3.7513   -2.6782   -2.9709 O   0  0  0  0  0  0  0  0  0  0  0  0
   -5.3491   -1.1169   -2.2339 C   0  0  0  0  0  0  0  0  0  0  0  0
   -5.3223   -0.2211   -2.8750 H   0  0  0  0  0  0  0  0  0  0  0  0
   -6.1322   -1.7605   -2.6658 H   0  0  0  0  0  0  0  0  0  0  0  0
   -5.7568   -0.7715   -1.2704 H   0  0  0  0  0  0  0  0  0  0  0  0
   -3.2124   -1.3578   -1.1289 N   0  0  0  0  0  0  0  0  0  0  0  0
   -1.8971   -1.8843   -0.8752 C   0  0  2  0  0  0  0  0  0  0  0  0
   -1.2676   -1.0599    0.2399 C   0  0  0  0  0  0  0  0  0  0  0  0
   -1.6270    0.0833    0.5138 O   0  0  0  0  0  0  0  0  0  0  0  0
   -1.0364   -1.8506   -2.1285 C   0  0  0  0  0  0  0  0  0  0  0  0
   -3.5631   -0.6202   -0.5206 H   0  0  0  0  0  0  0  0  0  0  0  0
   -2.0301   -2.9174   -0.5360 H   0  0  0  0  0  0  0  0  0  0  0  0
   -0.8921   -0.8236   -2.4833 H   0  0  0  0  0  0  0  0  0  0  0  0
   -0.0457   -2.2777   -1.9410 H   0  0  0  0  0  0  0  0  0  0  0  0
   -1.5052   -2.4193   -2.9387 H   0  0  0  0  0  0  0  0  0  0  0  0
   -0.2267   -1.7335    0.8672 N   0  0  0  0  0  0  0  0  0  0  0  0
    0.5363   -1.1590    1.9465 C   0  0  2  0  0  0  0  0  0  0  0  0
   -0.2428    0.0483    2.4555 C   0  0  0  0  0  0  0  0  0  0  0  0
   -1.3388    0.3770    2.0062 O   0  0  0  0  0  0  0  0  0  0  0  0
    1.9345   -0.7436    1.4950 C   0  0  0  0  0  0  0  0  0  0  0  0
    2.9032   -1.8799    1.1433 C   0  0  0  0  0  0  0  0  0  0  0  0
    2.6888   -2.9551    1.7749 O   0  5  0  0  0  0  0  0  0  0  0  0
    3.7932   -1.6198    0.2882 O   0  0  0  0  0  0  0  0  0  0  0  0
   -0.0113   -2.6869    0.5854 H   0  0  0  0  0  0  0  0  0  0  0  0
    0.5840   -1.9165    2.7370 H   0  0  0  0  0  0  0  0  0  0  0  0
    2.4058   -0.1273    2.2729 H   0  0  0  0  0  0  0  0  0  0  0  0
    1.8614   -0.1115    0.6004 H   0  0  0  0  0  0  0  0  0  0  0  0
    0.4064    0.6833    3.5051 N   0  0  0  0  0  0  0  0  0  0  0  0
   -0.1425    1.8354    4.1818 C   0  0  2  0  0  0  0  0  0  0  0  0
    1.0184    2.6978    4.6592 C   0  0  0  0  0  0  0  0  0  0  0  0
    2.1521    2.2573    4.8380 O   0  0  0  0  0  0  0  0  0  0  0  0
   -1.0283    1.4228    5.3470 C   0  0  0  0  0  0  0  0  0  0  0  0
    1.2894    0.3125    3.8436 H   0  0  0  0  0  0  0  0  0  0  0  0
   -0.7282    2.3888    3.4396 H   0  0  0  0  0  0  0  0  0  0  0  0
   -0.4589    0.8671    6.1010 H   0  0  0  0  0  0  0  0  0  0  0  0
   -1.4663    2.2962    5.8412 H   0  0  0  0  0  0  0  0  0  0  0  0
   -1.8456    0.7782    5.0061 H   0  0  0  0  0  0  0  0  0  0  0  0
    0.6297    4.0075    4.9035 N   0  0  0  0  0  0  0  0  0  0  0  0
    1.5471    5.0177    5.3767 C   0  0  0  0  0  0  0  0  0  0  0  0
   -0.3267    4.2893    4.7096 H   0  0  0  0  0  0  0  0  0  0  0  0
    1.5173    5.0550    6.4757 H   0  0  0  0  0  0  0  0  0  0  0  0
    2.5667    4.7707    5.0459 H   0  0  0  0  0  0  0  0  0  0  0  0
    1.2563    5.9970    4.9687 H   0  0  0  0  0  0  0  0  0  0  0  0
  1  3  1  0  0  0  0
  1  7  1  0  0  0  0
  1  2  2  0  0  0  0
 30 31  1  0  0  0  0
 31 39  1  0  0  0  0
 31 32  2  0  0  0  0
  8  9  1  0  0  0  0
  9 17  1  0  0  0  0
  9 10  2  0  0  0  0
 18 19  1  0  0  0  0
 19 29  1  0  0  0  0
 19 20  2  0  0  0  0
 21 22  1  0  0  0  0
 22 23  1  0  0  0  0
 22 24  2  0  0  0  0
 30 33  1  0  0  0  0
  8 11  1  0  0  0  0
 39 40  1  0  0  0  0
 18 21  1  0  0  0  0
 29 30  1  0  0  0  0
  7  8  1  0  0  0  0
 17 18  1  0  0  0  0
  3  4  1  0  0  0  0
  3  5  1  0  0  0  0
  3  6  1  0  0  0  0
 33 36  1  0  0  0  0
 33 37  1  0  0  0  0
 33 38  1  0  0  0  0
 11 14  1  0  0  0  0
 11 15  1  0  0  0  0
 11 16  1  0  0  0  0
 40 42  1  0  0  0  0
 40 43  1  0  0  0  0
 40 44  1  0  0  0  0
 21 27  1  0  0  0  0
 21 28  1  0  0  0  0
 30 35  1  0  0  0  0
  8 13  1  0  0  0  0
 18 26  1  0  0  0  0
 39 41  1  0  0  0  0
  7 12  1  0  0  0  0
 29 34  1  0  0  0  0
 17 25  1  0  0  0  0
M  CHG  1  23  -1
M  END
$$$$

  -OEChem-05262214473D

 44 43  0     1  0  0  0  0  0999 V2000
   -4.0256   -1.8030   -2.1581 C   0  0  0  0  0  0  0  0  0  0  0  0
   -3.7513   -2.6782   -2.9709 O   0  0  0  0  0  0  0  0  0  0  0  0
   -5.3491   -1.1169   -2.2339 C   0  0  0  0  0  0  0  0  0  0  0  0
   -5.3223   -0.2211   -2.8750 H   0  0  0  0  0  0  0  0  0  0  0  0
   -6.1322   -1.7605   -2.6658 H   0  0  0  0  0  0  0  0  0  0  0  0
   -5.7568   -0.7715   -1.2704 H   0  0  0  0  0  0  0  0  0  0  0  0
   -3.2124   -1.3578   -1.1289 N   0  0  0  0  0  0  0  0  0  0  0  0
   -1.8971   -1.8843   -0.8752 C   0  0  2  0  0  0  0  0  0  0  0  0
   -1.2676   -1.0599    0.2399 C   0  0  0  0  0  0  0  0  0  0  0  0
   -1.6270    0.0833    0.5138 O   0  0  0  0  0  0  0  0  0  0  0  0
   -1.0364   -1.8506   -2.1285 C   0  0  0  0  0  0  0  0  0  0  0  0
   -3.5631   -0.6202   -0.5206 H   0  0  0  0  0  0  0  0  0  0  0  0
   -2.0301   -2.9174   -0.5360 H   0  0  0  0  0  0  0  0  0  0  0  0
   -0.8921   -0.8236   -2.4833 H   0  0  0  0  0  0  0  0  0  0  0  0
   -0.0457   -2.2777   -1.9410 H   0  0  0  0  0  0  0  0  0  0  0  0
   -1.5052   -2.4193   -2.9387 H   0  0  0  0  0  0  0  0  0  0  0  0
   -0.2267   -1.7335    0.8672 N   0  0  0  0  0  0  0  0  0  0  0  0
    0.5363   -1.1590    1.9465 C   0  0  2  0  0  0  0  0  0  0  0  0
   -0.2428    0.0483    2.4555 C   0  0  0  0  0  0  0  0  0  0  0  0
   -1.4336    0.2298    2.2103 O   0  0  0  0  0  0  0  0  0  0  0  0
    1.9345   -0.7436    1.4950 C   0  0  0  0  0  0  0  0  0  0  0  0
    2.9032   -1.8799    1.1433 C   0  0  0  0  0  0  0  0  0  0  0  0
    2.6888   -2.9551    1.7749 O   0  5  0  0  0  0  0  0  0  0  0  0
    3.7932   -1.6198    0.2882 O   0  0  0  0  0  0  0  0  0  0  0  0
   -0.0113   -2.6869    0.5854 H   0  0  0  0  0  0  0  0  0  0  0  0
    0.5840   -1.9165    2.7370 H   0  0  0  0  0  0  0  0  0  0  0  0
    2.4058   -0.1273    2.2729 H   0  0  0  0  0  0  0  0  0  0  0  0
    1.8614   -0.1115    0.6004 H   0  0  0  0  0  0  0  0  0  0  0  0
    0.5355    0.8707    3.2582 N   0  0  0  0  0  0  0  0  0  0  0  0
    0.0197    2.0639    3.8881 C   0  0  2  0  0  0  0  0  0  0  0  0
    1.1601    3.0671    4.0001 C   0  0  0  0  0  0  0  0  0  0  0  0
    2.3449    2.7398    3.9887 O   0  0  0  0  0  0  0  0  0  0  0  0
   -0.5703    1.7568    5.2557 C   0  0  0  0  0  0  0  0  0  0  0  0
    1.5008    0.6166    3.4461 H   0  0  0  0  0  0  0  0  0  0  0  0
   -0.7545    2.4628    3.2236 H   0  0  0  0  0  0  0  0  0  0  0  0
    0.1906    1.3560    5.9353 H   0  0  0  0  0  0  0  0  0  0  0  0
   -0.9865    2.6571    5.7195 H   0  0  0  0  0  0  0  0  0  0  0  0
   -1.3704    1.0128    5.1768 H   0  0  0  0  0  0  0  0  0  0  0  0
    0.6985    4.3665    4.1575 N   0  0  0  0  0  0  0  0  0  0  0  0
    1.5858    5.4973    4.2984 C   0  0  0  0  0  0  0  0  0  0  0  0
   -0.3007    4.5478    4.1363 H   0  0  0  0  0  0  0  0  0  0  0  0
    1.7719    5.6872    5.3658 H   0  0  0  0  0  0  0  0  0  0  0  0
    2.5386    5.2808    3.7931 H   0  0  0  0  0  0  0  0  0  0  0  0
    1.1230    6.3854    3.8434 H   0  0  0  0  0  0  0  0  0  0  0  0
  1  3  1  0  0  0  0
  1  7  1  0  0  0  0
  1  2  2  0  0  0  0
 30 31  1  0  0  0  0
 31 39  1  0  0  0  0
 31 32  2  0  0  0  0
  8  9  1  0  0  0  0
  9 17  1  0  0  0  0
  9 10  2  0  0  0  0
 18 19  1  0  0  0  0
 19 29  1  0  0  0  0
 19 20  2  0  0  0  0
 21 22  1  0  0  0  0
 22 23  1  0  0  0  0
 22 24  2  0  0  0  0
 30 33  1  0  0  0  0
  8 11  1  0  0  0  0
 39 40  1  0  0  0  0
 18 21  1  0  0  0  0
 29 30  1  0  0  0  0
  7  8  1  0  0  0  0
 17 18  1  0  0  0  0
  3  4  1  0  0  0  0
  3  5  1  0  0  0  0
  3  6  1  0  0  0  0
 33 36  1  0  0  0  0
 33 37  1  0  0  0  0
 33 38  1  0  0  0  0
 11 14  1  0  0  0  0
 11 15  1  0  0  0  0
 11 16  1  0  0  0  0
 40 42  1  0  0  0  0
 40 43  1  0  0  0  0
 40 44  1  0  0  0  0
 21 27  1  0  0  0  0
 21 28  1  0  0  0  0
 30 35  1  0  0  0  0
  8 13  1  0  0  0  0
 18 26  1  0  0  0  0
 39 41  1  0  0  0  0
  7 12  1  0  0  0  0
 29 34  1  0  0  0  0
 17 25  1  0  0  0  0
M  CHG  1  23  -1
M  END
$$$$

  -OEChem-05262214473D

 44 43  0     1  0  0  0  0  0999 V2000
   -4.0256   -1.8030   -2.1581 C   0  0  0  0  0  0  0  0  0  0  0  0
   -3.7513   -2.6782   -2.9709 O   0  0  0  0  0  0  0  0  0  0  0  0
   -5.3491   -1.1169   -2.2339 C   0  0  0  0  0  0  0  0  0  0  0  0
   -5.3223   -0.2211   -2.8750 H   0  0  0  0  0  0  0  0  0  0  0  0
   -6.1322   -1.7605   -2.6658 H   0  0  0  0  0  0  0  0  0  0  0  0
   -5.7568   -0.7715   -1.2704 H   0  0  0  0  0  0  0  0  0  0  0  0
   -3.2124   -1.3578   -1.1289 N   0  0  0  0  0  0  0  0  0  0  0  0
   -1.8971   -1.8843   -0.8752 C   0  0  2  0  0  0  0  0  0  0  0  0
   -1.2676   -1.0599    0.2399 C   0  0  0  0  0  0  0  0  0  0  0  0
   -1.6270    0.0833    0.5138 O   0  0  0  0  0  0  0  0  0  0  0  0
   -1.0364   -1.8506   -2.1285 C   0  0  0  0  0  0  0  0  0  0  0  0
   -3.5631   -0.6202   -0.5206 H   0  0  0  0  0  0  0  0  0  0  0  0
   -2.0301   -2.9174   -0.5360 H   0  0  0  0  0  0  0  0  0  0  0  0
   -0.8921   -0.8236   -2.4833 H   0  0  0  0  0  0  0  0  0  0  0  0
   -0.0457   -2.2777   -1.9410 H   0  0  0  0  0  0  0  0  0  0  0  0
   -1.5052   -2.4193   -2.9387 H   0  0  0  0  0  0  0  0  0  0  0  0
   -0.2267   -1.7335    0.8672 N   0  0  0  0  0  0  0  0  0  0  0  0
    0.5363   -1.1590    1.9465 C   0  0  2  0  0  0  0  0  0  0  0  0
   -0.2428    0.0483    2.4555 C   0  0  0  0  0  0  0  0  0  0  0  0
   -1.4707    0.1063    2.4464 O   0  0  0  0  0  0  0  0  0  0  0  0
    1.9345   -0.7436    1.4950 C   0  0  0  0  0  0  0  0  0  0  0  0
    2.9032   -1.8799    1.1433 C   0  0  0  0  0  0  0  0  0  0  0  0
    2.6888   -2.9551    1.7749 O   0  5  0  0  0  0  0  0  0  0  0  0
    3.7932   -1.6198    0.2882 O   0  0  0  0  0  0  0  0  0  0  0  0
   -0.0113   -2.6869    0.5854 H   0  0  0  0  0  0  0  0  0  0  0  0
    0.5840   -1.9165    2.7370 H   0  0  0  0  0  0  0  0  0  0  0  0
    2.4058   -0.1273    2.2729 H   0  0  0  0  0  0  0  0  0  0  0  0
    1.8614   -0.1115    0.6004 H   0  0  0  0  0  0  0  0  0  0  0  0
    0.5933    1.0302    2.9685 N   0  0  0  0  0  0  0  0  0  0  0  0
    0.0964    2.2597    3.5410 C   0  0  2  0  0  0  0  0  0  0  0  0
    1.1298    3.3489    3.2855 C   0  0  0  0  0  0  0  0  0  0  0  0
    2.3154    3.1102    3.0651 O   0  0  0  0  0  0  0  0  0  0  0  0
   -0.1756    2.1069    5.0294 C   0  0  0  0  0  0  0  0  0  0  0  0
    1.5973    0.8759    2.9785 H   0  0  0  0  0  0  0  0  0  0  0  0
   -0.8307    2.5035    3.0107 H   0  0  0  0  0  0  0  0  0  0  0  0
    0.7417    1.8625    5.5774 H   0  0  0  0  0  0  0  0  0  0  0  0
   -0.5791    3.0311    5.4559 H   0  0  0  0  0  0  0  0  0  0  0  0
   -0.8967    1.3031    5.2133 H   0  0  0  0  0  0  0  0  0  0  0  0
    0.5810    4.6205    3.3753 N   0  0  0  0  0  0  0  0  0  0  0  0
    1.3607    5.8213    3.1855 C   0  0  0  0  0  0  0  0  0  0  0  0
   -0.4154    4.7239    3.5430 H   0  0  0  0  0  0  0  0  0  0  0  0
    1.7357    6.1731    4.1580 H   0  0  0  0  0  0  0  0  0  0  0  0
    2.2106    5.6054    2.5214 H   0  0  0  0  0  0  0  0  0  0  0  0
    0.7299    6.6002    2.7324 H   0  0  0  0  0  0  0  0  0  0  0  0
  1  3  1  0  0  0  0
  1  7  1  0  0  0  0
  1  2  2  0  0  0  0
 30 31  1  0  0  0  0
 31 39  1  0  0  0  0
 31 32  2  0  0  0  0
  8  9  1  0  0  0  0
  9 17  1  0  0  0  0
  9 10  2  0  0  0  0
 18 19  1  0  0  0  0
 19 29  1  0  0  0  0
 19 20  2  0  0  0  0
 21 22  1  0  0  0  0
 22 23  1  0  0  0  0
 22 24  2  0  0  0  0
 30 33  1  0  0  0  0
  8 11  1  0  0  0  0
 39 40  1  0  0  0  0
 18 21  1  0  0  0  0
 29 30  1  0  0  0  0
  7  8  1  0  0  0  0
 17 18  1  0  0  0  0
  3  4  1  0  0  0  0
  3  5  1  0  0  0  0
  3  6  1  0  0  0  0
 33 36  1  0  0  0  0
 33 37  1  0  0  0  0
 33 38  1  0  0  0  0
 11 14  1  0  0  0  0
 11 15  1  0  0  0  0
 11 16  1  0  0  0  0
 40 42  1  0  0  0  0
 40 43  1  0  0  0  0
 40 44  1  0  0  0  0
 21 27  1  0  0  0  0
 21 28  1  0  0  0  0
 30 35  1  0  0  0  0
  8 13  1  0  0  0  0
 18 26  1  0  0  0  0
 39 41  1  0  0  0  0
  7 12  1  0  0  0  0
 29 34  1  0  0  0  0
 17 25  1  0  0  0  0
M  CHG  1  23  -1
M  END
$$$$

  -OEChem-05262214473D

 44 43  0     1  0  0  0  0  0999 V2000
   -4.0256   -1.8030   -2.1581 C   0  0  0  0  0  0  0  0  0  0  0  0
   -3.7513   -2.6782   -2.9709 O   0  0  0  0  0  0  0  0  0  0  0  0
   -5.3491   -1.1169   -2.2339 C   0  0  0  0  0  0  0  0  0  0  0  0
   -5.3223   -0.2211   -2.8750 H   0  0  0  0  0  0  0  0  0  0  0  0
   -6.1322   -1.7605   -2.6658 H   0  0  0  0  0  0  0  0  0  0  0  0
   -5.7568   -0.7715   -1.2704 H   0  0  0  0  0  0  0  0  0  0  0  0
   -3.2124   -1.3578   -1.1289 N   0  0  0  0  0  0  0  0  0  0  0  0
   -1.8971   -1.8843   -0.8752 C   0  0  2  0  0  0  0  0  0  0  0  0
   -1.2676   -1.0599    0.2399 C   0  0  0  0  0  0  0  0  0  0  0  0
   -1.6270    0.0833    0.5138 O   0  0  0  0  0  0  0  0  0  0  0  0
   -1.0364   -1.8506   -2.1285 C   0  0  0  0  0  0  0  0  0  0  0  0
   -3.5631   -0.6202   -0.5206 H   0  0  0  0  0  0  0  0  0  0  0  0
   -2.0301   -2.9174   -0.5360 H   0  0  0  0  0  0  0  0  0  0  0  0
   -0.8921   -0.8236   -2.4833 H   0  0  0  0  0  0  0  0  0  0  0  0
   -0.0457   -2.2777   -1.9410 H   0  0  0  0  0  0  0  0  0  0  0  0
   -1.5052   -2.4193   -2.9387 H   0  0  0  0  0  0  0  0  0  0  0  0
   -0.2267   -1.7335    0.8672 N   0  0  0  0  0  0  0  0  0  0  0  0
    0.5363   -1.1590    1.9465 C   0  0  2  0  0  0  0  0  0  0  0  0
   -0.2428    0.0483    2.4555 C   0  0  0  0  0  0  0  0  0  0  0  0
   -1.4474    0.0151    2.6984 O   0  0  0  0  0  0  0  0  0  0  0  0
    1.9345   -0.7436    1.4950 C   0  0  0  0  0  0  0  0  0  0  0  0
    2.9032   -1.8799    1.1433 C   0  0  0  0  0  0  0  0  0  0  0  0
    2.6888   -2.9551    1.7749 O   0  5  0  0  0  0  0  0  0  0  0  0
    3.7932   -1.6198    0.2882 O   0  0  0  0  0  0  0  0  0  0  0  0
   -0.0113   -2.6869    0.5854 H   0  0  0  0  0  0  0  0  0  0  0  0
    0.5840   -1.9165    2.7370 H   0  0  0  0  0  0  0  0  0  0  0  0
    2.4058   -0.1273    2.2729 H   0  0  0  0  0  0  0  0  0  0  0  0
    1.8614   -0.1115    0.6004 H   0  0  0  0  0  0  0  0  0  0  0  0
    0.5760    1.1510    2.6557 N   0  0  0  0  0  0  0  0  0  0  0  0
    0.0824    2.4096    3.1640 C   0  0  2  0  0  0  0  0  0  0  0  0
    0.9298    3.5239    2.5642 C   0  0  0  0  0  0  0  0  0  0  0  0
    2.0655    3.3433    2.1299 O   0  0  0  0  0  0  0  0  0  0  0  0
    0.1290    2.4493    4.6836 C   0  0  0  0  0  0  0  0  0  0  0  0
    1.5722    1.0730    2.4727 H   0  0  0  0  0  0  0  0  0  0  0  0
   -0.9514    2.5080    2.8152 H   0  0  0  0  0  0  0  0  0  0  0  0
    1.1569    2.3521    5.0517 H   0  0  0  0  0  0  0  0  0  0  0  0
   -0.2720    3.3927    5.0684 H   0  0  0  0  0  0  0  0  0  0  0  0
   -0.4567    1.6293    5.1130 H   0  0  0  0  0  0  0  0  0  0  0  0
    0.2852    4.7522    2.6102 N   0  0  0  0  0  0  0  0  0  0  0  0
    0.8872    5.9676    2.1138 C   0  0  0  0  0  0  0  0  0  0  0  0
   -0.6631    4.8057    2.9702 H   0  0  0  0  0  0  0  0  0  0  0  0
    1.4111    6.4796    2.9344 H   0  0  0  0  0  0  0  0  0  0  0  0
    1.6050    5.7223    1.3172 H   0  0  0  0  0  0  0  0  0  0  0  0
    0.1039    6.6267    1.7114 H   0  0  0  0  0  0  0  0  0  0  0  0
  1  3  1  0  0  0  0
  1  7  1  0  0  0  0
  1  2  2  0  0  0  0
 30 31  1  0  0  0  0
 31 39  1  0  0  0  0
 31 32  2  0  0  0  0
  8  9  1  0  0  0  0
  9 17  1  0  0  0  0
  9 10  2  0  0  0  0
 18 19  1  0  0  0  0
 19 29  1  0  0  0  0
 19 20  2  0  0  0  0
 21 22  1  0  0  0  0
 22 23  1  0  0  0  0
 22 24  2  0  0  0  0
 30 33  1  0  0  0  0
  8 11  1  0  0  0  0
 39 40  1  0  0  0  0
 18 21  1  0  0  0  0
 29 30  1  0  0  0  0
  7  8  1  0  0  0  0
 17 18  1  0  0  0  0
  3  4  1  0  0  0  0
  3  5  1  0  0  0  0
  3  6  1  0  0  0  0
 33 36  1  0  0  0  0
 33 37  1  0  0  0  0
 33 38  1  0  0  0  0
 11 14  1  0  0  0  0
 11 15  1  0  0  0  0
 11 16  1  0  0  0  0
 40 42  1  0  0  0  0
 40 43  1  0  0  0  0
 40 44  1  0  0  0  0
 21 27  1  0  0  0  0
 21 28  1  0  0  0  0
 30 35  1  0  0  0  0
  8 13  1  0  0  0  0
 18 26  1  0  0  0  0
 39 41  1  0  0  0  0
  7 12  1  0  0  0  0
 29 34  1  0  0  0  0
 17 25  1  0  0  0  0
M  CHG  1  23  -1
M  END
$$$$

  -OEChem-05262214473D

 44 43  0     1  0  0  0  0  0999 V2000
   -4.0256   -1.8030   -2.1581 C   0  0  0  0  0  0  0  0  0  0  0  0
   -3.7513   -2.6782   -2.9709 O   0  0  0  0  0  0  0  0  0  0  0  0
   -5.3491   -1.1169   -2.2339 C   0  0  0  0  0  0  0  0  0  0  0  0
   -5.3223   -0.2211   -2.8750 H   0  0  0  0  0  0  0  0  0  0  0  0
   -6.1322   -1.7605   -2.6658 H   0  0  0  0  0  0  0  0  0  0  0  0
   -5.7568   -0.7715   -1.2704 H   0  0  0  0  0  0  0  0  0  0  0  0
   -3.2124   -1.3578   -1.1289 N   0  0  0  0  0  0  0  0  0  0  0  0
   -1.8971   -1.8843   -0.8752 C   0  0  2  0  0  0  0  0  0  0  0  0
   -1.2676   -1.0599    0.2399 C   0  0  0  0  0  0  0  0  0  0  0  0
   -1.6270    0.0833    0.5138 O   0  0  0  0  0  0  0  0  0  0  0  0
   -1.0364   -1.8506   -2.1285 C   0  0  0  0  0  0  0  0  0  0  0  0
   -3.5631   -0.6202   -0.5206 H   0  0  0  0  0  0  0  0  0  0  0  0
   -2.0301   -2.9174   -0.5360 H   0  0  0  0  0  0  0  0  0  0  0  0
   -0.8921   -0.8236   -2.4833 H   0  0  0  0  0  0  0  0  0  0  0  0
   -0.0457   -2.2777   -1.9410 H   0  0  0  0  0  0  0  0  0  0  0  0
   -1.5052   -2.4193   -2.9387 H   0  0  0  0  0  0  0  0  0  0  0  0
   -0.2267   -1.7335    0.8672 N   0  0  0  0  0  0  0  0  0  0  0  0
    0.5363   -1.1590    1.9465 C   0  0  2  0  0  0  0  0  0  0  0  0
   -0.2428    0.0483    2.4555 C   0  0  0  0  0  0  0  0  0  0  0  0
   -1.3654   -0.0377    2.9491 O   0  0  0  0  0  0  0  0  0  0  0  0
    1.9345   -0.7436    1.4950 C   0  0  0  0  0  0  0  0  0  0  0  0
    2.9032   -1.8799    1.1433 C   0  0  0  0  0  0  0  0  0  0  0  0
    2.6888   -2.9551    1.7749 O   0  5  0  0  0  0  0  0  0  0  0  0
    3.7932   -1.6198    0.2882 O   0  0  0  0  0  0  0  0  0  0  0  0
   -0.0113   -2.6869    0.5854 H   0  0  0  0  0  0  0  0  0  0  0  0
    0.5840   -1.9165    2.7370 H   0  0  0  0  0  0  0  0  0  0  0  0
    2.4058   -0.1273    2.2729 H   0  0  0  0  0  0  0  0  0  0  0  0
    1.8614   -0.1115    0.6004 H   0  0  0  0  0  0  0  0  0  0  0  0
    0.4848    1.2247    2.3411 N   0  0  0  0  0  0  0  0  0  0  0  0
   -0.0213    2.5034    2.7830 C   0  0  2  0  0  0  0  0  0  0  0  0
    0.5736    3.5803    1.8853 C   0  0  0  0  0  0  0  0  0  0  0  0
    1.6123    3.4231    1.2471 O   0  0  0  0  0  0  0  0  0  0  0  0
    0.3228    2.7606    4.2418 C   0  0  0  0  0  0  0  0  0  0  0  0
    1.4272    1.1942    1.9633 H   0  0  0  0  0  0  0  0  0  0  0  0
   -1.1084    2.4761    2.6505 H   0  0  0  0  0  0  0  0  0  0  0  0
    1.4079    2.7913    4.3941 H   0  0  0  0  0  0  0  0  0  0  0  0
   -0.0860    3.7173    4.5832 H   0  0  0  0  0  0  0  0  0  0  0  0
   -0.0805    1.9692    4.8827 H   0  0  0  0  0  0  0  0  0  0  0  0
   -0.1687    4.7526    1.9144 N   0  0  0  0  0  0  0  0  0  0  0  0
    0.1974    5.9262    1.1564 C   0  0  0  0  0  0  0  0  0  0  0  0
   -1.0268    4.7874    2.4569 H   0  0  0  0  0  0  0  0  0  0  0  0
    0.8203    6.5857    1.7786 H   0  0  0  0  0  0  0  0  0  0  0  0
    0.7631    5.6237    0.2628 H   0  0  0  0  0  0  0  0  0  0  0  0
   -0.7124    6.4632    0.8500 H   0  0  0  0  0  0  0  0  0  0  0  0
  1  3  1  0  0  0  0
  1  7  1  0  0  0  0
  1  2  2  0  0  0  0
 30 31  1  0  0  0  0
 31 39  1  0  0  0  0
 31 32  2  0  0  0  0
  8  9  1  0  0  0  0
  9 17  1  0  0  0  0
  9 10  2  0  0  0  0
 18 19  1  0  0  0  0
 19 29  1  0  0  0  0
 19 20  2  0  0  0  0
 21 22  1  0  0  0  0
 22 23  1  0  0  0  0
 22 24  2  0  0  0  0
 30 33  1  0  0  0  0
  8 11  1  0  0  0  0
 39 40  1  0  0  0  0
 18 21  1  0  0  0  0
 29 30  1  0  0  0  0
  7  8  1  0  0  0  0
 17 18  1  0  0  0  0
  3  4  1  0  0  0  0
  3  5  1  0  0  0  0
  3  6  1  0  0  0  0
 33 36  1  0  0  0  0
 33 37  1  0  0  0  0
 33 38  1  0  0  0  0
 11 14  1  0  0  0  0
 11 15  1  0  0  0  0
 11 16  1  0  0  0  0
 40 42  1  0  0  0  0
 40 43  1  0  0  0  0
 40 44  1  0  0  0  0
 21 27  1  0  0  0  0
 21 28  1  0  0  0  0
 30 35  1  0  0  0  0
  8 13  1  0  0  0  0
 18 26  1  0  0  0  0
 39 41  1  0  0  0  0
  7 12  1  0  0  0  0
 29 34  1  0  0  0  0
 17 25  1  0  0  0  0
M  CHG  1  23  -1
M  END
$$$$

  -OEChem-05262214473D

 44 43  0     1  0  0  0  0  0999 V2000
   -4.0256   -1.8030   -2.1581 C   0  0  0  0  0  0  0  0  0  0  0  0
   -3.7513   -2.6782   -2.9709 O   0  0  0  0  0  0  0  0  0  0  0  0
   -5.3491   -1.1169   -2.2339 C   0  0  0  0  0  0  0  0  0  0  0  0
   -5.3223   -0.2211   -2.8750 H   0  0  0  0  0  0  0  0  0  0  0  0
   -6.1322   -1.7605   -2.6658 H   0  0  0  0  0  0  0  0  0  0  0  0
   -5.7568   -0.7715   -1.2704 H   0  0  0  0  0  0  0  0  0  0  0  0
   -3.2124   -1.3578   -1.1289 N   0  0  0  0  0  0  0  0  0  0  0  0
   -1.8971   -1.8843   -0.8752 C   0  0  2  0  0  0  0  0  0  0  0  0
   -1.2676   -1.0599    0.2399 C   0  0  0  0  0  0  0  0  0  0  0  0
   -1.6270    0.0833    0.5138 O   0  0  0  0  0  0  0  0  0  0  0  0
   -1.0364   -1.8506   -2.1285 C   0  0  0  0  0  0  0  0  0  0  0  0
   -3.5631   -0.6202   -0.5206 H   0  0  0  0  0  0  0  0  0  0  0  0
   -2.0301   -2.9174   -0.5360 H   0  0  0  0  0  0  0  0  0  0  0  0
   -0.8921   -0.8236   -2.4833 H   0  0  0  0  0  0  0  0  0  0  0  0
   -0.0457   -2.2777   -1.9410 H   0  0  0  0  0  0  0  0  0  0  0  0
   -1.5052   -2.4193   -2.9387 H   0  0  0  0  0  0  0  0  0  0  0  0
   -0.2267   -1.7335    0.8672 N   0  0  0  0  0  0  0  0  0  0  0  0
    0.5363   -1.1590    1.9465 C   0  0  2  0  0  0  0  0  0  0  0  0
   -0.2428    0.0483    2.4555 C   0  0  0  0  0  0  0  0  0  0  0  0
   -1.2302   -0.0484    3.1814 O   0  0  0  0  0  0  0  0  0  0  0  0
    1.9345   -0.7436    1.4950 C   0  0  0  0  0  0  0  0  0  0  0  0
    2.9032   -1.8799    1.1433 C   0  0  0  0  0  0  0  0  0  0  0  0
    2.6888   -2.9551    1.7749 O   0  5  0  0  0  0  0  0  0  0  0  0
    3.7932   -1.6198    0.2882 O   0  0  0  0  0  0  0  0  0  0  0  0
   -0.0113   -2.6869    0.5854 H   0  0  0  0  0  0  0  0  0  0  0  0
    0.5840   -1.9165    2.7370 H   0  0  0  0  0  0  0  0  0  0  0  0
    2.4058   -0.1273    2.2729 H   0  0  0  0  0  0  0  0  0  0  0  0
    1.8614   -0.1115    0.6004 H   0  0  0  0  0  0  0  0  0  0  0  0
    0.3258    1.2465    2.0462 N   0  0  0  0  0  0  0  0  0  0  0  0
   -0.2077    2.5345    2.4238 C   0  0  2  0  0  0  0  0  0  0  0  0
    0.0855    3.5142    1.2951 C   0  0  0  0  0  0  0  0  0  0  0  0
    0.9867    3.3443    0.4766 O   0  0  0  0  0  0  0  0  0  0  0  0
    0.3925    3.0196    3.7342 C   0  0  0  0  0  0  0  0  0  0  0  0
    1.1723    1.2314    1.4850 H   0  0  0  0  0  0  0  0  0  0  0  0
   -1.2911    2.4100    2.5278 H   0  0  0  0  0  0  0  0  0  0  0  0
    1.4775    3.1502    3.6494 H   0  0  0  0  0  0  0  0  0  0  0  0
   -0.0339    3.9827    4.0335 H   0  0  0  0  0  0  0  0  0  0  0  0
    0.2064    2.2995    4.5383 H   0  0  0  0  0  0  0  0  0  0  0  0
   -0.7498    4.6218    1.3353 N   0  0  0  0  0  0  0  0  0  0  0  0
   -0.6615    5.7000    0.3784 C   0  0  0  0  0  0  0  0  0  0  0  0
   -1.4817    4.6705    2.0380 H   0  0  0  0  0  0  0  0  0  0  0  0
    0.0035    6.4843    0.7692 H   0  0  0  0  0  0  0  0  0  0  0  0
   -0.2577    5.3161   -0.5701 H   0  0  0  0  0  0  0  0  0  0  0  0
   -1.6633    6.1208    0.2069 H   0  0  0  0  0  0  0  0  0  0  0  0
  1  3  1  0  0  0  0
  1  7  1  0  0  0  0
  1  2  2  0  0  0  0
 30 31  1  0  0  0  0
 31 39  1  0  0  0  0
 31 32  2  0  0  0  0
  8  9  1  0  0  0  0
  9 17  1  0  0  0  0
  9 10  2  0  0  0  0
 18 19  1  0  0  0  0
 19 29  1  0  0  0  0
 19 20  2  0  0  0  0
 21 22  1  0  0  0  0
 22 23  1  0  0  0  0
 22 24  2  0  0  0  0
 30 33  1  0  0  0  0
  8 11  1  0  0  0  0
 39 40  1  0  0  0  0
 18 21  1  0  0  0  0
 29 30  1  0  0  0  0
  7  8  1  0  0  0  0
 17 18  1  0  0  0  0
  3  4  1  0  0  0  0
  3  5  1  0  0  0  0
  3  6  1  0  0  0  0
 33 36  1  0  0  0  0
 33 37  1  0  0  0  0
 33 38  1  0  0  0  0
 11 14  1  0  0  0  0
 11 15  1  0  0  0  0
 11 16  1  0  0  0  0
 40 42  1  0  0  0  0
 40 43  1  0  0  0  0
 40 44  1  0  0  0  0
 21 27  1  0  0  0  0
 21 28  1  0  0  0  0
 30 35  1  0  0  0  0
  8 13  1  0  0  0  0
 18 26  1  0  0  0  0
 39 41  1  0  0  0  0
  7 12  1  0  0  0  0
 29 34  1  0  0  0  0
 17 25  1  0  0  0  0
M  CHG  1  23  -1
M  END
$$$$

  -OEChem-05262214473D

 44 43  0     1  0  0  0  0  0999 V2000
   -4.0256   -1.8030   -2.1581 C   0  0  0  0  0  0  0  0  0  0  0  0
   -3.7513   -2.6782   -2.9709 O   0  0  0  0  0  0  0  0  0  0  0  0
   -5.3491   -1.1169   -2.2339 C   0  0  0  0  0  0  0  0  0  0  0  0
   -5.3223   -0.2211   -2.8750 H   0  0  0  0  0  0  0  0  0  0  0  0
   -6.1322   -1.7605   -2.6658 H   0  0  0  0  0  0  0  0  0  0  0  0
   -5.7568   -0.7715   -1.2704 H   0  0  0  0  0  0  0  0  0  0  0  0
   -3.2124   -1.3578   -1.1289 N   0  0  0  0  0  0  0  0  0  0  0  0
   -1.8971   -1.8843   -0.8752 C   0  0  2  0  0  0  0  0  0  0  0  0
   -1.2676   -1.0599    0.2399 C   0  0  0  0  0  0  0  0  0  0  0  0
   -1.6270    0.0833    0.5138 O   0  0  0  0  0  0  0  0  0  0  0  0
   -1.0364   -1.8506   -2.1285 C   0  0  0  0  0  0  0  0  0  0  0  0
   -3.5631   -0.6202   -0.5206 H   0  0  0  0  0  0  0  0  0  0  0  0
   -2.0301   -2.9174   -0.5360 H   0  0  0  0  0  0  0  0  0  0  0  0
   -0.8921   -0.8236   -2.4833 H   0  0  0  0  0  0  0  0  0  0  0  0
   -0.0457   -2.2777   -1.9410 H   0  0  0  0  0  0  0  0  0  0  0  0
   -1.5052   -2.4193   -2.9387 H   0  0  0  0  0  0  0  0  0  0  0  0
   -0.2267   -1.7335    0.8672 N   0  0  0  0  0  0  0  0  0  0  0  0
    0.5363   -1.1590    1.9465 C   0  0  2  0  0  0  0  0  0  0  0  0
   -0.2428    0.0483    2.4555 C   0  0  0  0  0  0  0  0  0  0  0  0
   -1.0511   -0.0164    3.3795 O   0  0  0  0  0  0  0  0  0  0  0  0
    1.9345   -0.7436    1.4950 C   0  0  0  0  0  0  0  0  0  0  0  0
    2.9032   -1.8799    1.1433 C   0  0  0  0  0  0  0  0  0  0  0  0
    2.6888   -2.9551    1.7749 O   0  5  0  0  0  0  0  0  0  0  0  0
    3.7932   -1.6198    0.2882 O   0  0  0  0  0  0  0  0  0  0  0  0
   -0.0113   -2.6869    0.5854 H   0  0  0  0  0  0  0  0  0  0  0  0
    0.5840   -1.9165    2.7370 H   0  0  0  0  0  0  0  0  0  0  0  0
    2.4058   -0.1273    2.2729 H   0  0  0  0  0  0  0  0  0  0  0  0
    1.8614   -0.1115    0.6004 H   0  0  0  0  0  0  0  0  0  0  0  0
    0.1099    1.2147    1.7911 N   0  0  0  0  0  0  0  0  0  0  0  0
   -0.4641    2.5010    2.1109 C   0  0  2  0  0  0  0  0  0  0  0  0
   -0.5013    3.3301    0.8339 C   0  0  0  0  0  0  0  0  0  0  0  0
    0.2313    3.1121   -0.1289 O   0  0  0  0  0  0  0  0  0  0  0  0
    0.3334    3.2086    3.1953 C   0  0  0  0  0  0  0  0  0  0  0  0
    0.8248    1.1821    1.0702 H   0  0  0  0  0  0  0  0  0  0  0  0
   -1.4870    2.3140    2.4555 H   0  0  0  0  0  0  0  0  0  0  0  0
    1.3611    3.4045    2.8682 H   0  0  0  0  0  0  0  0  0  0  0  0
   -0.1192    4.1708    3.4568 H   0  0  0  0  0  0  0  0  0  0  0  0
    0.3843    2.5978    4.1031 H   0  0  0  0  0  0  0  0  0  0  0  0
   -1.4185    4.3686    0.9124 N   0  0  0  0  0  0  0  0  0  0  0  0
   -1.6311    5.3043   -0.1670 C   0  0  0  0  0  0  0  0  0  0  0  0
   -1.9970    4.4628    1.7421 H   0  0  0  0  0  0  0  0  0  0  0  0
   -0.9836    6.1822   -0.0249 H   0  0  0  0  0  0  0  0  0  0  0  0
   -1.3880    4.8207   -1.1246 H   0  0  0  0  0  0  0  0  0  0  0  0
   -2.6840    5.6228   -0.1741 H   0  0  0  0  0  0  0  0  0  0  0  0
  1  3  1  0  0  0  0
  1  7  1  0  0  0  0
  1  2  2  0  0  0  0
 30 31  1  0  0  0  0
 31 39  1  0  0  0  0
 31 32  2  0  0  0  0
  8  9  1  0  0  0  0
  9 17  1  0  0  0  0
  9 10  2  0  0  0  0
 18 19  1  0  0  0  0
 19 29  1  0  0  0  0
 19 20  2  0  0  0  0
 21 22  1  0  0  0  0
 22 23  1  0  0  0  0
 22 24  2  0  0  0  0
 30 33  1  0  0  0  0
  8 11  1  0  0  0  0
 39 40  1  0  0  0  0
 18 21  1  0  0  0  0
 29 30  1  0  0  0  0
  7  8  1  0  0  0  0
 17 18  1  0  0  0  0
  3  4  1  0  0  0  0
  3  5  1  0  0  0  0
  3  6  1  0  0  0  0
 33 36  1  0  0  0  0
 33 37  1  0  0  0  0
 33 38  1  0  0  0  0
 11 14  1  0  0  0  0
 11 15  1  0  0  0  0
 11 16  1  0  0  0  0
 40 42  1  0  0  0  0
 40 43  1  0  0  0  0
 40 44  1  0  0  0  0
 21 27  1  0  0  0  0
 21 28  1  0  0  0  0
 30 35  1  0  0  0  0
  8 13  1  0  0  0  0
 18 26  1  0  0  0  0
 39 41  1  0  0  0  0
  7 12  1  0  0  0  0
 29 34  1  0  0  0  0
 17 25  1  0  0  0  0
M  CHG  1  23  -1
M  END
$$$$

  -OEChem-05262214473D

 44 43  0     1  0  0  0  0  0999 V2000
   -4.0256   -1.8030   -2.1581 C   0  0  0  0  0  0  0  0  0  0  0  0
   -3.7513   -2.6782   -2.9709 O   0  0  0  0  0  0  0  0  0  0  0  0
   -5.3491   -1.1169   -2.2339 C   0  0  0  0  0  0  0  0  0  0  0  0
   -5.3223   -0.2211   -2.8750 H   0  0  0  0  0  0  0  0  0  0  0  0
   -6.1322   -1.7605   -2.6658 H   0  0  0  0  0  0  0  0  0  0  0  0
   -5.7568   -0.7715   -1.2704 H   0  0  0  0  0  0  0  0  0  0  0  0
   -3.2124   -1.3578   -1.1289 N   0  0  0  0  0  0  0  0  0  0  0  0
   -1.8971   -1.8843   -0.8752 C   0  0  2  0  0  0  0  0  0  0  0  0
   -1.2676   -1.0599    0.2399 C   0  0  0  0  0  0  0  0  0  0  0  0
   -1.6270    0.0833    0.5138 O   0  0  0  0  0  0  0  0  0  0  0  0
   -1.0364   -1.8506   -2.1285 C   0  0  0  0  0  0  0  0  0  0  0  0
   -3.5631   -0.6202   -0.5206 H   0  0  0  0  0  0  0  0  0  0  0  0
   -2.0301   -2.9174   -0.5360 H   0  0  0  0  0  0  0  0  0  0  0  0
   -0.8921   -0.8236   -2.4833 H   0  0  0  0  0  0  0  0  0  0  0  0
   -0.0457   -2.2777   -1.9410 H   0  0  0  0  0  0  0  0  0  0  0  0
   -1.5052   -2.4193   -2.9387 H   0  0  0  0  0  0  0  0  0  0  0  0
   -0.2267   -1.7335    0.8672 N   0  0  0  0  0  0  0  0  0  0  0  0
    0.5363   -1.1590    1.9465 C   0  0  2  0  0  0  0  0  0  0  0  0
   -0.2428    0.0483    2.4555 C   0  0  0  0  0  0  0  0  0  0  0  0
   -0.8402    0.0563    3.5299 O   0  0  0  0  0  0  0  0  0  0  0  0
    1.9345   -0.7436    1.4950 C   0  0  0  0  0  0  0  0  0  0  0  0
    2.9032   -1.8799    1.1433 C   0  0  0  0  0  0  0  0  0  0  0  0
    2.6888   -2.9551    1.7749 O   0  5  0  0  0  0  0  0  0  0  0  0
    3.7932   -1.6198    0.2882 O   0  0  0  0  0  0  0  0  0  0  0  0
   -0.0113   -2.6869    0.5854 H   0  0  0  0  0  0  0  0  0  0  0  0
    0.5840   -1.9165    2.7370 H   0  0  0  0  0  0  0  0  0  0  0  0
    2.4058   -0.1273    2.2729 H   0  0  0  0  0  0  0  0  0  0  0  0
    1.8614   -0.1115    0.6004 H   0  0  0  0  0  0  0  0  0  0  0  0
   -0.1482    1.1316    1.5931 N   0  0  0  0  0  0  0  0  0  0  0  0
   -0.7730    2.4051    1.8657 C   0  0  2  0  0  0  0  0  0  0  0  0
   -1.1467    3.0405    0.5330 C   0  0  0  0  0  0  0  0  0  0  0  0
   -0.6025    2.7425   -0.5282 O   0  0  0  0  0  0  0  0  0  0  0  0
    0.1495    3.3149    2.6619 C   0  0  0  0  0  0  0  0  0  0  0  0
    0.4083    1.0495    0.7474 H   0  0  0  0  0  0  0  0  0  0  0  0
   -1.6828    2.1949    2.4386 H   0  0  0  0  0  0  0  0  0  0  0  0
    1.0666    3.5366    2.1040 H   0  0  0  0  0  0  0  0  0  0  0  0
   -0.3361    4.2689    2.8923 H   0  0  0  0  0  0  0  0  0  0  0  0
    0.4411    2.8437    3.6068 H   0  0  0  0  0  0  0  0  0  0  0  0
   -2.1293    4.0104    0.6745 N   0  0  0  0  0  0  0  0  0  0  0  0
   -2.6453    4.7662   -0.4428 C   0  0  0  0  0  0  0  0  0  0  0  0
   -2.5373    4.1785    1.5893 H   0  0  0  0  0  0  0  0  0  0  0  0
   -2.0738    5.7000   -0.5497 H   0  0  0  0  0  0  0  0  0  0  0  0
   -2.5505    4.1711   -1.3630 H   0  0  0  0  0  0  0  0  0  0  0  0
   -3.7050    5.0032   -0.2669 H   0  0  0  0  0  0  0  0  0  0  0  0
  1  3  1  0  0  0  0
  1  7  1  0  0  0  0
  1  2  2  0  0  0  0
 30 31  1  0  0  0  0
 31 39  1  0  0  0  0
 31 32  2  0  0  0  0
  8  9  1  0  0  0  0
  9 17  1  0  0  0  0
  9 10  2  0  0  0  0
 18 19  1  0  0  0  0
 19 29  1  0  0  0  0
 19 20  2  0  0  0  0
 21 22  1  0  0  0  0
 22 23  1  0  0  0  0
 22 24  2  0  0  0  0
 30 33  1  0  0  0  0
  8 11  1  0  0  0  0
 39 40  1  0  0  0  0
 18 21  1  0  0  0  0
 29 30  1  0  0  0  0
  7  8  1  0  0  0  0
 17 18  1  0  0  0  0
  3  4  1  0  0  0  0
  3  5  1  0  0  0  0
  3  6  1  0  0  0  0
 33 36  1  0  0  0  0
 33 37  1  0  0  0  0
 33 38  1  0  0  0  0
 11 14  1  0  0  0  0
 11 15  1  0  0  0  0
 11 16  1  0  0  0  0
 40 42  1  0  0  0  0
 40 43  1  0  0  0  0
 40 44  1  0  0  0  0
 21 27  1  0  0  0  0
 21 28  1  0  0  0  0
 30 35  1  0  0  0  0
  8 13  1  0  0  0  0
 18 26  1  0  0  0  0
 39 41  1  0  0  0  0
  7 12  1  0  0  0  0
 29 34  1  0  0  0  0
 17 25  1  0  0  0  0
M  CHG  1  23  -1
M  END
$$$$

  -OEChem-05262214473D

 44 43  0     1  0  0  0  0  0999 V2000
   -4.0256   -1.8030   -2.1581 C   0  0  0  0  0  0  0  0  0  0  0  0
   -3.7513   -2.6782   -2.9709 O   0  0  0  0  0  0  0  0  0  0  0  0
   -5.3491   -1.1169   -2.2339 C   0  0  0  0  0  0  0  0  0  0  0  0
   -5.3223   -0.2211   -2.8750 H   0  0  0  0  0  0  0  0  0  0  0  0
   -6.1322   -1.7605   -2.6658 H   0  0  0  0  0  0  0  0  0  0  0  0
   -5.7568   -0.7715   -1.2704 H   0  0  0  0  0  0  0  0  0  0  0  0
   -3.2124   -1.3578   -1.1289 N   0  0  0  0  0  0  0  0  0  0  0  0
   -1.8971   -1.8843   -0.8752 C   0  0  2  0  0  0  0  0  0  0  0  0
   -1.2676   -1.0599    0.2399 C   0  0  0  0  0  0  0  0  0  0  0  0
   -1.6270    0.0833    0.5138 O   0  0  0  0  0  0  0  0  0  0  0  0
   -1.0364   -1.8506   -2.1285 C   0  0  0  0  0  0  0  0  0  0  0  0
   -3.5631   -0.6202   -0.5206 H   0  0  0  0  0  0  0  0  0  0  0  0
   -2.0301   -2.9174   -0.5360 H   0  0  0  0  0  0  0  0  0  0  0  0
   -0.8921   -0.8236   -2.4833 H   0  0  0  0  0  0  0  0  0  0  0  0
   -0.0457   -2.2777   -1.9410 H   0  0  0  0  0  0  0  0  0  0  0  0
   -1.5052   -2.4193   -2.9387 H   0  0  0  0  0  0  0  0  0  0  0  0
   -0.2267   -1.7335    0.8672 N   0  0  0  0  0  0  0  0  0  0  0  0
    0.5363   -1.1590    1.9465 C   0  0  2  0  0  0  0  0  0  0  0  0
   -0.2428    0.0483    2.4555 C   0  0  0  0  0  0  0  0  0  0  0  0
   -0.6120    0.1646    3.6223 O   0  0  0  0  0  0  0  0  0  0  0  0
    1.9345   -0.7436    1.4950 C   0  0  0  0  0  0  0  0  0  0  0  0
    2.9032   -1.8799    1.1433 C   0  0  0  0  0  0  0  0  0  0  0  0
    2.6888   -2.9551    1.7749 O   0  5  0  0  0  0  0  0  0  0  0  0
    3.7932   -1.6198    0.2882 O   0  0  0  0  0  0  0  0  0  0  0  0
   -0.0113   -2.6869    0.5854 H   0  0  0  0  0  0  0  0  0  0  0  0
    0.5840   -1.9165    2.7370 H   0  0  0  0  0  0  0  0  0  0  0  0
    2.4058   -0.1273    2.2729 H   0  0  0  0  0  0  0  0  0  0  0  0
    1.8614   -0.1115    0.6004 H   0  0  0  0  0  0  0  0  0  0  0  0
   -0.4310    1.0029    1.4658 N   0  0  0  0  0  0  0  0  0  0  0  0
   -1.1133    2.2533    1.7048 C   0  0  2  0  0  0  0  0  0  0  0  0
   -1.8067    2.6652    0.4129 C   0  0  0  0  0  0  0  0  0  0  0  0
   -1.4577    2.2606   -0.6941 O   0  0  0  0  0  0  0  0  0  0  0  0
   -0.1466    3.3310    2.1703 C   0  0  0  0  0  0  0  0  0  0  0  0
   -0.0486    0.8427    0.5384 H   0  0  0  0  0  0  0  0  0  0  0  0
   -1.8650    2.0606    2.4781 H   0  0  0  0  0  0  0  0  0  0  0  0
    0.6140    3.5378    1.4086 H   0  0  0  0  0  0  0  0  0  0  0  0
   -0.6697    4.2702    2.3785 H   0  0  0  0  0  0  0  0  0  0  0  0
    0.3730    3.0205    3.0832 H   0  0  0  0  0  0  0  0  0  0  0  0
   -2.8336    3.5714    0.6377 N   0  0  0  0  0  0  0  0  0  0  0  0
   -3.6349    4.1223   -0.4301 C   0  0  0  0  0  0  0  0  0  0  0  0
   -3.0660    3.8370    1.5902 H   0  0  0  0  0  0  0  0  0  0  0  0
   -3.1927    5.0706   -0.7694 H   0  0  0  0  0  0  0  0  0  0  0  0
   -3.6662    3.4116   -1.2691 H   0  0  0  0  0  0  0  0  0  0  0  0
   -4.6567    4.3041   -0.0654 H   0  0  0  0  0  0  0  0  0  0  0  0
  1  3  1  0  0  0  0
  1  7  1  0  0  0  0
  1  2  2  0  0  0  0
 30 31  1  0  0  0  0
 31 39  1  0  0  0  0
 31 32  2  0  0  0  0
  8  9  1  0  0  0  0
  9 17  1  0  0  0  0
  9 10  2  0  0  0  0
 18 19  1  0  0  0  0
 19 29  1  0  0  0  0
 19 20  2  0  0  0  0
 21 22  1  0  0  0  0
 22 23  1  0  0  0  0
 22 24  2  0  0  0  0
 30 33  1  0  0  0  0
  8 11  1  0  0  0  0
 39 40  1  0  0  0  0
 18 21  1  0  0  0  0
 29 30  1  0  0  0  0
  7  8  1  0  0  0  0
 17 18  1  0  0  0  0
  3  4  1  0  0  0  0
  3  5  1  0  0  0  0
  3  6  1  0  0  0  0
 33 36  1  0  0  0  0
 33 37  1  0  0  0  0
 33 38  1  0  0  0  0
 11 14  1  0  0  0  0
 11 15  1  0  0  0  0
 11 16  1  0  0  0  0
 40 42  1  0  0  0  0
 40 43  1  0  0  0  0
 40 44  1  0  0  0  0
 21 27  1  0  0  0  0
 21 28  1  0  0  0  0
 30 35  1  0  0  0  0
  8 13  1  0  0  0  0
 18 26  1  0  0  0  0
 39 41  1  0  0  0  0
  7 12  1  0  0  0  0
 29 34  1  0  0  0  0
 17 25  1  0  0  0  0
M  CHG  1  23  -1
M  END
$$$$

  -OEChem-05262214473D

 44 43  0     1  0  0  0  0  0999 V2000
   -4.0256   -1.8030   -2.1581 C   0  0  0  0  0  0  0  0  0  0  0  0
   -3.7513   -2.6782   -2.9709 O   0  0  0  0  0  0  0  0  0  0  0  0
   -5.3491   -1.1169   -2.2339 C   0  0  0  0  0  0  0  0  0  0  0  0
   -5.3223   -0.2211   -2.8750 H   0  0  0  0  0  0  0  0  0  0  0  0
   -6.1322   -1.7605   -2.6658 H   0  0  0  0  0  0  0  0  0  0  0  0
   -5.7568   -0.7715   -1.2704 H   0  0  0  0  0  0  0  0  0  0  0  0
   -3.2124   -1.3578   -1.1289 N   0  0  0  0  0  0  0  0  0  0  0  0
   -1.8971   -1.8843   -0.8752 C   0  0  2  0  0  0  0  0  0  0  0  0
   -1.2676   -1.0599    0.2399 C   0  0  0  0  0  0  0  0  0  0  0  0
   -1.6270    0.0833    0.5138 O   0  0  0  0  0  0  0  0  0  0  0  0
   -1.0364   -1.8506   -2.1285 C   0  0  0  0  0  0  0  0  0  0  0  0
   -3.5631   -0.6202   -0.5206 H   0  0  0  0  0  0  0  0  0  0  0  0
   -2.0301   -2.9174   -0.5360 H   0  0  0  0  0  0  0  0  0  0  0  0
   -0.8921   -0.8236   -2.4833 H   0  0  0  0  0  0  0  0  0  0  0  0
   -0.0457   -2.2777   -1.9410 H   0  0  0  0  0  0  0  0  0  0  0  0
   -1.5052   -2.4193   -2.9387 H   0  0  0  0  0  0  0  0  0  0  0  0
   -0.2267   -1.7335    0.8672 N   0  0  0  0  0  0  0  0  0  0  0  0
    0.5363   -1.1590    1.9465 C   0  0  2  0  0  0  0  0  0  0  0  0
   -0.2428    0.0483    2.4555 C   0  0  0  0  0  0  0  0  0  0  0  0
   -0.3819    0.3011    3.6505 O   0  0  0  0  0  0  0  0  0  0  0  0
    1.9345   -0.7436    1.4950 C   0  0  0  0  0  0  0  0  0  0  0  0
    2.9032   -1.8799    1.1433 C   0  0  0  0  0  0  0  0  0  0  0  0
    2.6888   -2.9551    1.7749 O   0  5  0  0  0  0  0  0  0  0  0  0
    3.7932   -1.6198    0.2882 O   0  0  0  0  0  0  0  0  0  0  0  0
   -0.0113   -2.6869    0.5854 H   0  0  0  0  0  0  0  0  0  0  0  0
    0.5840   -1.9165    2.7370 H   0  0  0  0  0  0  0  0  0  0  0  0
    2.4058   -0.1273    2.2729 H   0  0  0  0  0  0  0  0  0  0  0  0
    1.8614   -0.1115    0.6004 H   0  0  0  0  0  0  0  0  0  0  0  0
   -0.7190    0.8373    1.4177 N   0  0  0  0  0  0  0  0  0  0  0  0
   -1.4619    2.0560    1.6393 C   0  0  2  0  0  0  0  0  0  0  0  0
   -2.4365    2.2298    0.4819 C   0  0  0  0  0  0  0  0  0  0  0  0
   -2.2762    1.6993   -0.6153 O   0  0  0  0  0  0  0  0  0  0  0  0
   -0.5349    3.2560    1.7541 C   0  0  0  0  0  0  0  0  0  0  0  0
   -0.5150    0.5759    0.4576 H   0  0  0  0  0  0  0  0  0  0  0  0
   -2.0214    1.9204    2.5713 H   0  0  0  0  0  0  0  0  0  0  0  0
    0.0342    3.4078    0.8296 H   0  0  0  0  0  0  0  0  0  0  0  0
   -1.0974    4.1747    1.9505 H   0  0  0  0  0  0  0  0  0  0  0  0
    0.1847    3.1162    2.5681 H   0  0  0  0  0  0  0  0  0  0  0  0
   -3.4835    3.0816    0.8047 N   0  0  0  0  0  0  0  0  0  0  0  0
   -4.5326    3.4165   -0.1298 C   0  0  0  0  0  0  0  0  0  0  0  0
   -3.5470    3.4615    1.7446 H   0  0  0  0  0  0  0  0  0  0  0  0
   -4.2641    4.3369   -0.6689 H   0  0  0  0  0  0  0  0  0  0  0  0
   -4.6589    2.5940   -0.8492 H   0  0  0  0  0  0  0  0  0  0  0  0
   -5.4742    3.5733    0.4169 H   0  0  0  0  0  0  0  0  0  0  0  0
  1  3  1  0  0  0  0
  1  7  1  0  0  0  0
  1  2  2  0  0  0  0
 30 31  1  0  0  0  0
 31 39  1  0  0  0  0
 31 32  2  0  0  0  0
  8  9  1  0  0  0  0
  9 17  1  0  0  0  0
  9 10  2  0  0  0  0
 18 19  1  0  0  0  0
 19 29  1  0  0  0  0
 19 20  2  0  0  0  0
 21 22  1  0  0  0  0
 22 23  1  0  0  0  0
 22 24  2  0  0  0  0
 30 33  1  0  0  0  0
  8 11  1  0  0  0  0
 39 40  1  0  0  0  0
 18 21  1  0  0  0  0
 29 30  1  0  0  0  0
  7  8  1  0  0  0  0
 17 18  1  0  0  0  0
  3  4  1  0  0  0  0
  3  5  1  0  0  0  0
  3  6  1  0  0  0  0
 33 36  1  0  0  0  0
 33 37  1  0  0  0  0
 33 38  1  0  0  0  0
 11 14  1  0  0  0  0
 11 15  1  0  0  0  0
 11 16  1  0  0  0  0
 40 42  1  0  0  0  0
 40 43  1  0  0  0  0
 40 44  1  0  0  0  0
 21 27  1  0  0  0  0
 21 28  1  0  0  0  0
 30 35  1  0  0  0  0
  8 13  1  0  0  0  0
 18 26  1  0  0  0  0
 39 41  1  0  0  0  0
  7 12  1  0  0  0  0
 29 34  1  0  0  0  0
 17 25  1  0  0  0  0
M  CHG  1  23  -1
M  END
$$$$

  -OEChem-05262214473D

 44 43  0     1  0  0  0  0  0999 V2000
   -4.0256   -1.8030   -2.1581 C   0  0  0  0  0  0  0  0  0  0  0  0
   -3.7513   -2.6782   -2.9709 O   0  0  0  0  0  0  0  0  0  0  0  0
   -5.3491   -1.1169   -2.2339 C   0  0  0  0  0  0  0  0  0  0  0  0
   -5.3223   -0.2211   -2.8750 H   0  0  0  0  0  0  0  0  0  0  0  0
   -6.1322   -1.7605   -2.6658 H   0  0  0  0  0  0  0  0  0  0  0  0
   -5.7568   -0.7715   -1.2704 H   0  0  0  0  0  0  0  0  0  0  0  0
   -3.2124   -1.3578   -1.1289 N   0  0  0  0  0  0  0  0  0  0  0  0
   -1.8971   -1.8843   -0.8752 C   0  0  2  0  0  0  0  0  0  0  0  0
   -1.2676   -1.0599    0.2399 C   0  0  0  0  0  0  0  0  0  0  0  0
   -1.6270    0.0833    0.5138 O   0  0  0  0  0  0  0  0  0  0  0  0
   -1.0364   -1.8506   -2.1285 C   0  0  0  0  0  0  0  0  0  0  0  0
   -3.5631   -0.6202   -0.5206 H   0  0  0  0  0  0  0  0  0  0  0  0
   -2.0301   -2.9174   -0.5360 H   0  0  0  0  0  0  0  0  0  0  0  0
   -0.8921   -0.8236   -2.4833 H   0  0  0  0  0  0  0  0  0  0  0  0
   -0.0457   -2.2777   -1.9410 H   0  0  0  0  0  0  0  0  0  0  0  0
   -1.5052   -2.4193   -2.9387 H   0  0  0  0  0  0  0  0  0  0  0  0
   -0.2267   -1.7335    0.8672 N   0  0  0  0  0  0  0  0  0  0  0  0
    0.5363   -1.1590    1.9465 C   0  0  2  0  0  0  0  0  0  0  0  0
   -0.2428    0.0483    2.4555 C   0  0  0  0  0  0  0  0  0  0  0  0
   -0.1657    0.4566    3.6125 O   0  0  0  0  0  0  0  0  0  0  0  0
    1.9345   -0.7436    1.4950 C   0  0  0  0  0  0  0  0  0  0  0  0
    2.9032   -1.8799    1.1433 C   0  0  0  0  0  0  0  0  0  0  0  0
    2.6888   -2.9551    1.7749 O   0  5  0  0  0  0  0  0  0  0  0  0
    3.7932   -1.6198    0.2882 O   0  0  0  0  0  0  0  0  0  0  0  0
   -0.0113   -2.6869    0.5854 H   0  0  0  0  0  0  0  0  0  0  0  0
    0.5840   -1.9165    2.7370 H   0  0  0  0  0  0  0  0  0  0  0  0
    2.4058   -0.1273    2.2729 H   0  0  0  0  0  0  0  0  0  0  0  0
    1.8614   -0.1115    0.6004 H   0  0  0  0  0  0  0  0  0  0  0  0
   -0.9928    0.6460    1.4523 N   0  0  0  0  0  0  0  0  0  0  0  0
   -1.7950    1.8267    1.6736 C   0  0  2  0  0  0  0  0  0  0  0  0
   -2.9930    1.7639    0.7352 C   0  0  0  0  0  0  0  0  0  0  0  0
   -3.0021    1.0967   -0.2972 O   0  0  0  0  0  0  0  0  0  0  0  0
   -0.9887    3.0950    1.4415 C   0  0  0  0  0  0  0  0  0  0  0  0
   -0.9589    0.2671    0.5105 H   0  0  0  0  0  0  0  0  0  0  0  0
   -2.1412    1.7838    2.7120 H   0  0  0  0  0  0  0  0  0  0  0  0
   -0.6333    3.1555    0.4064 H   0  0  0  0  0  0  0  0  0  0  0  0
   -1.5901    3.9889    1.6373 H   0  0  0  0  0  0  0  0  0  0  0  0
   -0.1111    3.1242    2.0964 H   0  0  0  0  0  0  0  0  0  0  0  0
   -4.0348    2.5744    1.1640 N   0  0  0  0  0  0  0  0  0  0  0  0
   -5.2771    2.6968    0.4376 C   0  0  0  0  0  0  0  0  0  0  0  0
   -3.9475    3.0777    2.0420 H   0  0  0  0  0  0  0  0  0  0  0  0
   -5.2150    3.5489   -0.2552 H   0  0  0  0  0  0  0  0  0  0  0  0
   -5.4611    1.7739   -0.1320 H   0  0  0  0  0  0  0  0  0  0  0  0
   -6.1018    2.8605    1.1469 H   0  0  0  0  0  0  0  0  0  0  0  0
  1  3  1  0  0  0  0
  1  7  1  0  0  0  0
  1  2  2  0  0  0  0
 30 31  1  0  0  0  0
 31 39  1  0  0  0  0
 31 32  2  0  0  0  0
  8  9  1  0  0  0  0
  9 17  1  0  0  0  0
  9 10  2  0  0  0  0
 18 19  1  0  0  0  0
 19 29  1  0  0  0  0
 19 20  2  0  0  0  0
 21 22  1  0  0  0  0
 22 23  1  0  0  0  0
 22 24  2  0  0  0  0
 30 33  1  0  0  0  0
  8 11  1  0  0  0  0
 39 40  1  0  0  0  0
 18 21  1  0  0  0  0
 29 30  1  0  0  0  0
  7  8  1  0  0  0  0
 17 18  1  0  0  0  0
  3  4  1  0  0  0  0
  3  5  1  0  0  0  0
  3  6  1  0  0  0  0
 33 36  1  0  0  0  0
 33 37  1  0  0  0  0
 33 38  1  0  0  0  0
 11 14  1  0  0  0  0
 11 15  1  0  0  0  0
 11 16  1  0  0  0  0
 40 42  1  0  0  0  0
 40 43  1  0  0  0  0
 40 44  1  0  0  0  0
 21 27  1  0  0  0  0
 21 28  1  0  0  0  0
 30 35  1  0  0  0  0
  8 13  1  0  0  0  0
 18 26  1  0  0  0  0
 39 41  1  0  0  0  0
  7 12  1  0  0  0  0
 29 34  1  0  0  0  0
 17 25  1  0  0  0  0
M  CHG  1  23  -1
M  END
$$$$

  -OEChem-05262214473D

 44 43  0     1  0  0  0  0  0999 V2000
   -4.0256   -1.8030   -2.1581 C   0  0  0  0  0  0  0  0  0  0  0  0
   -3.7513   -2.6782   -2.9709 O   0  0  0  0  0  0  0  0  0  0  0  0
   -5.3491   -1.1169   -2.2339 C   0  0  0  0  0  0  0  0  0  0  0  0
   -5.3223   -0.2211   -2.8750 H   0  0  0  0  0  0  0  0  0  0  0  0
   -6.1322   -1.7605   -2.6658 H   0  0  0  0  0  0  0  0  0  0  0  0
   -5.7568   -0.7715   -1.2704 H   0  0  0  0  0  0  0  0  0  0  0  0
   -3.2124   -1.3578   -1.1289 N   0  0  0  0  0  0  0  0  0  0  0  0
   -1.8971   -1.8843   -0.8752 C   0  0  2  0  0  0  0  0  0  0  0  0
   -1.2676   -1.0599    0.2399 C   0  0  0  0  0  0  0  0  0  0  0  0
   -1.6270    0.0833    0.5138 O   0  0  0  0  0  0  0  0  0  0  0  0
   -1.0364   -1.8506   -2.1285 C   0  0  0  0  0  0  0  0  0  0  0  0
   -3.5631   -0.6202   -0.5206 H   0  0  0  0  0  0  0  0  0  0  0  0
   -2.0301   -2.9174   -0.5360 H   0  0  0  0  0  0  0  0  0  0  0  0
   -0.8921   -0.8236   -2.4833 H   0  0  0  0  0  0  0  0  0  0  0  0
   -0.0457   -2.2777   -1.9410 H   0  0  0  0  0  0  0  0  0  0  0  0
   -1.5052   -2.4193   -2.9387 H   0  0  0  0  0  0  0  0  0  0  0  0
   -0.2267   -1.7335    0.8672 N   0  0  0  0  0  0  0  0  0  0  0  0
    0.5363   -1.1590    1.9465 C   0  0  2  0  0  0  0  0  0  0  0  0
   -0.2428    0.0483    2.4555 C   0  0  0  0  0  0  0  0  0  0  0  0
    0.0218    0.6205    3.5109 O   0  0  0  0  0  0  0  0  0  0  0  0
    1.9345   -0.7436    1.4950 C   0  0  0  0  0  0  0  0  0  0  0  0
    2.9032   -1.8799    1.1433 C   0  0  0  0  0  0  0  0  0  0  0  0
    2.6888   -2.9551    1.7749 O   0  5  0  0  0  0  0  0  0  0  0  0
    3.7932   -1.6198    0.2882 O   0  0  0  0  0  0  0  0  0  0  0  0
   -0.0113   -2.6869    0.5854 H   0  0  0  0  0  0  0  0  0  0  0  0
    0.5840   -1.9165    2.7370 H   0  0  0  0  0  0  0  0  0  0  0  0
    2.4058   -0.1273    2.2729 H   0  0  0  0  0  0  0  0  0  0  0  0
    1.8614   -0.1115    0.6004 H   0  0  0  0  0  0  0  0  0  0  0  0
   -1.2337    0.4422    1.5671 N   0  0  0  0  0  0  0  0  0  0  0  0
   -2.0899    1.5808    1.8053 C   0  0  2  0  0  0  0  0  0  0  0  0
   -3.4383    1.2993    1.1556 C   0  0  0  0  0  0  0  0  0  0  0  0
   -3.5860    0.4941    0.2386 O   0  0  0  0  0  0  0  0  0  0  0  0
   -1.4772    2.8588    1.2539 C   0  0  0  0  0  0  0  0  0  0  0  0
   -1.3502   -0.0625    0.6934 H   0  0  0  0  0  0  0  0  0  0  0  0
   -2.2162    1.6601    2.8905 H   0  0  0  0  0  0  0  0  0  0  0  0
   -1.3431    2.7982    0.1678 H   0  0  0  0  0  0  0  0  0  0  0  0
   -2.1141    3.7254    1.4604 H   0  0  0  0  0  0  0  0  0  0  0  0
   -0.4943    3.0439    1.7004 H   0  0  0  0  0  0  0  0  0  0  0  0
   -4.4497    2.0844    1.6911 N   0  0  0  0  0  0  0  0  0  0  0  0
   -5.8177    2.0124    1.2335 C   0  0  0  0  0  0  0  0  0  0  0  0
   -4.2403    2.7117    2.4621 H   0  0  0  0  0  0  0  0  0  0  0  0
   -5.9806    2.7603    0.4436 H   0  0  0  0  0  0  0  0  0  0  0  0
   -6.0181    1.0074    0.8337 H   0  0  0  0  0  0  0  0  0  0  0  0
   -6.4968    2.2143    2.0750 H   0  0  0  0  0  0  0  0  0  0  0  0
  1  3  1  0  0  0  0
  1  7  1  0  0  0  0
  1  2  2  0  0  0  0
 30 31  1  0  0  0  0
 31 39  1  0  0  0  0
 31 32  2  0  0  0  0
  8  9  1  0  0  0  0
  9 17  1  0  0  0  0
  9 10  2  0  0  0  0
 18 19  1  0  0  0  0
 19 29  1  0  0  0  0
 19 20  2  0  0  0  0
 21 22  1  0  0  0  0
 22 23  1  0  0  0  0
 22 24  2  0  0  0  0
 30 33  1  0  0  0  0
  8 11  1  0  0  0  0
 39 40  1  0  0  0  0
 18 21  1  0  0  0  0
 29 30  1  0  0  0  0
  7  8  1  0  0  0  0
 17 18  1  0  0  0  0
  3  4  1  0  0  0  0
  3  5  1  0  0  0  0
  3  6  1  0  0  0  0
 33 36  1  0  0  0  0
 33 37  1  0  0  0  0
 33 38  1  0  0  0  0
 11 14  1  0  0  0  0
 11 15  1  0  0  0  0
 11 16  1  0  0  0  0
 40 42  1  0  0  0  0
 40 43  1  0  0  0  0
 40 44  1  0  0  0  0
 21 27  1  0  0  0  0
 21 28  1  0  0  0  0
 30 35  1  0  0  0  0
  8 13  1  0  0  0  0
 18 26  1  0  0  0  0
 39 41  1  0  0  0  0
  7 12  1  0  0  0  0
 29 34  1  0  0  0  0
 17 25  1  0  0  0  0
M  CHG  1  23  -1
M  END
$$$$

  -OEChem-05262214473D

 44 43  0     1  0  0  0  0  0999 V2000
   -4.0256   -1.8030   -2.1581 C   0  0  0  0  0  0  0  0  0  0  0  0
   -3.7513   -2.6782   -2.9709 O   0  0  0  0  0  0  0  0  0  0  0  0
   -5.3491   -1.1169   -2.2339 C   0  0  0  0  0  0  0  0  0  0  0  0
   -5.3223   -0.2211   -2.8750 H   0  0  0  0  0  0  0  0  0  0  0  0
   -6.1322   -1.7605   -2.6658 H   0  0  0  0  0  0  0  0  0  0  0  0
   -5.7568   -0.7715   -1.2704 H   0  0  0  0  0  0  0  0  0  0  0  0
   -3.2124   -1.3578   -1.1289 N   0  0  0  0  0  0  0  0  0  0  0  0
   -1.8971   -1.8843   -0.8752 C   0  0  2  0  0  0  0  0  0  0  0  0
   -1.2676   -1.0599    0.2399 C   0  0  0  0  0  0  0  0  0  0  0  0
   -1.6270    0.0833    0.5138 O   0  0  0  0  0  0  0  0  0  0  0  0
   -1.0364   -1.8506   -2.1285 C   0  0  0  0  0  0  0  0  0  0  0  0
   -3.5631   -0.6202   -0.5206 H   0  0  0  0  0  0  0  0  0  0  0  0
   -2.0301   -2.9174   -0.5360 H   0  0  0  0  0  0  0  0  0  0  0  0
   -0.8921   -0.8236   -2.4833 H   0  0  0  0  0  0  0  0  0  0  0  0
   -0.0457   -2.2777   -1.9410 H   0  0  0  0  0  0  0  0  0  0  0  0
   -1.5052   -2.4193   -2.9387 H   0  0  0  0  0  0  0  0  0  0  0  0
   -0.2267   -1.7335    0.8672 N   0  0  0  0  0  0  0  0  0  0  0  0
    0.5363   -1.1590    1.9465 C   0  0  2  0  0  0  0  0  0  0  0  0
   -0.2428    0.0483    2.4555 C   0  0  0  0  0  0  0  0  0  0  0  0
    0.1680    0.7816    3.3527 O   0  0  0  0  0  0  0  0  0  0  0  0
    1.9345   -0.7436    1.4950 C   0  0  0  0  0  0  0  0  0  0  0  0
    2.9032   -1.8799    1.1433 C   0  0  0  0  0  0  0  0  0  0  0  0
    2.6888   -2.9551    1.7749 O   0  5  0  0  0  0  0  0  0  0  0  0
    3.7932   -1.6198    0.2882 O   0  0  0  0  0  0  0  0  0  0  0  0
   -0.0113   -2.6869    0.5854 H   0  0  0  0  0  0  0  0  0  0  0  0
    0.5840   -1.9165    2.7370 H   0  0  0  0  0  0  0  0  0  0  0  0
    2.4058   -0.1273    2.2729 H   0  0  0  0  0  0  0  0  0  0  0  0
    1.8614   -0.1115    0.6004 H   0  0  0  0  0  0  0  0  0  0  0  0
   -1.4251    0.2397    1.7544 N   0  0  0  0  0  0  0  0  0  0  0  0
   -2.3265    1.3353    2.0255 C   0  0  2  0  0  0  0  0  0  0  0  0
   -3.7422    0.8676    1.7144 C   0  0  0  0  0  0  0  0  0  0  0  0
   -3.9881   -0.0677    0.9556 O   0  0  0  0  0  0  0  0  0  0  0  0
   -1.9672    2.5637    1.2041 C   0  0  0  0  0  0  0  0  0  0  0  0
   -1.6622   -0.3905    0.9938 H   0  0  0  0  0  0  0  0  0  0  0  0
   -2.2414    1.5577    3.0947 H   0  0  0  0  0  0  0  0  0  0  0  0
   -2.0466    2.3601    0.1300 H   0  0  0  0  0  0  0  0  0  0  0  0
   -2.6337    3.4021    1.4318 H   0  0  0  0  0  0  0  0  0  0  0  0
   -0.9386    2.8809    1.4070 H   0  0  0  0  0  0  0  0  0  0  0  0
   -4.7002    1.6450    2.3501 N   0  0  0  0  0  0  0  0  0  0  0  0
   -6.1176    1.4098    2.2037 C   0  0  0  0  0  0  0  0  0  0  0  0
   -4.4053    2.3884    2.9763 H   0  0  0  0  0  0  0  0  0  0  0  0
   -6.5087    2.0248    1.3798 H   0  0  0  0  0  0  0  0  0  0  0  0
   -6.2918    0.3466    1.9821 H   0  0  0  0  0  0  0  0  0  0  0  0
   -6.6322    1.6787    3.1380 H   0  0  0  0  0  0  0  0  0  0  0  0
  1  3  1  0  0  0  0
  1  7  1  0  0  0  0
  1  2  2  0  0  0  0
 30 31  1  0  0  0  0
 31 39  1  0  0  0  0
 31 32  2  0  0  0  0
  8  9  1  0  0  0  0
  9 17  1  0  0  0  0
  9 10  2  0  0  0  0
 18 19  1  0  0  0  0
 19 29  1  0  0  0  0
 19 20  2  0  0  0  0
 21 22  1  0  0  0  0
 22 23  1  0  0  0  0
 22 24  2  0  0  0  0
 30 33  1  0  0  0  0
  8 11  1  0  0  0  0
 39 40  1  0  0  0  0
 18 21  1  0  0  0  0
 29 30  1  0  0  0  0
  7  8  1  0  0  0  0
 17 18  1  0  0  0  0
  3  4  1  0  0  0  0
  3  5  1  0  0  0  0
  3  6  1  0  0  0  0
 33 36  1  0  0  0  0
 33 37  1  0  0  0  0
 33 38  1  0  0  0  0
 11 14  1  0  0  0  0
 11 15  1  0  0  0  0
 11 16  1  0  0  0  0
 40 42  1  0  0  0  0
 40 43  1  0  0  0  0
 40 44  1  0  0  0  0
 21 27  1  0  0  0  0
 21 28  1  0  0  0  0
 30 35  1  0  0  0  0
  8 13  1  0  0  0  0
 18 26  1  0  0  0  0
 39 41  1  0  0  0  0
  7 12  1  0  0  0  0
 29 34  1  0  0  0  0
 17 25  1  0  0  0  0
M  CHG  1  23  -1
M  END
$$$$

  -OEChem-05262214473D

 44 43  0     1  0  0  0  0  0999 V2000
   -4.0256   -1.8030   -2.1581 C   0  0  0  0  0  0  0  0  0  0  0  0
   -3.7513   -2.6782   -2.9709 O   0  0  0  0  0  0  0  0  0  0  0  0
   -5.3491   -1.1169   -2.2339 C   0  0  0  0  0  0  0  0  0  0  0  0
   -5.3223   -0.2211   -2.8750 H   0  0  0  0  0  0  0  0  0  0  0  0
   -6.1322   -1.7605   -2.6658 H   0  0  0  0  0  0  0  0  0  0  0  0
   -5.7568   -0.7715   -1.2704 H   0  0  0  0  0  0  0  0  0  0  0  0
   -3.2124   -1.3578   -1.1289 N   0  0  0  0  0  0  0  0  0  0  0  0
   -1.8971   -1.8843   -0.8752 C   0  0  2  0  0  0  0  0  0  0  0  0
   -1.2676   -1.0599    0.2399 C   0  0  0  0  0  0  0  0  0  0  0  0
   -1.6270    0.0833    0.5138 O   0  0  0  0  0  0  0  0  0  0  0  0
   -1.0364   -1.8506   -2.1285 C   0  0  0  0  0  0  0  0  0  0  0  0
   -3.5631   -0.6202   -0.5206 H   0  0  0  0  0  0  0  0  0  0  0  0
   -2.0301   -2.9174   -0.5360 H   0  0  0  0  0  0  0  0  0  0  0  0
   -0.8921   -0.8236   -2.4833 H   0  0  0  0  0  0  0  0  0  0  0  0
   -0.0457   -2.2777   -1.9410 H   0  0  0  0  0  0  0  0  0  0  0  0
   -1.5052   -2.4193   -2.9387 H   0  0  0  0  0  0  0  0  0  0  0  0
   -0.2267   -1.7335    0.8672 N   0  0  0  0  0  0  0  0  0  0  0  0
    0.5363   -1.1590    1.9465 C   0  0  2  0  0  0  0  0  0  0  0  0
   -0.2428    0.0483    2.4555 C   0  0  0  0  0  0  0  0  0  0  0  0
    0.2629    0.9289    3.1485 O   0  0  0  0  0  0  0  0  0  0  0  0
    1.9345   -0.7436    1.4950 C   0  0  0  0  0  0  0  0  0  0  0  0
    2.9032   -1.8799    1.1433 C   0  0  0  0  0  0  0  0  0  0  0  0
    2.6888   -2.9551    1.7749 O   0  5  0  0  0  0  0  0  0  0  0  0
    3.7932   -1.6198    0.2882 O   0  0  0  0  0  0  0  0  0  0  0  0
   -0.0113   -2.6869    0.5854 H   0  0  0  0  0  0  0  0  0  0  0  0
    0.5840   -1.9165    2.7370 H   0  0  0  0  0  0  0  0  0  0  0  0
    2.4058   -0.1273    2.2729 H   0  0  0  0  0  0  0  0  0  0  0  0
    1.8614   -0.1115    0.6004 H   0  0  0  0  0  0  0  0  0  0  0  0
   -1.5542    0.0523    2.0013 N   0  0  0  0  0  0  0  0  0  0  0  0
   -2.4887    1.1068    2.3191 C   0  0  2  0  0  0  0  0  0  0  0  0
   -3.8838    0.4983    2.3736 C   0  0  0  0  0  0  0  0  0  0  0  0
   -4.1809   -0.5502    1.8048 O   0  0  0  0  0  0  0  0  0  0  0  0
   -2.4251    2.2297    1.2955 C   0  0  0  0  0  0  0  0  0  0  0  0
   -1.8737   -0.6945    1.3914 H   0  0  0  0  0  0  0  0  0  0  0  0
   -2.2151    1.4837    3.3107 H   0  0  0  0  0  0  0  0  0  0  0  0
   -2.6961    1.8712    0.2958 H   0  0  0  0  0  0  0  0  0  0  0  0
   -3.1135    3.0412    1.5534 H   0  0  0  0  0  0  0  0  0  0  0  0
   -1.4138    2.6463    1.2363 H   0  0  0  0  0  0  0  0  0  0  0  0
   -4.7690    1.2860    3.0962 N   0  0  0  0  0  0  0  0  0  0  0  0
   -6.1563    0.9302    3.2820 C   0  0  0  0  0  0  0  0  0  0  0  0
   -4.4313    2.1299    3.5496 H   0  0  0  0  0  0  0  0  0  0  0  0
   -6.7633    1.3926    2.4896 H   0  0  0  0  0  0  0  0  0  0  0  0
   -6.2637   -0.1635    3.2348 H   0  0  0  0  0  0  0  0  0  0  0  0
   -6.4989    1.2903    4.2633 H   0  0  0  0  0  0  0  0  0  0  0  0
  1  3  1  0  0  0  0
  1  7  1  0  0  0  0
  1  2  2  0  0  0  0
 30 31  1  0  0  0  0
 31 39  1  0  0  0  0
 31 32  2  0  0  0  0
  8  9  1  0  0  0  0
  9 17  1  0  0  0  0
  9 10  2  0  0  0  0
 18 19  1  0  0  0  0
 19 29  1  0  0  0  0
 19 20  2  0  0  0  0
 21 22  1  0  0  0  0
 22 23  1  0  0  0  0
 22 24  2  0  0  0  0
 30 33  1  0  0  0  0
  8 11  1  0  0  0  0
 39 40  1  0  0  0  0
 18 21  1  0  0  0  0
 29 30  1  0  0  0  0
  7  8  1  0  0  0  0
 17 18  1  0  0  0  0
  3  4  1  0  0  0  0
  3  5  1  0  0  0  0
  3  6  1  0  0  0  0
 33 36  1  0  0  0  0
 33 37  1  0  0  0  0
 33 38  1  0  0  0  0
 11 14  1  0  0  0  0
 11 15  1  0  0  0  0
 11 16  1  0  0  0  0
 40 42  1  0  0  0  0
 40 43  1  0  0  0  0
 40 44  1  0  0  0  0
 21 27  1  0  0  0  0
 21 28  1  0  0  0  0
 30 35  1  0  0  0  0
  8 13  1  0  0  0  0
 18 26  1  0  0  0  0
 39 41  1  0  0  0  0
  7 12  1  0  0  0  0
 29 34  1  0  0  0  0
 17 25  1  0  0  0  0
M  CHG  1  23  -1
M  END
$$$$

  -OEChem-05262214473D

 44 43  0     1  0  0  0  0  0999 V2000
   -4.0256   -1.8030   -2.1581 C   0  0  0  0  0  0  0  0  0  0  0  0
   -3.7513   -2.6782   -2.9709 O   0  0  0  0  0  0  0  0  0  0  0  0
   -5.3491   -1.1169   -2.2339 C   0  0  0  0  0  0  0  0  0  0  0  0
   -5.3223   -0.2211   -2.8750 H   0  0  0  0  0  0  0  0  0  0  0  0
   -6.1322   -1.7605   -2.6658 H   0  0  0  0  0  0  0  0  0  0  0  0
   -5.7568   -0.7715   -1.2704 H   0  0  0  0  0  0  0  0  0  0  0  0
   -3.2124   -1.3578   -1.1289 N   0  0  0  0  0  0  0  0  0  0  0  0
   -1.8971   -1.8843   -0.8752 C   0  0  2  0  0  0  0  0  0  0  0  0
   -1.2676   -1.0599    0.2399 C   0  0  0  0  0  0  0  0  0  0  0  0
   -1.6270    0.0833    0.5138 O   0  0  0  0  0  0  0  0  0  0  0  0
   -1.0364   -1.8506   -2.1285 C   0  0  0  0  0  0  0  0  0  0  0  0
   -3.5631   -0.6202   -0.5206 H   0  0  0  0  0  0  0  0  0  0  0  0
   -2.0301   -2.9174   -0.5360 H   0  0  0  0  0  0  0  0  0  0  0  0
   -0.8921   -0.8236   -2.4833 H   0  0  0  0  0  0  0  0  0  0  0  0
   -0.0457   -2.2777   -1.9410 H   0  0  0  0  0  0  0  0  0  0  0  0
   -1.5052   -2.4193   -2.9387 H   0  0  0  0  0  0  0  0  0  0  0  0
   -0.2267   -1.7335    0.8672 N   0  0  0  0  0  0  0  0  0  0  0  0
    0.5363   -1.1590    1.9465 C   0  0  2  0  0  0  0  0  0  0  0  0
   -0.2428    0.0483    2.4555 C   0  0  0  0  0  0  0  0  0  0  0  0
    0.2999    1.0523    2.9124 O   0  0  0  0  0  0  0  0  0  0  0  0
    1.9345   -0.7436    1.4950 C   0  0  0  0  0  0  0  0  0  0  0  0
    2.9032   -1.8799    1.1433 C   0  0  0  0  0  0  0  0  0  0  0  0
    2.6888   -2.9551    1.7749 O   0  5  0  0  0  0  0  0  0  0  0  0
    3.7932   -1.6198    0.2882 O   0  0  0  0  0  0  0  0  0  0  0  0
   -0.0113   -2.6869    0.5854 H   0  0  0  0  0  0  0  0  0  0  0  0
    0.5840   -1.9165    2.7370 H   0  0  0  0  0  0  0  0  0  0  0  0
    2.4058   -0.1273    2.2729 H   0  0  0  0  0  0  0  0  0  0  0  0
    1.8614   -0.1115    0.6004 H   0  0  0  0  0  0  0  0  0  0  0  0
   -1.6121   -0.1072    2.2910 N   0  0  0  0  0  0  0  0  0  0  0  0
   -2.5655    0.9110    2.6663 C   0  0  2  0  0  0  0  0  0  0  0  0
   -3.8536    0.2165    3.0881 C   0  0  0  0  0  0  0  0  0  0  0  0
   -4.1514   -0.9206    2.7285 O   0  0  0  0  0  0  0  0  0  0  0  0
   -2.8198    1.8796    1.5218 C   0  0  0  0  0  0  0  0  0  0  0  0
   -1.9701   -0.9539    1.8590 H   0  0  0  0  0  0  0  0  0  0  0  0
   -2.1390    1.4430    3.5236 H   0  0  0  0  0  0  0  0  0  0  0  0
   -3.2472    1.3647    0.6536 H   0  0  0  0  0  0  0  0  0  0  0  0
   -3.5209    2.6672    1.8170 H   0  0  0  0  0  0  0  0  0  0  0  0
   -1.8875    2.3560    1.1999 H   0  0  0  0  0  0  0  0  0  0  0  0
   -4.6515    1.0320    3.8784 N   0  0  0  0  0  0  0  0  0  0  0  0
   -5.9313    0.6062    4.3949 C   0  0  0  0  0  0  0  0  0  0  0  0
   -4.3166    1.9538    4.1428 H   0  0  0  0  0  0  0  0  0  0  0  0
   -6.7271    0.9067    3.6974 H   0  0  0  0  0  0  0  0  0  0  0  0
   -5.9357   -0.4881    4.5066 H   0  0  0  0  0  0  0  0  0  0  0  0
   -6.1058    1.0755    5.3743 H   0  0  0  0  0  0  0  0  0  0  0  0
  1  3  1  0  0  0  0
  1  7  1  0  0  0  0
  1  2  2  0  0  0  0
 30 31  1  0  0  0  0
 31 39  1  0  0  0  0
 31 32  2  0  0  0  0
  8  9  1  0  0  0  0
  9 17  1  0  0  0  0
  9 10  2  0  0  0  0
 18 19  1  0  0  0  0
 19 29  1  0  0  0  0
 19 20  2  0  0  0  0
 21 22  1  0  0  0  0
 22 23  1  0  0  0  0
 22 24  2  0  0  0  0
 30 33  1  0  0  0  0
  8 11  1  0  0  0  0
 39 40  1  0  0  0  0
 18 21  1  0  0  0  0
 29 30  1  0  0  0  0
  7  8  1  0  0  0  0
 17 18  1  0  0  0  0
  3  4  1  0  0  0  0
  3  5  1  0  0  0  0
  3  6  1  0  0  0  0
 33 36  1  0  0  0  0
 33 37  1  0  0  0  0
 33 38  1  0  0  0  0
 11 14  1  0  0  0  0
 11 15  1  0  0  0  0
 11 16  1  0  0  0  0
 40 42  1  0  0  0  0
 40 43  1  0  0  0  0
 40 44  1  0  0  0  0
 21 27  1  0  0  0  0
 21 28  1  0  0  0  0
 30 35  1  0  0  0  0
  8 13  1  0  0  0  0
 18 26  1  0  0  0  0
 39 41  1  0  0  0  0
  7 12  1  0  0  0  0
 29 34  1  0  0  0  0
 17 25  1  0  0  0  0
M  CHG  1  23  -1
M  END
$$$$

  -OEChem-05262214473D

 44 43  0     1  0  0  0  0  0999 V2000
   -4.0256   -1.8030   -2.1581 C   0  0  0  0  0  0  0  0  0  0  0  0
   -3.7513   -2.6782   -2.9709 O   0  0  0  0  0  0  0  0  0  0  0  0
   -5.3491   -1.1169   -2.2339 C   0  0  0  0  0  0  0  0  0  0  0  0
   -5.3223   -0.2211   -2.8750 H   0  0  0  0  0  0  0  0  0  0  0  0
   -6.1322   -1.7605   -2.6658 H   0  0  0  0  0  0  0  0  0  0  0  0
   -5.7568   -0.7715   -1.2704 H   0  0  0  0  0  0  0  0  0  0  0  0
   -3.2124   -1.3578   -1.1289 N   0  0  0  0  0  0  0  0  0  0  0  0
   -1.8971   -1.8843   -0.8752 C   0  0  2  0  0  0  0  0  0  0  0  0
   -1.2676   -1.0599    0.2399 C   0  0  0  0  0  0  0  0  0  0  0  0
   -1.6270    0.0833    0.5138 O   0  0  0  0  0  0  0  0  0  0  0  0
   -1.0364   -1.8506   -2.1285 C   0  0  0  0  0  0  0  0  0  0  0  0
   -3.5631   -0.6202   -0.5206 H   0  0  0  0  0  0  0  0  0  0  0  0
   -2.0301   -2.9174   -0.5360 H   0  0  0  0  0  0  0  0  0  0  0  0
   -0.8921   -0.8236   -2.4833 H   0  0  0  0  0  0  0  0  0  0  0  0
   -0.0457   -2.2777   -1.9410 H   0  0  0  0  0  0  0  0  0  0  0  0
   -1.5052   -2.4193   -2.9387 H   0  0  0  0  0  0  0  0  0  0  0  0
   -0.2267   -1.7335    0.8672 N   0  0  0  0  0  0  0  0  0  0  0  0
    0.5363   -1.1590    1.9465 C   0  0  2  0  0  0  0  0  0  0  0  0
   -0.2428    0.0483    2.4555 C   0  0  0  0  0  0  0  0  0  0  0  0
    0.2767    1.1435    2.6604 O   0  0  0  0  0  0  0  0  0  0  0  0
    1.9345   -0.7436    1.4950 C   0  0  0  0  0  0  0  0  0  0  0  0
    2.9032   -1.8799    1.1433 C   0  0  0  0  0  0  0  0  0  0  0  0
    2.6888   -2.9551    1.7749 O   0  5  0  0  0  0  0  0  0  0  0  0
    3.7932   -1.6198    0.2882 O   0  0  0  0  0  0  0  0  0  0  0  0
   -0.0113   -2.6869    0.5854 H   0  0  0  0  0  0  0  0  0  0  0  0
    0.5840   -1.9165    2.7370 H   0  0  0  0  0  0  0  0  0  0  0  0
    2.4058   -0.1273    2.2729 H   0  0  0  0  0  0  0  0  0  0  0  0
    1.8614   -0.1115    0.6004 H   0  0  0  0  0  0  0  0  0  0  0  0
   -1.5948   -0.2279    2.6038 N   0  0  0  0  0  0  0  0  0  0  0  0
   -2.5515    0.7611    3.0432 C   0  0  2  0  0  0  0  0  0  0  0  0
   -3.6535    0.0415    3.8094 C   0  0  0  0  0  0  0  0  0  0  0  0
   -3.9015   -1.1536    3.6636 O   0  0  0  0  0  0  0  0  0  0  0  0
   -3.1245    1.5372    1.8676 C   0  0  0  0  0  0  0  0  0  0  0  0
   -1.9450   -1.1509    2.3647 H   0  0  0  0  0  0  0  0  0  0  0  0
   -2.0183    1.4385    3.7191 H   0  0  0  0  0  0  0  0  0  0  0  0
   -3.6624    0.8751    1.1793 H   0  0  0  0  0  0  0  0  0  0  0  0
   -3.8280    2.3056    2.2046 H   0  0  0  0  0  0  0  0  0  0  0  0
   -2.3275    2.0298    1.3002 H   0  0  0  0  0  0  0  0  0  0  0  0
   -4.3557    0.9003    4.6434 N   0  0  0  0  0  0  0  0  0  0  0  0
   -5.4577    0.4599    5.4666 C   0  0  0  0  0  0  0  0  0  0  0  0
   -4.0689    1.8721    4.7157 H   0  0  0  0  0  0  0  0  0  0  0  0
   -6.4025    0.6002    4.9210 H   0  0  0  0  0  0  0  0  0  0  0  0
   -5.3301   -0.6050    5.7107 H   0  0  0  0  0  0  0  0  0  0  0  0
   -5.4798    1.0489    6.3953 H   0  0  0  0  0  0  0  0  0  0  0  0
  1  3  1  0  0  0  0
  1  7  1  0  0  0  0
  1  2  2  0  0  0  0
 30 31  1  0  0  0  0
 31 39  1  0  0  0  0
 31 32  2  0  0  0  0
  8  9  1  0  0  0  0
  9 17  1  0  0  0  0
  9 10  2  0  0  0  0
 18 19  1  0  0  0  0
 19 29  1  0  0  0  0
 19 20  2  0  0  0  0
 21 22  1  0  0  0  0
 22 23  1  0  0  0  0
 22 24  2  0  0  0  0
 30 33  1  0  0  0  0
  8 11  1  0  0  0  0
 39 40  1  0  0  0  0
 18 21  1  0  0  0  0
 29 30  1  0  0  0  0
  7  8  1  0  0  0  0
 17 18  1  0  0  0  0
  3  4  1  0  0  0  0
  3  5  1  0  0  0  0
  3  6  1  0  0  0  0
 33 36  1  0  0  0  0
 33 37  1  0  0  0  0
 33 38  1  0  0  0  0
 11 14  1  0  0  0  0
 11 15  1  0  0  0  0
 11 16  1  0  0  0  0
 40 42  1  0  0  0  0
 40 43  1  0  0  0  0
 40 44  1  0  0  0  0
 21 27  1  0  0  0  0
 21 28  1  0  0  0  0
 30 35  1  0  0  0  0
  8 13  1  0  0  0  0
 18 26  1  0  0  0  0
 39 41  1  0  0  0  0
  7 12  1  0  0  0  0
 29 34  1  0  0  0  0
 17 25  1  0  0  0  0
M  CHG  1  23  -1
M  END
$$$$

  -OEChem-05262214473D

 44 43  0     1  0  0  0  0  0999 V2000
   -4.0256   -1.8030   -2.1581 C   0  0  0  0  0  0  0  0  0  0  0  0
   -3.7513   -2.6782   -2.9709 O   0  0  0  0  0  0  0  0  0  0  0  0
   -5.3491   -1.1169   -2.2339 C   0  0  0  0  0  0  0  0  0  0  0  0
   -5.3223   -0.2211   -2.8750 H   0  0  0  0  0  0  0  0  0  0  0  0
   -6.1322   -1.7605   -2.6658 H   0  0  0  0  0  0  0  0  0  0  0  0
   -5.7568   -0.7715   -1.2704 H   0  0  0  0  0  0  0  0  0  0  0  0
   -3.2124   -1.3578   -1.1289 N   0  0  0  0  0  0  0  0  0  0  0  0
   -1.8971   -1.8843   -0.8752 C   0  0  2  0  0  0  0  0  0  0  0  0
   -1.2676   -1.0599    0.2399 C   0  0  0  0  0  0  0  0  0  0  0  0
   -1.6270    0.0833    0.5138 O   0  0  0  0  0  0  0  0  0  0  0  0
   -1.0364   -1.8506   -2.1285 C   0  0  0  0  0  0  0  0  0  0  0  0
   -3.5631   -0.6202   -0.5206 H   0  0  0  0  0  0  0  0  0  0  0  0
   -2.0301   -2.9174   -0.5360 H   0  0  0  0  0  0  0  0  0  0  0  0
   -0.8921   -0.8236   -2.4833 H   0  0  0  0  0  0  0  0  0  0  0  0
   -0.0457   -2.2777   -1.9410 H   0  0  0  0  0  0  0  0  0  0  0  0
   -1.5052   -2.4193   -2.9387 H   0  0  0  0  0  0  0  0  0  0  0  0
   -0.2267   -1.7335    0.8672 N   0  0  0  0  0  0  0  0  0  0  0  0
    0.5363   -1.1590    1.9465 C   0  0  2  0  0  0  0  0  0  0  0  0
   -0.2428    0.0483    2.4555 C   0  0  0  0  0  0  0  0  0  0  0  0
    0.1946    1.1963    2.4098 O   0  0  0  0  0  0  0  0  0  0  0  0
    1.9345   -0.7436    1.4950 C   0  0  0  0  0  0  0  0  0  0  0  0
    2.9032   -1.8799    1.1433 C   0  0  0  0  0  0  0  0  0  0  0  0
    2.6888   -2.9551    1.7749 O   0  5  0  0  0  0  0  0  0  0  0  0
    3.7932   -1.6198    0.2882 O   0  0  0  0  0  0  0  0  0  0  0  0
   -0.0113   -2.6869    0.5854 H   0  0  0  0  0  0  0  0  0  0  0  0
    0.5840   -1.9165    2.7370 H   0  0  0  0  0  0  0  0  0  0  0  0
    2.4058   -0.1273    2.2729 H   0  0  0  0  0  0  0  0  0  0  0  0
    1.8614   -0.1115    0.6004 H   0  0  0  0  0  0  0  0  0  0  0  0
   -1.5035   -0.3017    2.9184 N   0  0  0  0  0  0  0  0  0  0  0  0
   -2.4477    0.6674    3.4242 C   0  0  2  0  0  0  0  0  0  0  0  0
   -3.2973   -0.0149    4.4883 C   0  0  0  0  0  0  0  0  0  0  0  0
   -3.4483   -1.2335    4.5465 O   0  0  0  0  0  0  0  0  0  0  0  0
   -3.3183    1.2259    2.3094 C   0  0  0  0  0  0  0  0  0  0  0  0
   -1.8000   -1.2722    2.8741 H   0  0  0  0  0  0  0  0  0  0  0  0
   -1.8612    1.4704    3.8838 H   0  0  0  0  0  0  0  0  0  0  0  0
   -3.9134    0.4359    1.8369 H   0  0  0  0  0  0  0  0  0  0  0  0
   -4.0140    1.9811    2.6898 H   0  0  0  0  0  0  0  0  0  0  0  0
   -2.7037    1.6900    1.5304 H   0  0  0  0  0  0  0  0  0  0  0  0
   -3.9018    0.8999    5.3392 N   0  0  0  0  0  0  0  0  0  0  0  0
   -4.7679    0.5013    6.4240 C   0  0  0  0  0  0  0  0  0  0  0  0
   -3.7052    1.8903    5.2290 H   0  0  0  0  0  0  0  0  0  0  0  0
   -5.8117    0.4941    6.0768 H   0  0  0  0  0  0  0  0  0  0  0  0
   -4.4882   -0.5064    6.7652 H   0  0  0  0  0  0  0  0  0  0  0  0
   -4.6635    1.2124    7.2567 H   0  0  0  0  0  0  0  0  0  0  0  0
  1  3  1  0  0  0  0
  1  7  1  0  0  0  0
  1  2  2  0  0  0  0
 30 31  1  0  0  0  0
 31 39  1  0  0  0  0
 31 32  2  0  0  0  0
  8  9  1  0  0  0  0
  9 17  1  0  0  0  0
  9 10  2  0  0  0  0
 18 19  1  0  0  0  0
 19 29  1  0  0  0  0
 19 20  2  0  0  0  0
 21 22  1  0  0  0  0
 22 23  1  0  0  0  0
 22 24  2  0  0  0  0
 30 33  1  0  0  0  0
  8 11  1  0  0  0  0
 39 40  1  0  0  0  0
 18 21  1  0  0  0  0
 29 30  1  0  0  0  0
  7  8  1  0  0  0  0
 17 18  1  0  0  0  0
  3  4  1  0  0  0  0
  3  5  1  0  0  0  0
  3  6  1  0  0  0  0
 33 36  1  0  0  0  0
 33 37  1  0  0  0  0
 33 38  1  0  0  0  0
 11 14  1  0  0  0  0
 11 15  1  0  0  0  0
 11 16  1  0  0  0  0
 40 42  1  0  0  0  0
 40 43  1  0  0  0  0
 40 44  1  0  0  0  0
 21 27  1  0  0  0  0
 21 28  1  0  0  0  0
 30 35  1  0  0  0  0
  8 13  1  0  0  0  0
 18 26  1  0  0  0  0
 39 41  1  0  0  0  0
  7 12  1  0  0  0  0
 29 34  1  0  0  0  0
 17 25  1  0  0  0  0
M  CHG  1  23  -1
M  END
$$$$

  -OEChem-05262214473D

 44 43  0     1  0  0  0  0  0999 V2000
   -4.0256   -1.8030   -2.1581 C   0  0  0  0  0  0  0  0  0  0  0  0
   -3.7513   -2.6782   -2.9709 O   0  0  0  0  0  0  0  0  0  0  0  0
   -5.3491   -1.1169   -2.2339 C   0  0  0  0  0  0  0  0  0  0  0  0
   -5.3223   -0.2211   -2.8750 H   0  0  0  0  0  0  0  0  0  0  0  0
   -6.1322   -1.7605   -2.6658 H   0  0  0  0  0  0  0  0  0  0  0  0
   -5.7568   -0.7715   -1.2704 H   0  0  0  0  0  0  0  0  0  0  0  0
   -3.2124   -1.3578   -1.1289 N   0  0  0  0  0  0  0  0  0  0  0  0
   -1.8971   -1.8843   -0.8752 C   0  0  2  0  0  0  0  0  0  0  0  0
   -1.2676   -1.0599    0.2399 C   0  0  0  0  0  0  0  0  0  0  0  0
   -1.6270    0.0833    0.5138 O   0  0  0  0  0  0  0  0  0  0  0  0
   -1.0364   -1.8506   -2.1285 C   0  0  0  0  0  0  0  0  0  0  0  0
   -3.5631   -0.6202   -0.5206 H   0  0  0  0  0  0  0  0  0  0  0  0
   -2.0301   -2.9174   -0.5360 H   0  0  0  0  0  0  0  0  0  0  0  0
   -0.8921   -0.8236   -2.4833 H   0  0  0  0  0  0  0  0  0  0  0  0
   -0.0457   -2.2777   -1.9410 H   0  0  0  0  0  0  0  0  0  0  0  0
   -1.5052   -2.4193   -2.9387 H   0  0  0  0  0  0  0  0  0  0  0  0
   -0.2267   -1.7335    0.8672 N   0  0  0  0  0  0  0  0  0  0  0  0
    0.5363   -1.1590    1.9465 C   0  0  2  0  0  0  0  0  0  0  0  0
   -0.2428    0.0483    2.4555 C   0  0  0  0  0  0  0  0  0  0  0  0
    0.0594    1.2070    2.1774 O   0  0  0  0  0  0  0  0  0  0  0  0
    1.9345   -0.7436    1.4950 C   0  0  0  0  0  0  0  0  0  0  0  0
    2.9032   -1.8799    1.1433 C   0  0  0  0  0  0  0  0  0  0  0  0
    2.6888   -2.9551    1.7749 O   0  5  0  0  0  0  0  0  0  0  0  0
    3.7932   -1.6198    0.2882 O   0  0  0  0  0  0  0  0  0  0  0  0
   -0.0113   -2.6869    0.5854 H   0  0  0  0  0  0  0  0  0  0  0  0
    0.5840   -1.9165    2.7370 H   0  0  0  0  0  0  0  0  0  0  0  0
    2.4058   -0.1273    2.2729 H   0  0  0  0  0  0  0  0  0  0  0  0
    1.8614   -0.1115    0.6004 H   0  0  0  0  0  0  0  0  0  0  0  0
   -1.3445   -0.3234    3.2133 N   0  0  0  0  0  0  0  0  0  0  0  0
   -2.2613    0.6362    3.7834 C   0  0  2  0  0  0  0  0  0  0  0  0
   -2.8092    0.0512    5.0785 C   0  0  0  0  0  0  0  0  0  0  0  0
   -2.8227   -1.1546    5.3169 O   0  0  0  0  0  0  0  0  0  0  0  0
   -3.3880    0.9669    2.8170 C   0  0  0  0  0  0  0  0  0  0  0  0
   -1.5451   -1.3094    3.3525 H   0  0  0  0  0  0  0  0  0  0  0  0
   -1.6785    1.5365    4.0065 H   0  0  0  0  0  0  0  0  0  0  0  0
   -3.9830    0.0770    2.5817 H   0  0  0  0  0  0  0  0  0  0  0  0
   -4.0661    1.7157    3.2394 H   0  0  0  0  0  0  0  0  0  0  0  0
   -2.9906    1.3597    1.8748 H   0  0  0  0  0  0  0  0  0  0  0  0
   -3.3206    1.0307    5.9183 N   0  0  0  0  0  0  0  0  0  0  0  0
   -3.9090    0.7275    7.2020 C   0  0  0  0  0  0  0  0  0  0  0  0
   -3.2502    2.0073    5.6479 H   0  0  0  0  0  0  0  0  0  0  0  0
   -4.9949    0.5955    7.0862 H   0  0  0  0  0  0  0  0  0  0  0  0
   -3.4674   -0.1988    7.5980 H   0  0  0  0  0  0  0  0  0  0  0  0
   -3.7126    1.5549    7.8998 H   0  0  0  0  0  0  0  0  0  0  0  0
  1  3  1  0  0  0  0
  1  7  1  0  0  0  0
  1  2  2  0  0  0  0
 30 31  1  0  0  0  0
 31 39  1  0  0  0  0
 31 32  2  0  0  0  0
  8  9  1  0  0  0  0
  9 17  1  0  0  0  0
  9 10  2  0  0  0  0
 18 19  1  0  0  0  0
 19 29  1  0  0  0  0
 19 20  2  0  0  0  0
 21 22  1  0  0  0  0
 22 23  1  0  0  0  0
 22 24  2  0  0  0  0
 30 33  1  0  0  0  0
  8 11  1  0  0  0  0
 39 40  1  0  0  0  0
 18 21  1  0  0  0  0
 29 30  1  0  0  0  0
  7  8  1  0  0  0  0
 17 18  1  0  0  0  0
  3  4  1  0  0  0  0
  3  5  1  0  0  0  0
  3  6  1  0  0  0  0
 33 36  1  0  0  0  0
 33 37  1  0  0  0  0
 33 38  1  0  0  0  0
 11 14  1  0  0  0  0
 11 15  1  0  0  0  0
 11 16  1  0  0  0  0
 40 42  1  0  0  0  0
 40 43  1  0  0  0  0
 40 44  1  0  0  0  0
 21 27  1  0  0  0  0
 21 28  1  0  0  0  0
 30 35  1  0  0  0  0
  8 13  1  0  0  0  0
 18 26  1  0  0  0  0
 39 41  1  0  0  0  0
  7 12  1  0  0  0  0
 29 34  1  0  0  0  0
 17 25  1  0  0  0  0
M  CHG  1  23  -1
M  END
$$$$

  -OEChem-05262214473D

 44 43  0     1  0  0  0  0  0999 V2000
   -4.0256   -1.8030   -2.1581 C   0  0  0  0  0  0  0  0  0  0  0  0
   -3.7513   -2.6782   -2.9709 O   0  0  0  0  0  0  0  0  0  0  0  0
   -5.3491   -1.1169   -2.2339 C   0  0  0  0  0  0  0  0  0  0  0  0
   -5.3223   -0.2211   -2.8750 H   0  0  0  0  0  0  0  0  0  0  0  0
   -6.1322   -1.7605   -2.6658 H   0  0  0  0  0  0  0  0  0  0  0  0
   -5.7568   -0.7715   -1.2704 H   0  0  0  0  0  0  0  0  0  0  0  0
   -3.2124   -1.3578   -1.1289 N   0  0  0  0  0  0  0  0  0  0  0  0
   -1.8971   -1.8843   -0.8752 C   0  0  2  0  0  0  0  0  0  0  0  0
   -1.2676   -1.0599    0.2399 C   0  0  0  0  0  0  0  0  0  0  0  0
   -1.6270    0.0833    0.5138 O   0  0  0  0  0  0  0  0  0  0  0  0
   -1.0364   -1.8506   -2.1285 C   0  0  0  0  0  0  0  0  0  0  0  0
   -3.5631   -0.6202   -0.5206 H   0  0  0  0  0  0  0  0  0  0  0  0
   -2.0301   -2.9174   -0.5360 H   0  0  0  0  0  0  0  0  0  0  0  0
   -0.8921   -0.8236   -2.4833 H   0  0  0  0  0  0  0  0  0  0  0  0
   -0.0457   -2.2777   -1.9410 H   0  0  0  0  0  0  0  0  0  0  0  0
   -1.5052   -2.4193   -2.9387 H   0  0  0  0  0  0  0  0  0  0  0  0
   -0.2267   -1.7335    0.8672 N   0  0  0  0  0  0  0  0  0  0  0  0
    0.5363   -1.1590    1.9465 C   0  0  2  0  0  0  0  0  0  0  0  0
   -0.2428    0.0483    2.4555 C   0  0  0  0  0  0  0  0  0  0  0  0
   -0.1197    1.1750    1.9793 O   0  0  0  0  0  0  0  0  0  0  0  0
    1.9345   -0.7436    1.4950 C   0  0  0  0  0  0  0  0  0  0  0  0
    2.9032   -1.8799    1.1433 C   0  0  0  0  0  0  0  0  0  0  0  0
    2.6888   -2.9551    1.7749 O   0  5  0  0  0  0  0  0  0  0  0  0
    3.7932   -1.6198    0.2882 O   0  0  0  0  0  0  0  0  0  0  0  0
   -0.0113   -2.6869    0.5854 H   0  0  0  0  0  0  0  0  0  0  0  0
    0.5840   -1.9165    2.7370 H   0  0  0  0  0  0  0  0  0  0  0  0
    2.4058   -0.1273    2.2729 H   0  0  0  0  0  0  0  0  0  0  0  0
    1.8614   -0.1115    0.6004 H   0  0  0  0  0  0  0  0  0  0  0  0
   -1.1286   -0.2917    3.4684 N   0  0  0  0  0  0  0  0  0  0  0  0
   -2.0049    0.6697    4.0963 C   0  0  2  0  0  0  0  0  0  0  0  0
   -2.2224    0.2353    5.5397 C   0  0  0  0  0  0  0  0  0  0  0  0
   -2.0673   -0.9225    5.9225 O   0  0  0  0  0  0  0  0  0  0  0  0
   -3.3289    0.7778    3.3558 C   0  0  0  0  0  0  0  0  0  0  0  0
   -1.1976   -1.2600    3.7672 H   0  0  0  0  0  0  0  0  0  0  0  0
   -1.4826    1.6325    4.0788 H   0  0  0  0  0  0  0  0  0  0  0  0
   -3.8666   -0.1773    3.3628 H   0  0  0  0  0  0  0  0  0  0  0  0
   -3.9808    1.5275    3.8162 H   0  0  0  0  0  0  0  0  0  0  0  0
   -3.1685    1.0614    2.3100 H   0  0  0  0  0  0  0  0  0  0  0  0
   -2.6519    1.2838    6.3412 N   0  0  0  0  0  0  0  0  0  0  0  0
   -2.9394    1.1232    7.7474 C   0  0  0  0  0  0  0  0  0  0  0  0
   -2.7350    2.2149    5.9438 H   0  0  0  0  0  0  0  0  0  0  0  0
   -4.0078    0.8976    7.8804 H   0  0  0  0  0  0  0  0  0  0  0  0
   -2.3371    0.2966    8.1526 H   0  0  0  0  0  0  0  0  0  0  0  0
   -2.6919    2.0529    8.2807 H   0  0  0  0  0  0  0  0  0  0  0  0
  1  3  1  0  0  0  0
  1  7  1  0  0  0  0
  1  2  2  0  0  0  0
 30 31  1  0  0  0  0
 31 39  1  0  0  0  0
 31 32  2  0  0  0  0
  8  9  1  0  0  0  0
  9 17  1  0  0  0  0
  9 10  2  0  0  0  0
 18 19  1  0  0  0  0
 19 29  1  0  0  0  0
 19 20  2  0  0  0  0
 21 22  1  0  0  0  0
 22 23  1  0  0  0  0
 22 24  2  0  0  0  0
 30 33  1  0  0  0  0
  8 11  1  0  0  0  0
 39 40  1  0  0  0  0
 18 21  1  0  0  0  0
 29 30  1  0  0  0  0
  7  8  1  0  0  0  0
 17 18  1  0  0  0  0
  3  4  1  0  0  0  0
  3  5  1  0  0  0  0
  3  6  1  0  0  0  0
 33 36  1  0  0  0  0
 33 37  1  0  0  0  0
 33 38  1  0  0  0  0
 11 14  1  0  0  0  0
 11 15  1  0  0  0  0
 11 16  1  0  0  0  0
 40 42  1  0  0  0  0
 40 43  1  0  0  0  0
 40 44  1  0  0  0  0
 21 27  1  0  0  0  0
 21 28  1  0  0  0  0
 30 35  1  0  0  0  0
  8 13  1  0  0  0  0
 18 26  1  0  0  0  0
 39 41  1  0  0  0  0
  7 12  1  0  0  0  0
 29 34  1  0  0  0  0
 17 25  1  0  0  0  0
M  CHG  1  23  -1
M  END
$$$$

  -OEChem-05262214473D

 44 43  0     1  0  0  0  0  0999 V2000
   -4.0256   -1.8030   -2.1581 C   0  0  0  0  0  0  0  0  0  0  0  0
   -3.7513   -2.6782   -2.9709 O   0  0  0  0  0  0  0  0  0  0  0  0
   -5.3491   -1.1169   -2.2339 C   0  0  0  0  0  0  0  0  0  0  0  0
   -5.3223   -0.2211   -2.8750 H   0  0  0  0  0  0  0  0  0  0  0  0
   -6.1322   -1.7605   -2.6658 H   0  0  0  0  0  0  0  0  0  0  0  0
   -5.7568   -0.7715   -1.2704 H   0  0  0  0  0  0  0  0  0  0  0  0
   -3.2124   -1.3578   -1.1289 N   0  0  0  0  0  0  0  0  0  0  0  0
   -1.8971   -1.8843   -0.8752 C   0  0  2  0  0  0  0  0  0  0  0  0
   -1.2676   -1.0599    0.2399 C   0  0  0  0  0  0  0  0  0  0  0  0
   -1.6270    0.0833    0.5138 O   0  0  0  0  0  0  0  0  0  0  0  0
   -1.0364   -1.8506   -2.1285 C   0  0  0  0  0  0  0  0  0  0  0  0
   -3.5631   -0.6202   -0.5206 H   0  0  0  0  0  0  0  0  0  0  0  0
   -2.0301   -2.9174   -0.5360 H   0  0  0  0  0  0  0  0  0  0  0  0
   -0.8921   -0.8236   -2.4833 H   0  0  0  0  0  0  0  0  0  0  0  0
   -0.0457   -2.2777   -1.9410 H   0  0  0  0  0  0  0  0  0  0  0  0
   -1.5052   -2.4193   -2.9387 H   0  0  0  0  0  0  0  0  0  0  0  0
   -0.2267   -1.7335    0.8672 N   0  0  0  0  0  0  0  0  0  0  0  0
    0.5363   -1.1590    1.9465 C   0  0  2  0  0  0  0  0  0  0  0  0
   -0.2428    0.0483    2.4555 C   0  0  0  0  0  0  0  0  0  0  0  0
   -0.3305    1.1023    1.8289 O   0  0  0  0  0  0  0  0  0  0  0  0
    1.9345   -0.7436    1.4950 C   0  0  0  0  0  0  0  0  0  0  0  0
    2.9032   -1.8799    1.1433 C   0  0  0  0  0  0  0  0  0  0  0  0
    2.6888   -2.9551    1.7749 O   0  5  0  0  0  0  0  0  0  0  0  0
    3.7932   -1.6198    0.2882 O   0  0  0  0  0  0  0  0  0  0  0  0
   -0.0113   -2.6869    0.5854 H   0  0  0  0  0  0  0  0  0  0  0  0
    0.5840   -1.9165    2.7370 H   0  0  0  0  0  0  0  0  0  0  0  0
    2.4058   -0.1273    2.2729 H   0  0  0  0  0  0  0  0  0  0  0  0
    1.8614   -0.1115    0.6004 H   0  0  0  0  0  0  0  0  0  0  0  0
   -0.8705   -0.2086    3.6664 N   0  0  0  0  0  0  0  0  0  0  0  0
   -1.6961    0.7656    4.3415 C   0  0  2  0  0  0  0  0  0  0  0  0
   -1.5771    0.5249    5.8406 C   0  0  0  0  0  0  0  0  0  0  0  0
   -1.2335   -0.5529    6.3218 O   0  0  0  0  0  0  0  0  0  0  0  0
   -3.1450    0.6716    3.8892 C   0  0  0  0  0  0  0  0  0  0  0  0
   -0.7812   -1.1275    4.0901 H   0  0  0  0  0  0  0  0  0  0  0  0
   -1.2869    1.7516    4.0957 H   0  0  0  0  0  0  0  0  0  0  0  0
   -3.5721   -0.3095    4.1270 H   0  0  0  0  0  0  0  0  0  0  0  0
   -3.7640    1.4295    4.3807 H   0  0  0  0  0  0  0  0  0  0  0  0
   -3.2253    0.8154    2.8063 H   0  0  0  0  0  0  0  0  0  0  0  0
   -1.9412    1.6421    6.5791 N   0  0  0  0  0  0  0  0  0  0  0  0
   -1.9252    1.6613    8.0232 C   0  0  0  0  0  0  0  0  0  0  0  0
   -2.1946    2.4992    6.0965 H   0  0  0  0  0  0  0  0  0  0  0  0
   -2.9176    1.3798    8.4051 H   0  0  0  0  0  0  0  0  0  0  0  0
   -1.1746    0.9462    8.3910 H   0  0  0  0  0  0  0  0  0  0  0  0
   -1.6709    2.6725    8.3736 H   0  0  0  0  0  0  0  0  0  0  0  0
  1  3  1  0  0  0  0
  1  7  1  0  0  0  0
  1  2  2  0  0  0  0
 30 31  1  0  0  0  0
 31 39  1  0  0  0  0
 31 32  2  0  0  0  0
  8  9  1  0  0  0  0
  9 17  1  0  0  0  0
  9 10  2  0  0  0  0
 18 19  1  0  0  0  0
 19 29  1  0  0  0  0
 19 20  2  0  0  0  0
 21 22  1  0  0  0  0
 22 23  1  0  0  0  0
 22 24  2  0  0  0  0
 30 33  1  0  0  0  0
  8 11  1  0  0  0  0
 39 40  1  0  0  0  0
 18 21  1  0  0  0  0
 29 30  1  0  0  0  0
  7  8  1  0  0  0  0
 17 18  1  0  0  0  0
  3  4  1  0  0  0  0
  3  5  1  0  0  0  0
  3  6  1  0  0  0  0
 33 36  1  0  0  0  0
 33 37  1  0  0  0  0
 33 38  1  0  0  0  0
 11 14  1  0  0  0  0
 11 15  1  0  0  0  0
 11 16  1  0  0  0  0
 40 42  1  0  0  0  0
 40 43  1  0  0  0  0
 40 44  1  0  0  0  0
 21 27  1  0  0  0  0
 21 28  1  0  0  0  0
 30 35  1  0  0  0  0
  8 13  1  0  0  0  0
 18 26  1  0  0  0  0
 39 41  1  0  0  0  0
  7 12  1  0  0  0  0
 29 34  1  0  0  0  0
 17 25  1  0  0  0  0
M  CHG  1  23  -1
M  END
$$$$

  -OEChem-05262214473D

 44 43  0     1  0  0  0  0  0999 V2000
   -4.0256   -1.8030   -2.1581 C   0  0  0  0  0  0  0  0  0  0  0  0
   -3.7513   -2.6782   -2.9709 O   0  0  0  0  0  0  0  0  0  0  0  0
   -5.3491   -1.1169   -2.2339 C   0  0  0  0  0  0  0  0  0  0  0  0
   -5.3223   -0.2211   -2.8750 H   0  0  0  0  0  0  0  0  0  0  0  0
   -6.1322   -1.7605   -2.6658 H   0  0  0  0  0  0  0  0  0  0  0  0
   -5.7568   -0.7715   -1.2704 H   0  0  0  0  0  0  0  0  0  0  0  0
   -3.2124   -1.3578   -1.1289 N   0  0  0  0  0  0  0  0  0  0  0  0
   -1.8971   -1.8843   -0.8752 C   0  0  2  0  0  0  0  0  0  0  0  0
   -1.2676   -1.0599    0.2399 C   0  0  0  0  0  0  0  0  0  0  0  0
   -1.6270    0.0833    0.5138 O   0  0  0  0  0  0  0  0  0  0  0  0
   -1.0364   -1.8506   -2.1285 C   0  0  0  0  0  0  0  0  0  0  0  0
   -3.5631   -0.6202   -0.5206 H   0  0  0  0  0  0  0  0  0  0  0  0
   -2.0301   -2.9174   -0.5360 H   0  0  0  0  0  0  0  0  0  0  0  0
   -0.8921   -0.8236   -2.4833 H   0  0  0  0  0  0  0  0  0  0  0  0
   -0.0457   -2.2777   -1.9410 H   0  0  0  0  0  0  0  0  0  0  0  0
   -1.5052   -2.4193   -2.9387 H   0  0  0  0  0  0  0  0  0  0  0  0
   -0.2267   -1.7335    0.8672 N   0  0  0  0  0  0  0  0  0  0  0  0
    0.5363   -1.1590    1.9465 C   0  0  2  0  0  0  0  0  0  0  0  0
   -0.2428    0.0483    2.4555 C   0  0  0  0  0  0  0  0  0  0  0  0
   -0.5588    0.9940    1.7365 O   0  0  0  0  0  0  0  0  0  0  0  0
    1.9345   -0.7436    1.4950 C   0  0  0  0  0  0  0  0  0  0  0  0
    2.9032   -1.8799    1.1433 C   0  0  0  0  0  0  0  0  0  0  0  0
    2.6888   -2.9551    1.7749 O   0  5  0  0  0  0  0  0  0  0  0  0
    3.7932   -1.6198    0.2882 O   0  0  0  0  0  0  0  0  0  0  0  0
   -0.0113   -2.6869    0.5854 H   0  0  0  0  0  0  0  0  0  0  0  0
    0.5840   -1.9165    2.7370 H   0  0  0  0  0  0  0  0  0  0  0  0
    2.4058   -0.1273    2.2729 H   0  0  0  0  0  0  0  0  0  0  0  0
    1.8614   -0.1115    0.6004 H   0  0  0  0  0  0  0  0  0  0  0  0
   -0.5878   -0.0798    3.7938 N   0  0  0  0  0  0  0  0  0  0  0  0
   -1.3557    0.9174    4.5024 C   0  0  2  0  0  0  0  0  0  0  0  0
   -0.9170    0.9002    5.9607 C   0  0  0  0  0  0  0  0  0  0  0  0
   -0.3783   -0.0710    6.4877 O   0  0  0  0  0  0  0  0  0  0  0  0
   -2.8488    0.6554    4.3808 C   0  0  0  0  0  0  0  0  0  0  0  0
   -0.3242   -0.9207    4.2990 H   0  0  0  0  0  0  0  0  0  0  0  0
   -1.1046    1.8859    4.0562 H   0  0  0  0  0  0  0  0  0  0  0  0
   -3.1195   -0.3106    4.8224 H   0  0  0  0  0  0  0  0  0  0  0  0
   -3.4303    1.4281    4.8944 H   0  0  0  0  0  0  0  0  0  0  0  0
   -3.1573    0.6386    3.3299 H   0  0  0  0  0  0  0  0  0  0  0  0
   -1.2368    2.0811    6.6159 N   0  0  0  0  0  0  0  0  0  0  0  0
   -0.9356    2.3052    8.0105 C   0  0  0  0  0  0  0  0  0  0  0  0
   -1.6659    2.8407    6.0957 H   0  0  0  0  0  0  0  0  0  0  0  0
   -1.7987    2.0092    8.6248 H   0  0  0  0  0  0  0  0  0  0  0  0
   -0.0589    1.7057    8.2971 H   0  0  0  0  0  0  0  0  0  0  0  0
   -0.7192    3.3716    8.1720 H   0  0  0  0  0  0  0  0  0  0  0  0
  1  3  1  0  0  0  0
  1  7  1  0  0  0  0
  1  2  2  0  0  0  0
 30 31  1  0  0  0  0
 31 39  1  0  0  0  0
 31 32  2  0  0  0  0
  8  9  1  0  0  0  0
  9 17  1  0  0  0  0
  9 10  2  0  0  0  0
 18 19  1  0  0  0  0
 19 29  1  0  0  0  0
 19 20  2  0  0  0  0
 21 22  1  0  0  0  0
 22 23  1  0  0  0  0
 22 24  2  0  0  0  0
 30 33  1  0  0  0  0
  8 11  1  0  0  0  0
 39 40  1  0  0  0  0
 18 21  1  0  0  0  0
 29 30  1  0  0  0  0
  7  8  1  0  0  0  0
 17 18  1  0  0  0  0
  3  4  1  0  0  0  0
  3  5  1  0  0  0  0
  3  6  1  0  0  0  0
 33 36  1  0  0  0  0
 33 37  1  0  0  0  0
 33 38  1  0  0  0  0
 11 14  1  0  0  0  0
 11 15  1  0  0  0  0
 11 16  1  0  0  0  0
 40 42  1  0  0  0  0
 40 43  1  0  0  0  0
 40 44  1  0  0  0  0
 21 27  1  0  0  0  0
 21 28  1  0  0  0  0
 30 35  1  0  0  0  0
  8 13  1  0  0  0  0
 18 26  1  0  0  0  0
 39 41  1  0  0  0  0
  7 12  1  0  0  0  0
 29 34  1  0  0  0  0
 17 25  1  0  0  0  0
M  CHG  1  23  -1
M  END
$$$$

  -OEChem-05262214473D

 44 43  0     1  0  0  0  0  0999 V2000
   -4.0256   -1.8030   -2.1581 C   0  0  0  0  0  0  0  0  0  0  0  0
   -3.7513   -2.6782   -2.9709 O   0  0  0  0  0  0  0  0  0  0  0  0
   -5.3491   -1.1169   -2.2339 C   0  0  0  0  0  0  0  0  0  0  0  0
   -5.3223   -0.2211   -2.8750 H   0  0  0  0  0  0  0  0  0  0  0  0
   -6.1322   -1.7605   -2.6658 H   0  0  0  0  0  0  0  0  0  0  0  0
   -5.7568   -0.7715   -1.2704 H   0  0  0  0  0  0  0  0  0  0  0  0
   -3.2124   -1.3578   -1.1289 N   0  0  0  0  0  0  0  0  0  0  0  0
   -1.8971   -1.8843   -0.8752 C   0  0  2  0  0  0  0  0  0  0  0  0
   -1.2676   -1.0599    0.2399 C   0  0  0  0  0  0  0  0  0  0  0  0
   -1.6270    0.0833    0.5138 O   0  0  0  0  0  0  0  0  0  0  0  0
   -1.0364   -1.8506   -2.1285 C   0  0  0  0  0  0  0  0  0  0  0  0
   -3.5631   -0.6202   -0.5206 H   0  0  0  0  0  0  0  0  0  0  0  0
   -2.0301   -2.9174   -0.5360 H   0  0  0  0  0  0  0  0  0  0  0  0
   -0.8921   -0.8236   -2.4833 H   0  0  0  0  0  0  0  0  0  0  0  0
   -0.0457   -2.2777   -1.9410 H   0  0  0  0  0  0  0  0  0  0  0  0
   -1.5052   -2.4193   -2.9387 H   0  0  0  0  0  0  0  0  0  0  0  0
   -0.2267   -1.7335    0.8672 N   0  0  0  0  0  0  0  0  0  0  0  0
    0.5363   -1.1590    1.9465 C   0  0  2  0  0  0  0  0  0  0  0  0
   -0.2428    0.0483    2.4555 C   0  0  0  0  0  0  0  0  0  0  0  0
   -0.7888    0.8575    1.7083 O   0  0  0  0  0  0  0  0  0  0  0  0
    1.9345   -0.7436    1.4950 C   0  0  0  0  0  0  0  0  0  0  0  0
    2.9032   -1.8799    1.1433 C   0  0  0  0  0  0  0  0  0  0  0  0
    2.6888   -2.9551    1.7749 O   0  5  0  0  0  0  0  0  0  0  0  0
    3.7932   -1.6198    0.2882 O   0  0  0  0  0  0  0  0  0  0  0  0
   -0.0113   -2.6869    0.5854 H   0  0  0  0  0  0  0  0  0  0  0  0
    0.5840   -1.9165    2.7370 H   0  0  0  0  0  0  0  0  0  0  0  0
    2.4058   -0.1273    2.2729 H   0  0  0  0  0  0  0  0  0  0  0  0
    1.8614   -0.1115    0.6004 H   0  0  0  0  0  0  0  0  0  0  0  0
   -0.2997    0.0858    3.8418 N   0  0  0  0  0  0  0  0  0  0  0  0
   -1.0071    1.1147    4.5679 C   0  0  2  0  0  0  0  0  0  0  0  0
   -0.2873    1.3356    5.8917 C   0  0  0  0  0  0  0  0  0  0  0  0
    0.4402    0.4904    6.4089 O   0  0  0  0  0  0  0  0  0  0  0  0
   -2.4606    0.7304    4.7971 C   0  0  0  0  0  0  0  0  0  0  0  0
    0.1421   -0.6539    4.3798 H   0  0  0  0  0  0  0  0  0  0  0  0
   -0.9483    2.0261    3.9630 H   0  0  0  0  0  0  0  0  0  0  0  0
   -2.5397   -0.1806    5.4014 H   0  0  0  0  0  0  0  0  0  0  0  0
   -3.0026    1.5236    5.3225 H   0  0  0  0  0  0  0  0  0  0  0  0
   -2.9689    0.5429    3.8451 H   0  0  0  0  0  0  0  0  0  0  0  0
   -0.5869    2.5709    6.4489 N   0  0  0  0  0  0  0  0  0  0  0  0
   -0.0379    3.0110    7.7102 C   0  0  0  0  0  0  0  0  0  0  0  0
   -1.1849    3.2162    5.9413 H   0  0  0  0  0  0  0  0  0  0  0  0
   -0.7273    2.7429    8.5243 H   0  0  0  0  0  0  0  0  0  0  0  0
    0.9338    2.5233    7.8772 H   0  0  0  0  0  0  0  0  0  0  0  0
    0.0983    4.1024    7.6898 H   0  0  0  0  0  0  0  0  0  0  0  0
  1  3  1  0  0  0  0
  1  7  1  0  0  0  0
  1  2  2  0  0  0  0
 30 31  1  0  0  0  0
 31 39  1  0  0  0  0
 31 32  2  0  0  0  0
  8  9  1  0  0  0  0
  9 17  1  0  0  0  0
  9 10  2  0  0  0  0
 18 19  1  0  0  0  0
 19 29  1  0  0  0  0
 19 20  2  0  0  0  0
 21 22  1  0  0  0  0
 22 23  1  0  0  0  0
 22 24  2  0  0  0  0
 30 33  1  0  0  0  0
  8 11  1  0  0  0  0
 39 40  1  0  0  0  0
 18 21  1  0  0  0  0
 29 30  1  0  0  0  0
  7  8  1  0  0  0  0
 17 18  1  0  0  0  0
  3  4  1  0  0  0  0
  3  5  1  0  0  0  0
  3  6  1  0  0  0  0
 33 36  1  0  0  0  0
 33 37  1  0  0  0  0
 33 38  1  0  0  0  0
 11 14  1  0  0  0  0
 11 15  1  0  0  0  0
 11 16  1  0  0  0  0
 40 42  1  0  0  0  0
 40 43  1  0  0  0  0
 40 44  1  0  0  0  0
 21 27  1  0  0  0  0
 21 28  1  0  0  0  0
 30 35  1  0  0  0  0
  8 13  1  0  0  0  0
 18 26  1  0  0  0  0
 39 41  1  0  0  0  0
  7 12  1  0  0  0  0
 29 34  1  0  0  0  0
 17 25  1  0  0  0  0
M  CHG  1  23  -1
M  END
$$$$

  -OEChem-05262214473D

 44 43  0     1  0  0  0  0  0999 V2000
   -4.0256   -1.8030   -2.1581 C   0  0  0  0  0  0  0  0  0  0  0  0
   -3.7513   -2.6782   -2.9709 O   0  0  0  0  0  0  0  0  0  0  0  0
   -5.3491   -1.1169   -2.2339 C   0  0  0  0  0  0  0  0  0  0  0  0
   -5.3223   -0.2211   -2.8750 H   0  0  0  0  0  0  0  0  0  0  0  0
   -6.1322   -1.7605   -2.6658 H   0  0  0  0  0  0  0  0  0  0  0  0
   -5.7568   -0.7715   -1.2704 H   0  0  0  0  0  0  0  0  0  0  0  0
   -3.2124   -1.3578   -1.1289 N   0  0  0  0  0  0  0  0  0  0  0  0
   -1.8971   -1.8843   -0.8752 C   0  0  2  0  0  0  0  0  0  0  0  0
   -1.2676   -1.0599    0.2399 C   0  0  0  0  0  0  0  0  0  0  0  0
   -1.6270    0.0833    0.5138 O   0  0  0  0  0  0  0  0  0  0  0  0
   -1.0364   -1.8506   -2.1285 C   0  0  0  0  0  0  0  0  0  0  0  0
   -3.5631   -0.6202   -0.5206 H   0  0  0  0  0  0  0  0  0  0  0  0
   -2.0301   -2.9174   -0.5360 H   0  0  0  0  0  0  0  0  0  0  0  0
   -0.8921   -0.8236   -2.4833 H   0  0  0  0  0  0  0  0  0  0  0  0
   -0.0457   -2.2777   -1.9410 H   0  0  0  0  0  0  0  0  0  0  0  0
   -1.5052   -2.4193   -2.9387 H   0  0  0  0  0  0  0  0  0  0  0  0
   -0.2267   -1.7335    0.8672 N   0  0  0  0  0  0  0  0  0  0  0  0
    0.5363   -1.1590    1.9465 C   0  0  2  0  0  0  0  0  0  0  0  0
   -0.2428    0.0483    2.4555 C   0  0  0  0  0  0  0  0  0  0  0  0
   -1.0050    0.7020    1.7463 O   0  0  0  0  0  0  0  0  0  0  0  0
    1.9345   -0.7436    1.4950 C   0  0  0  0  0  0  0  0  0  0  0  0
    2.9032   -1.8799    1.1433 C   0  0  0  0  0  0  0  0  0  0  0  0
    2.6888   -2.9551    1.7749 O   0  5  0  0  0  0  0  0  0  0  0  0
    3.7932   -1.6198    0.2882 O   0  0  0  0  0  0  0  0  0  0  0  0
   -0.0113   -2.6869    0.5854 H   0  0  0  0  0  0  0  0  0  0  0  0
    0.5840   -1.9165    2.7370 H   0  0  0  0  0  0  0  0  0  0  0  0
    2.4058   -0.1273    2.2729 H   0  0  0  0  0  0  0  0  0  0  0  0
    1.8614   -0.1115    0.6004 H   0  0  0  0  0  0  0  0  0  0  0  0
   -0.0259    0.2770    3.8072 N   0  0  0  0  0  0  0  0  0  0  0  0
   -0.6740    1.3441    4.5337 C   0  0  2  0  0  0  0  0  0  0  0  0
    0.2693    1.8015    5.6384 C   0  0  0  0  0  0  0  0  0  0  0  0
    1.1661    1.0929    6.0908 O   0  0  0  0  0  0  0  0  0  0  0  0
   -2.0067    0.8915    5.1096 C   0  0  0  0  0  0  0  0  0  0  0  0
    0.5861   -0.3451    4.3270 H   0  0  0  0  0  0  0  0  0  0  0  0
   -0.8285    2.1627    3.8223 H   0  0  0  0  0  0  0  0  0  0  0  0
   -1.8722    0.0716    5.8246 H   0  0  0  0  0  0  0  0  0  0  0  0
   -2.5099    1.7095    5.6356 H   0  0  0  0  0  0  0  0  0  0  0  0
   -2.6731    0.5349    4.3167 H   0  0  0  0  0  0  0  0  0  0  0  0
   -0.0357    3.0781    6.0896 N   0  0  0  0  0  0  0  0  0  0  0  0
    0.7066    3.7307    7.1428 C   0  0  0  0  0  0  0  0  0  0  0  0
   -0.7844    3.6000    5.6439 H   0  0  0  0  0  0  0  0  0  0  0  0
    0.2236    3.5309    8.1106 H   0  0  0  0  0  0  0  0  0  0  0  0
    1.7360    3.3434    7.1600 H   0  0  0  0  0  0  0  0  0  0  0  0
    0.7259    4.8152    6.9597 H   0  0  0  0  0  0  0  0  0  0  0  0
  1  3  1  0  0  0  0
  1  7  1  0  0  0  0
  1  2  2  0  0  0  0
 30 31  1  0  0  0  0
 31 39  1  0  0  0  0
 31 32  2  0  0  0  0
  8  9  1  0  0  0  0
  9 17  1  0  0  0  0
  9 10  2  0  0  0  0
 18 19  1  0  0  0  0
 19 29  1  0  0  0  0
 19 20  2  0  0  0  0
 21 22  1  0  0  0  0
 22 23  1  0  0  0  0
 22 24  2  0  0  0  0
 30 33  1  0  0  0  0
  8 11  1  0  0  0  0
 39 40  1  0  0  0  0
 18 21  1  0  0  0  0
 29 30  1  0  0  0  0
  7  8  1  0  0  0  0
 17 18  1  0  0  0  0
  3  4  1  0  0  0  0
  3  5  1  0  0  0  0
  3  6  1  0  0  0  0
 33 36  1  0  0  0  0
 33 37  1  0  0  0  0
 33 38  1  0  0  0  0
 11 14  1  0  0  0  0
 11 15  1  0  0  0  0
 11 16  1  0  0  0  0
 40 42  1  0  0  0  0
 40 43  1  0  0  0  0
 40 44  1  0  0  0  0
 21 27  1  0  0  0  0
 21 28  1  0  0  0  0
 30 35  1  0  0  0  0
  8 13  1  0  0  0  0
 18 26  1  0  0  0  0
 39 41  1  0  0  0  0
  7 12  1  0  0  0  0
 29 34  1  0  0  0  0
 17 25  1  0  0  0  0
M  CHG  1  23  -1
M  END
$$$$

  -OEChem-05262214473D

 44 43  0     1  0  0  0  0  0999 V2000
   -4.0256   -1.8030   -2.1581 C   0  0  0  0  0  0  0  0  0  0  0  0
   -3.7513   -2.6782   -2.9709 O   0  0  0  0  0  0  0  0  0  0  0  0
   -5.3491   -1.1169   -2.2339 C   0  0  0  0  0  0  0  0  0  0  0  0
   -5.3223   -0.2211   -2.8750 H   0  0  0  0  0  0  0  0  0  0  0  0
   -6.1322   -1.7605   -2.6658 H   0  0  0  0  0  0  0  0  0  0  0  0
   -5.7568   -0.7715   -1.2704 H   0  0  0  0  0  0  0  0  0  0  0  0
   -3.2124   -1.3578   -1.1289 N   0  0  0  0  0  0  0  0  0  0  0  0
   -1.8971   -1.8843   -0.8752 C   0  0  2  0  0  0  0  0  0  0  0  0
   -1.2676   -1.0599    0.2399 C   0  0  0  0  0  0  0  0  0  0  0  0
   -1.6270    0.0833    0.5138 O   0  0  0  0  0  0  0  0  0  0  0  0
   -1.0364   -1.8506   -2.1285 C   0  0  0  0  0  0  0  0  0  0  0  0
   -3.5631   -0.6202   -0.5206 H   0  0  0  0  0  0  0  0  0  0  0  0
   -2.0301   -2.9174   -0.5360 H   0  0  0  0  0  0  0  0  0  0  0  0
   -0.8921   -0.8236   -2.4833 H   0  0  0  0  0  0  0  0  0  0  0  0
   -0.0457   -2.2777   -1.9410 H   0  0  0  0  0  0  0  0  0  0  0  0
   -1.5052   -2.4193   -2.9387 H   0  0  0  0  0  0  0  0  0  0  0  0
   -0.2267   -1.7335    0.8672 N   0  0  0  0  0  0  0  0  0  0  0  0
    0.5363   -1.1590    1.9465 C   0  0  2  0  0  0  0  0  0  0  0  0
   -0.2428    0.0483    2.4555 C   0  0  0  0  0  0  0  0  0  0  0  0
   -1.1926    0.5381    1.8479 O   0  0  0  0  0  0  0  0  0  0  0  0
    1.9345   -0.7436    1.4950 C   0  0  0  0  0  0  0  0  0  0  0  0
    2.9032   -1.8799    1.1433 C   0  0  0  0  0  0  0  0  0  0  0  0
    2.6888   -2.9551    1.7749 O   0  5  0  0  0  0  0  0  0  0  0  0
    3.7932   -1.6198    0.2882 O   0  0  0  0  0  0  0  0  0  0  0  0
   -0.0113   -2.6869    0.5854 H   0  0  0  0  0  0  0  0  0  0  0  0
    0.5840   -1.9165    2.7370 H   0  0  0  0  0  0  0  0  0  0  0  0
    2.4058   -0.1273    2.2729 H   0  0  0  0  0  0  0  0  0  0  0  0
    1.8614   -0.1115    0.6004 H   0  0  0  0  0  0  0  0  0  0  0  0
    0.2149    0.4808    3.6924 N   0  0  0  0  0  0  0  0  0  0  0  0
   -0.3791    1.5899    4.4019 C   0  0  2  0  0  0  0  0  0  0  0  0
    0.7146    2.2661    5.2180 C   0  0  0  0  0  0  0  0  0  0  0  0
    1.7500    1.6956    5.5549 O   0  0  0  0  0  0  0  0  0  0  0  0
   -1.5182    1.1276    5.2972 C   0  0  0  0  0  0  0  0  0  0  0  0
    0.9774   -0.0155    4.1441 H   0  0  0  0  0  0  0  0  0  0  0  0
   -0.7534    2.2864    3.6438 H   0  0  0  0  0  0  0  0  0  0  0  0
   -1.1624    0.4290    6.0633 H   0  0  0  0  0  0  0  0  0  0  0  0
   -1.9860    1.9730    5.8126 H   0  0  0  0  0  0  0  0  0  0  0  0
   -2.2899    0.6152    4.7127 H   0  0  0  0  0  0  0  0  0  0  0  0
    0.3793    3.5681    5.5625 N   0  0  0  0  0  0  0  0  0  0  0  0
    1.2472    4.4151    6.3468 C   0  0  0  0  0  0  0  0  0  0  0  0
   -0.4917    3.9660    5.2238 H   0  0  0  0  0  0  0  0  0  0  0  0
    0.9892    4.3195    7.4119 H   0  0  0  0  0  0  0  0  0  0  0  0
    2.2930    4.1099    6.1943 H   0  0  0  0  0  0  0  0  0  0  0  0
    1.1209    5.4614    6.0316 H   0  0  0  0  0  0  0  0  0  0  0  0
  1  3  1  0  0  0  0
  1  7  1  0  0  0  0
  1  2  2  0  0  0  0
 30 31  1  0  0  0  0
 31 39  1  0  0  0  0
 31 32  2  0  0  0  0
  8  9  1  0  0  0  0
  9 17  1  0  0  0  0
  9 10  2  0  0  0  0
 18 19  1  0  0  0  0
 19 29  1  0  0  0  0
 19 20  2  0  0  0  0
 21 22  1  0  0  0  0
 22 23  1  0  0  0  0
 22 24  2  0  0  0  0
 30 33  1  0  0  0  0
  8 11  1  0  0  0  0
 39 40  1  0  0  0  0
 18 21  1  0  0  0  0
 29 30  1  0  0  0  0
  7  8  1  0  0  0  0
 17 18  1  0  0  0  0
  3  4  1  0  0  0  0
  3  5  1  0  0  0  0
  3  6  1  0  0  0  0
 33 36  1  0  0  0  0
 33 37  1  0  0  0  0
 33 38  1  0  0  0  0
 11 14  1  0  0  0  0
 11 15  1  0  0  0  0
 11 16  1  0  0  0  0
 40 42  1  0  0  0  0
 40 43  1  0  0  0  0
 40 44  1  0  0  0  0
 21 27  1  0  0  0  0
 21 28  1  0  0  0  0
 30 35  1  0  0  0  0
  8 13  1  0  0  0  0
 18 26  1  0  0  0  0
 39 41  1  0  0  0  0
  7 12  1  0  0  0  0
 29 34  1  0  0  0  0
 17 25  1  0  0  0  0
M  CHG  1  23  -1
M  END
$$$$

  -OEChem-05262214473D

 44 43  0     1  0  0  0  0  0999 V2000
   -4.0256   -1.8030   -2.1581 C   0  0  0  0  0  0  0  0  0  0  0  0
   -3.7513   -2.6782   -2.9709 O   0  0  0  0  0  0  0  0  0  0  0  0
   -5.3491   -1.1169   -2.2339 C   0  0  0  0  0  0  0  0  0  0  0  0
   -5.3223   -0.2211   -2.8750 H   0  0  0  0  0  0  0  0  0  0  0  0
   -6.1322   -1.7605   -2.6658 H   0  0  0  0  0  0  0  0  0  0  0  0
   -5.7568   -0.7715   -1.2704 H   0  0  0  0  0  0  0  0  0  0  0  0
   -3.2124   -1.3578   -1.1289 N   0  0  0  0  0  0  0  0  0  0  0  0
   -1.8971   -1.8843   -0.8752 C   0  0  2  0  0  0  0  0  0  0  0  0
   -1.2676   -1.0599    0.2399 C   0  0  0  0  0  0  0  0  0  0  0  0
   -1.6270    0.0833    0.5138 O   0  0  0  0  0  0  0  0  0  0  0  0
   -1.0364   -1.8506   -2.1285 C   0  0  0  0  0  0  0  0  0  0  0  0
   -3.5631   -0.6202   -0.5206 H   0  0  0  0  0  0  0  0  0  0  0  0
   -2.0301   -2.9174   -0.5360 H   0  0  0  0  0  0  0  0  0  0  0  0
   -0.8921   -0.8236   -2.4833 H   0  0  0  0  0  0  0  0  0  0  0  0
   -0.0457   -2.2777   -1.9410 H   0  0  0  0  0  0  0  0  0  0  0  0
   -1.5052   -2.4193   -2.9387 H   0  0  0  0  0  0  0  0  0  0  0  0
   -0.2267   -1.7335    0.8672 N   0  0  0  0  0  0  0  0  0  0  0  0
    0.5363   -1.1590    1.9465 C   0  0  2  0  0  0  0  0  0  0  0  0
   -0.3896   -0.2074    2.6955 C   0  0  0  0  0  0  0  0  0  0  0  0
   -1.5725   -0.0515    2.3995 O   0  0  0  0  0  0  0  0  0  0  0  0
    1.7700   -0.4172    1.4375 C   0  0  0  0  0  0  0  0  0  0  0  0
    2.8860   -1.2816    0.8370 C   0  0  0  0  0  0  0  0  0  0  0  0
    2.9512   -2.4492    1.3201 O   0  5  0  0  0  0  0  0  0  0  0  0
    3.6058   -0.7415   -0.0468 O   0  0  0  0  0  0  0  0  0  0  0  0
   -0.0113   -2.6869    0.5854 H   0  0  0  0  0  0  0  0  0  0  0  0
    0.8164   -1.9855    2.6094 H   0  0  0  0  0  0  0  0  0  0  0  0
    2.2055    0.1776    2.2522 H   0  0  0  0  0  0  0  0  0  0  0  0
    1.4763    0.2956    0.6559 H   0  0  0  0  0  0  0  0  0  0  0  0
    0.2476    0.4067    3.7646 N   0  0  0  0  0  0  0  0  0  0  0  0
   -0.4239    1.3296    4.6499 C   0  0  2  0  0  0  0  0  0  0  0  0
    0.6033    2.3401    5.1430 C   0  0  0  0  0  0  0  0  0  0  0  0
    1.8122    2.1174    5.1527 O   0  0  0  0  0  0  0  0  0  0  0  0
   -1.0750    0.6029    5.8164 C   0  0  0  0  0  0  0  0  0  0  0  0
    1.2177    0.1811    3.9643 H   0  0  0  0  0  0  0  0  0  0  0  0
   -1.1851    1.8435    4.0528 H   0  0  0  0  0  0  0  0  0  0  0  0
   -0.3278    0.0820    6.4263 H   0  0  0  0  0  0  0  0  0  0  0  0
   -1.6076    1.3006    6.4710 H   0  0  0  0  0  0  0  0  0  0  0  0
   -1.7918   -0.1442    5.4590 H   0  0  0  0  0  0  0  0  0  0  0  0
    0.0082    3.5032    5.6113 N   0  0  0  0  0  0  0  0  0  0  0  0
    0.7698    4.6088    6.1439 C   0  0  0  0  0  0  0  0  0  0  0  0
   -1.0000    3.6092    5.5476 H   0  0  0  0  0  0  0  0  0  0  0  0
    0.8619    4.4996    7.2345 H   0  0  0  0  0  0  0  0  0  0  0  0
    1.7719    4.6158    5.6902 H   0  0  0  0  0  0  0  0  0  0  0  0
    0.2558    5.5533    5.9122 H   0  0  0  0  0  0  0  0  0  0  0  0
  1  3  1  0  0  0  0
  1  7  1  0  0  0  0
  1  2  2  0  0  0  0
 30 31  1  0  0  0  0
 31 39  1  0  0  0  0
 31 32  2  0  0  0  0
  8  9  1  0  0  0  0
  9 17  1  0  0  0  0
  9 10  2  0  0  0  0
 18 19  1  0  0  0  0
 19 29  1  0  0  0  0
 19 20  2  0  0  0  0
 21 22  1  0  0  0  0
 22 23  1  0  0  0  0
 22 24  2  0  0  0  0
 30 33  1  0  0  0  0
  8 11  1  0  0  0  0
 39 40  1  0  0  0  0
 18 21  1  0  0  0  0
 29 30  1  0  0  0  0
  7  8  1  0  0  0  0
 17 18  1  0  0  0  0
  3  4  1  0  0  0  0
  3  5  1  0  0  0  0
  3  6  1  0  0  0  0
 33 36  1  0  0  0  0
 33 37  1  0  0  0  0
 33 38  1  0  0  0  0
 11 14  1  0  0  0  0
 11 15  1  0  0  0  0
 11 16  1  0  0  0  0
 40 42  1  0  0  0  0
 40 43  1  0  0  0  0
 40 44  1  0  0  0  0
 21 27  1  0  0  0  0
 21 28  1  0  0  0  0
 30 35  1  0  0  0  0
  8 13  1  0  0  0  0
 18 26  1  0  0  0  0
 39 41  1  0  0  0  0
  7 12  1  0  0  0  0
 29 34  1  0  0  0  0
 17 25  1  0  0  0  0
M  CHG  1  23  -1
M  END
$$$$

  -OEChem-05262214473D

 44 43  0     1  0  0  0  0  0999 V2000
   -4.0256   -1.8030   -2.1581 C   0  0  0  0  0  0  0  0  0  0  0  0
   -3.7513   -2.6782   -2.9709 O   0  0  0  0  0  0  0  0  0  0  0  0
   -5.3491   -1.1169   -2.2339 C   0  0  0  0  0  0  0  0  0  0  0  0
   -5.3223   -0.2211   -2.8750 H   0  0  0  0  0  0  0  0  0  0  0  0
   -6.1322   -1.7605   -2.6658 H   0  0  0  0  0  0  0  0  0  0  0  0
   -5.7568   -0.7715   -1.2704 H   0  0  0  0  0  0  0  0  0  0  0  0
   -3.2124   -1.3578   -1.1289 N   0  0  0  0  0  0  0  0  0  0  0  0
   -1.8971   -1.8843   -0.8752 C   0  0  2  0  0  0  0  0  0  0  0  0
   -1.2676   -1.0599    0.2399 C   0  0  0  0  0  0  0  0  0  0  0  0
   -1.6270    0.0833    0.5138 O   0  0  0  0  0  0  0  0  0  0  0  0
   -1.0364   -1.8506   -2.1285 C   0  0  0  0  0  0  0  0  0  0  0  0
   -3.5631   -0.6202   -0.5206 H   0  0  0  0  0  0  0  0  0  0  0  0
   -2.0301   -2.9174   -0.5360 H   0  0  0  0  0  0  0  0  0  0  0  0
   -0.8921   -0.8236   -2.4833 H   0  0  0  0  0  0  0  0  0  0  0  0
   -0.0457   -2.2777   -1.9410 H   0  0  0  0  0  0  0  0  0  0  0  0
   -1.5052   -2.4193   -2.9387 H   0  0  0  0  0  0  0  0  0  0  0  0
   -0.2267   -1.7335    0.8672 N   0  0  0  0  0  0  0  0  0  0  0  0
    0.5363   -1.1590    1.9465 C   0  0  2  0  0  0  0  0  0  0  0  0
   -0.3896   -0.2074    2.6955 C   0  0  0  0  0  0  0  0  0  0  0  0
   -1.6137   -0.2395    2.5874 O   0  0  0  0  0  0  0  0  0  0  0  0
    1.7700   -0.4172    1.4375 C   0  0  0  0  0  0  0  0  0  0  0  0
    2.8860   -1.2816    0.8370 C   0  0  0  0  0  0  0  0  0  0  0  0
    2.9512   -2.4492    1.3201 O   0  5  0  0  0  0  0  0  0  0  0  0
    3.6058   -0.7415   -0.0468 O   0  0  0  0  0  0  0  0  0  0  0  0
   -0.0113   -2.6869    0.5854 H   0  0  0  0  0  0  0  0  0  0  0  0
    0.8164   -1.9855    2.6094 H   0  0  0  0  0  0  0  0  0  0  0  0
    2.2055    0.1776    2.2522 H   0  0  0  0  0  0  0  0  0  0  0  0
    1.4763    0.2956    0.6559 H   0  0  0  0  0  0  0  0  0  0  0  0
    0.3097    0.6460    3.5374 N   0  0  0  0  0  0  0  0  0  0  0  0
   -0.3426    1.6214    4.3797 C   0  0  2  0  0  0  0  0  0  0  0  0
    0.5956    2.8109    4.5354 C   0  0  0  0  0  0  0  0  0  0  0  0
    1.8112    2.7326    4.3699 O   0  0  0  0  0  0  0  0  0  0  0  0
   -0.7012    1.0310    5.7345 C   0  0  0  0  0  0  0  0  0  0  0  0
    1.3208    0.5694    3.5985 H   0  0  0  0  0  0  0  0  0  0  0  0
   -1.2498    1.9375    3.8534 H   0  0  0  0  0  0  0  0  0  0  0  0
    0.1951    0.7085    6.2768 H   0  0  0  0  0  0  0  0  0  0  0  0
   -1.2211    1.7631    6.3613 H   0  0  0  0  0  0  0  0  0  0  0  0
   -1.3521    0.1576    5.6191 H   0  0  0  0  0  0  0  0  0  0  0  0
   -0.0787    3.9603    4.9231 N   0  0  0  0  0  0  0  0  0  0  0  0
    0.5922    5.2192    5.1488 C   0  0  0  0  0  0  0  0  0  0  0  0
   -1.0897    3.9382    5.0186 H   0  0  0  0  0  0  0  0  0  0  0  0
    0.8628    5.3057    6.2115 H   0  0  0  0  0  0  0  0  0  0  0  0
    1.5031    5.2645    4.5338 H   0  0  0  0  0  0  0  0  0  0  0  0
   -0.0781    6.0465    4.8728 H   0  0  0  0  0  0  0  0  0  0  0  0
  1  3  1  0  0  0  0
  1  7  1  0  0  0  0
  1  2  2  0  0  0  0
 30 31  1  0  0  0  0
 31 39  1  0  0  0  0
 31 32  2  0  0  0  0
  8  9  1  0  0  0  0
  9 17  1  0  0  0  0
  9 10  2  0  0  0  0
 18 19  1  0  0  0  0
 19 29  1  0  0  0  0
 19 20  2  0  0  0  0
 21 22  1  0  0  0  0
 22 23  1  0  0  0  0
 22 24  2  0  0  0  0
 30 33  1  0  0  0  0
  8 11  1  0  0  0  0
 39 40  1  0  0  0  0
 18 21  1  0  0  0  0
 29 30  1  0  0  0  0
  7  8  1  0  0  0  0
 17 18  1  0  0  0  0
  3  4  1  0  0  0  0
  3  5  1  0  0  0  0
  3  6  1  0  0  0  0
 33 36  1  0  0  0  0
 33 37  1  0  0  0  0
 33 38  1  0  0  0  0
 11 14  1  0  0  0  0
 11 15  1  0  0  0  0
 11 16  1  0  0  0  0
 40 42  1  0  0  0  0
 40 43  1  0  0  0  0
 40 44  1  0  0  0  0
 21 27  1  0  0  0  0
 21 28  1  0  0  0  0
 30 35  1  0  0  0  0
  8 13  1  0  0  0  0
 18 26  1  0  0  0  0
 39 41  1  0  0  0  0
  7 12  1  0  0  0  0
 29 34  1  0  0  0  0
 17 25  1  0  0  0  0
M  CHG  1  23  -1
M  END
$$$$

  -OEChem-05262214473D

 44 43  0     1  0  0  0  0  0999 V2000
   -4.0256   -1.8030   -2.1581 C   0  0  0  0  0  0  0  0  0  0  0  0
   -3.7513   -2.6782   -2.9709 O   0  0  0  0  0  0  0  0  0  0  0  0
   -5.3491   -1.1169   -2.2339 C   0  0  0  0  0  0  0  0  0  0  0  0
   -5.3223   -0.2211   -2.8750 H   0  0  0  0  0  0  0  0  0  0  0  0
   -6.1322   -1.7605   -2.6658 H   0  0  0  0  0  0  0  0  0  0  0  0
   -5.7568   -0.7715   -1.2704 H   0  0  0  0  0  0  0  0  0  0  0  0
   -3.2124   -1.3578   -1.1289 N   0  0  0  0  0  0  0  0  0  0  0  0
   -1.8971   -1.8843   -0.8752 C   0  0  2  0  0  0  0  0  0  0  0  0
   -1.2676   -1.0599    0.2399 C   0  0  0  0  0  0  0  0  0  0  0  0
   -1.6270    0.0833    0.5138 O   0  0  0  0  0  0  0  0  0  0  0  0
   -1.0364   -1.8506   -2.1285 C   0  0  0  0  0  0  0  0  0  0  0  0
   -3.5631   -0.6202   -0.5206 H   0  0  0  0  0  0  0  0  0  0  0  0
   -2.0301   -2.9174   -0.5360 H   0  0  0  0  0  0  0  0  0  0  0  0
   -0.8921   -0.8236   -2.4833 H   0  0  0  0  0  0  0  0  0  0  0  0
   -0.0457   -2.2777   -1.9410 H   0  0  0  0  0  0  0  0  0  0  0  0
   -1.5052   -2.4193   -2.9387 H   0  0  0  0  0  0  0  0  0  0  0  0
   -0.2267   -1.7335    0.8672 N   0  0  0  0  0  0  0  0  0  0  0  0
    0.5363   -1.1590    1.9465 C   0  0  2  0  0  0  0  0  0  0  0  0
   -0.3896   -0.2074    2.6955 C   0  0  0  0  0  0  0  0  0  0  0  0
   -1.5993   -0.3968    2.8051 O   0  0  0  0  0  0  0  0  0  0  0  0
    1.7700   -0.4172    1.4375 C   0  0  0  0  0  0  0  0  0  0  0  0
    2.8860   -1.2816    0.8370 C   0  0  0  0  0  0  0  0  0  0  0  0
    2.9512   -2.4492    1.3201 O   0  5  0  0  0  0  0  0  0  0  0  0
    3.6058   -0.7415   -0.0468 O   0  0  0  0  0  0  0  0  0  0  0  0
   -0.0113   -2.6869    0.5854 H   0  0  0  0  0  0  0  0  0  0  0  0
    0.8164   -1.9855    2.6094 H   0  0  0  0  0  0  0  0  0  0  0  0
    2.2055    0.1776    2.2522 H   0  0  0  0  0  0  0  0  0  0  0  0
    1.4763    0.2956    0.6559 H   0  0  0  0  0  0  0  0  0  0  0  0
    0.3026    0.8493    3.2703 N   0  0  0  0  0  0  0  0  0  0  0  0
   -0.3448    1.8711    4.0597 C   0  0  2  0  0  0  0  0  0  0  0  0
    0.4302    3.1692    3.8757 C   0  0  0  0  0  0  0  0  0  0  0  0
    1.6055    3.2036    3.5172 O   0  0  0  0  0  0  0  0  0  0  0  0
   -0.4079    1.4791    5.5278 C   0  0  0  0  0  0  0  0  0  0  0  0
    1.3119    0.9000    3.1674 H   0  0  0  0  0  0  0  0  0  0  0  0
   -1.3565    1.9888    3.6564 H   0  0  0  0  0  0  0  0  0  0  0  0
    0.5964    1.3567    5.9494 H   0  0  0  0  0  0  0  0  0  0  0  0
   -0.9243    2.2417    6.1202 H   0  0  0  0  0  0  0  0  0  0  0  0
   -0.9399    0.5302    5.6553 H   0  0  0  0  0  0  0  0  0  0  0  0
   -0.3320    4.2826    4.2005 N   0  0  0  0  0  0  0  0  0  0  0  0
    0.1823    5.6298    4.1205 C   0  0  0  0  0  0  0  0  0  0  0  0
   -1.3037    4.1615    4.4704 H   0  0  0  0  0  0  0  0  0  0  0  0
    0.5959    5.9236    5.0965 H   0  0  0  0  0  0  0  0  0  0  0  0
    0.9741    5.6752    3.3583 H   0  0  0  0  0  0  0  0  0  0  0  0
   -0.6313    6.3170    3.8453 H   0  0  0  0  0  0  0  0  0  0  0  0
  1  3  1  0  0  0  0
  1  7  1  0  0  0  0
  1  2  2  0  0  0  0
 30 31  1  0  0  0  0
 31 39  1  0  0  0  0
 31 32  2  0  0  0  0
  8  9  1  0  0  0  0
  9 17  1  0  0  0  0
  9 10  2  0  0  0  0
 18 19  1  0  0  0  0
 19 29  1  0  0  0  0
 19 20  2  0  0  0  0
 21 22  1  0  0  0  0
 22 23  1  0  0  0  0
 22 24  2  0  0  0  0
 30 33  1  0  0  0  0
  8 11  1  0  0  0  0
 39 40  1  0  0  0  0
 18 21  1  0  0  0  0
 29 30  1  0  0  0  0
  7  8  1  0  0  0  0
 17 18  1  0  0  0  0
  3  4  1  0  0  0  0
  3  5  1  0  0  0  0
  3  6  1  0  0  0  0
 33 36  1  0  0  0  0
 33 37  1  0  0  0  0
 33 38  1  0  0  0  0
 11 14  1  0  0  0  0
 11 15  1  0  0  0  0
 11 16  1  0  0  0  0
 40 42  1  0  0  0  0
 40 43  1  0  0  0  0
 40 44  1  0  0  0  0
 21 27  1  0  0  0  0
 21 28  1  0  0  0  0
 30 35  1  0  0  0  0
  8 13  1  0  0  0  0
 18 26  1  0  0  0  0
 39 41  1  0  0  0  0
  7 12  1  0  0  0  0
 29 34  1  0  0  0  0
 17 25  1  0  0  0  0
M  CHG  1  23  -1
M  END
$$$$

  -OEChem-05262214473D

 44 43  0     1  0  0  0  0  0999 V2000
   -4.0256   -1.8030   -2.1581 C   0  0  0  0  0  0  0  0  0  0  0  0
   -3.7513   -2.6782   -2.9709 O   0  0  0  0  0  0  0  0  0  0  0  0
   -5.3491   -1.1169   -2.2339 C   0  0  0  0  0  0  0  0  0  0  0  0
   -5.3223   -0.2211   -2.8750 H   0  0  0  0  0  0  0  0  0  0  0  0
   -6.1322   -1.7605   -2.6658 H   0  0  0  0  0  0  0  0  0  0  0  0
   -5.7568   -0.7715   -1.2704 H   0  0  0  0  0  0  0  0  0  0  0  0
   -3.2124   -1.3578   -1.1289 N   0  0  0  0  0  0  0  0  0  0  0  0
   -1.8971   -1.8843   -0.8752 C   0  0  2  0  0  0  0  0  0  0  0  0
   -1.2676   -1.0599    0.2399 C   0  0  0  0  0  0  0  0  0  0  0  0
   -1.6270    0.0833    0.5138 O   0  0  0  0  0  0  0  0  0  0  0  0
   -1.0364   -1.8506   -2.1285 C   0  0  0  0  0  0  0  0  0  0  0  0
   -3.5631   -0.6202   -0.5206 H   0  0  0  0  0  0  0  0  0  0  0  0
   -2.0301   -2.9174   -0.5360 H   0  0  0  0  0  0  0  0  0  0  0  0
   -0.8921   -0.8236   -2.4833 H   0  0  0  0  0  0  0  0  0  0  0  0
   -0.0457   -2.2777   -1.9410 H   0  0  0  0  0  0  0  0  0  0  0  0
   -1.5052   -2.4193   -2.9387 H   0  0  0  0  0  0  0  0  0  0  0  0
   -0.2267   -1.7335    0.8672 N   0  0  0  0  0  0  0  0  0  0  0  0
    0.5363   -1.1590    1.9465 C   0  0  2  0  0  0  0  0  0  0  0  0
   -0.3896   -0.2074    2.6955 C   0  0  0  0  0  0  0  0  0  0  0  0
   -1.5301   -0.5127    3.0378 O   0  0  0  0  0  0  0  0  0  0  0  0
    1.7700   -0.4172    1.4375 C   0  0  0  0  0  0  0  0  0  0  0  0
    2.8860   -1.2816    0.8370 C   0  0  0  0  0  0  0  0  0  0  0  0
    2.9512   -2.4492    1.3201 O   0  5  0  0  0  0  0  0  0  0  0  0
    3.6058   -0.7415   -0.0468 O   0  0  0  0  0  0  0  0  0  0  0  0
   -0.0113   -2.6869    0.5854 H   0  0  0  0  0  0  0  0  0  0  0  0
    0.8164   -1.9855    2.6094 H   0  0  0  0  0  0  0  0  0  0  0  0
    2.2055    0.1776    2.2522 H   0  0  0  0  0  0  0  0  0  0  0  0
    1.4763    0.2956    0.6559 H   0  0  0  0  0  0  0  0  0  0  0  0
    0.2267    1.0028    2.9815 N   0  0  0  0  0  0  0  0  0  0  0  0
   -0.4304    2.0617    3.7118 C   0  0  2  0  0  0  0  0  0  0  0  0
    0.1182    3.3905    3.2089 C   0  0  0  0  0  0  0  0  0  0  0  0
    1.2091    3.4984    2.6528 O   0  0  0  0  0  0  0  0  0  0  0  0
   -0.2150    1.9168    5.2102 C   0  0  0  0  0  0  0  0  0  0  0  0
    1.1916    1.1505    2.7005 H   0  0  0  0  0  0  0  0  0  0  0  0
   -1.4979    1.9937    3.4753 H   0  0  0  0  0  0  0  0  0  0  0  0
    0.8487    1.9823    5.4664 H   0  0  0  0  0  0  0  0  0  0  0  0
   -0.7374    2.7038    5.7641 H   0  0  0  0  0  0  0  0  0  0  0  0
   -0.5833    0.9482    5.5650 H   0  0  0  0  0  0  0  0  0  0  0  0
   -0.7344    4.4481    3.4928 N   0  0  0  0  0  0  0  0  0  0  0  0
   -0.4320    5.8127    3.1288 C   0  0  0  0  0  0  0  0  0  0  0  0
   -1.6274    4.2638    3.9404 H   0  0  0  0  0  0  0  0  0  0  0  0
    0.0793    6.3112    3.9655 H   0  0  0  0  0  0  0  0  0  0  0  0
    0.2211    5.8198    2.2437 H   0  0  0  0  0  0  0  0  0  0  0  0
   -1.3661    6.3465    2.8996 H   0  0  0  0  0  0  0  0  0  0  0  0
  1  3  1  0  0  0  0
  1  7  1  0  0  0  0
  1  2  2  0  0  0  0
 30 31  1  0  0  0  0
 31 39  1  0  0  0  0
 31 32  2  0  0  0  0
  8  9  1  0  0  0  0
  9 17  1  0  0  0  0
  9 10  2  0  0  0  0
 18 19  1  0  0  0  0
 19 29  1  0  0  0  0
 19 20  2  0  0  0  0
 21 22  1  0  0  0  0
 22 23  1  0  0  0  0
 22 24  2  0  0  0  0
 30 33  1  0  0  0  0
  8 11  1  0  0  0  0
 39 40  1  0  0  0  0
 18 21  1  0  0  0  0
 29 30  1  0  0  0  0
  7  8  1  0  0  0  0
 17 18  1  0  0  0  0
  3  4  1  0  0  0  0
  3  5  1  0  0  0  0
  3  6  1  0  0  0  0
 33 36  1  0  0  0  0
 33 37  1  0  0  0  0
 33 38  1  0  0  0  0
 11 14  1  0  0  0  0
 11 15  1  0  0  0  0
 11 16  1  0  0  0  0
 40 42  1  0  0  0  0
 40 43  1  0  0  0  0
 40 44  1  0  0  0  0
 21 27  1  0  0  0  0
 21 28  1  0  0  0  0
 30 35  1  0  0  0  0
  8 13  1  0  0  0  0
 18 26  1  0  0  0  0
 39 41  1  0  0  0  0
  7 12  1  0  0  0  0
 29 34  1  0  0  0  0
 17 25  1  0  0  0  0
M  CHG  1  23  -1
M  END
$$$$

  -OEChem-05262214473D

 44 43  0     1  0  0  0  0  0999 V2000
   -4.0256   -1.8030   -2.1581 C   0  0  0  0  0  0  0  0  0  0  0  0
   -3.7513   -2.6782   -2.9709 O   0  0  0  0  0  0  0  0  0  0  0  0
   -5.3491   -1.1169   -2.2339 C   0  0  0  0  0  0  0  0  0  0  0  0
   -5.3223   -0.2211   -2.8750 H   0  0  0  0  0  0  0  0  0  0  0  0
   -6.1322   -1.7605   -2.6658 H   0  0  0  0  0  0  0  0  0  0  0  0
   -5.7568   -0.7715   -1.2704 H   0  0  0  0  0  0  0  0  0  0  0  0
   -3.2124   -1.3578   -1.1289 N   0  0  0  0  0  0  0  0  0  0  0  0
   -1.8971   -1.8843   -0.8752 C   0  0  2  0  0  0  0  0  0  0  0  0
   -1.2676   -1.0599    0.2399 C   0  0  0  0  0  0  0  0  0  0  0  0
   -1.6270    0.0833    0.5138 O   0  0  0  0  0  0  0  0  0  0  0  0
   -1.0364   -1.8506   -2.1285 C   0  0  0  0  0  0  0  0  0  0  0  0
   -3.5631   -0.6202   -0.5206 H   0  0  0  0  0  0  0  0  0  0  0  0
   -2.0301   -2.9174   -0.5360 H   0  0  0  0  0  0  0  0  0  0  0  0
   -0.8921   -0.8236   -2.4833 H   0  0  0  0  0  0  0  0  0  0  0  0
   -0.0457   -2.2777   -1.9410 H   0  0  0  0  0  0  0  0  0  0  0  0
   -1.5052   -2.4193   -2.9387 H   0  0  0  0  0  0  0  0  0  0  0  0
   -0.2267   -1.7335    0.8672 N   0  0  0  0  0  0  0  0  0  0  0  0
    0.5363   -1.1590    1.9465 C   0  0  2  0  0  0  0  0  0  0  0  0
   -0.3896   -0.2074    2.6955 C   0  0  0  0  0  0  0  0  0  0  0  0
   -1.4110   -0.5793    3.2696 O   0  0  0  0  0  0  0  0  0  0  0  0
    1.7700   -0.4172    1.4375 C   0  0  0  0  0  0  0  0  0  0  0  0
    2.8860   -1.2816    0.8370 C   0  0  0  0  0  0  0  0  0  0  0  0
    2.9512   -2.4492    1.3201 O   0  5  0  0  0  0  0  0  0  0  0  0
    3.6058   -0.7415   -0.0468 O   0  0  0  0  0  0  0  0  0  0  0  0
   -0.0113   -2.6869    0.5854 H   0  0  0  0  0  0  0  0  0  0  0  0
    0.8164   -1.9855    2.6094 H   0  0  0  0  0  0  0  0  0  0  0  0
    2.2055    0.1776    2.2522 H   0  0  0  0  0  0  0  0  0  0  0  0
    1.4763    0.2956    0.6559 H   0  0  0  0  0  0  0  0  0  0  0  0
    0.0872    1.0960    2.6907 N   0  0  0  0  0  0  0  0  0  0  0  0
   -0.5936    2.1802    3.3595 C   0  0  2  0  0  0  0  0  0  0  0  0
   -0.3190    3.4597    2.5805 C   0  0  0  0  0  0  0  0  0  0  0  0
    0.6491    3.5968    1.8355 O   0  0  0  0  0  0  0  0  0  0  0  0
   -0.1356    2.3142    4.8035 C   0  0  0  0  0  0  0  0  0  0  0  0
    0.9681    1.3037    2.2296 H   0  0  0  0  0  0  0  0  0  0  0  0
   -1.6644    1.9520    3.3225 H   0  0  0  0  0  0  0  0  0  0  0  0
    0.9348    2.5428    4.8608 H   0  0  0  0  0  0  0  0  0  0  0  0
   -0.6732    3.1180    5.3173 H   0  0  0  0  0  0  0  0  0  0  0  0
   -0.3066    1.3831    5.3545 H   0  0  0  0  0  0  0  0  0  0  0  0
   -1.2585    4.4456    2.8482 N   0  0  0  0  0  0  0  0  0  0  0  0
   -1.2088    5.7553    2.2414 C   0  0  0  0  0  0  0  0  0  0  0  0
   -2.0387    4.2381    3.4646 H   0  0  0  0  0  0  0  0  0  0  0  0
   -0.6517    6.4421    2.8955 H   0  0  0  0  0  0  0  0  0  0  0  0
   -0.7048    5.6884    1.2660 H   0  0  0  0  0  0  0  0  0  0  0  0
   -2.2323    6.1329    2.1002 H   0  0  0  0  0  0  0  0  0  0  0  0
  1  3  1  0  0  0  0
  1  7  1  0  0  0  0
  1  2  2  0  0  0  0
 30 31  1  0  0  0  0
 31 39  1  0  0  0  0
 31 32  2  0  0  0  0
  8  9  1  0  0  0  0
  9 17  1  0  0  0  0
  9 10  2  0  0  0  0
 18 19  1  0  0  0  0
 19 29  1  0  0  0  0
 19 20  2  0  0  0  0
 21 22  1  0  0  0  0
 22 23  1  0  0  0  0
 22 24  2  0  0  0  0
 30 33  1  0  0  0  0
  8 11  1  0  0  0  0
 39 40  1  0  0  0  0
 18 21  1  0  0  0  0
 29 30  1  0  0  0  0
  7  8  1  0  0  0  0
 17 18  1  0  0  0  0
  3  4  1  0  0  0  0
  3  5  1  0  0  0  0
  3  6  1  0  0  0  0
 33 36  1  0  0  0  0
 33 37  1  0  0  0  0
 33 38  1  0  0  0  0
 11 14  1  0  0  0  0
 11 15  1  0  0  0  0
 11 16  1  0  0  0  0
 40 42  1  0  0  0  0
 40 43  1  0  0  0  0
 40 44  1  0  0  0  0
 21 27  1  0  0  0  0
 21 28  1  0  0  0  0
 30 35  1  0  0  0  0
  8 13  1  0  0  0  0
 18 26  1  0  0  0  0
 39 41  1  0  0  0  0
  7 12  1  0  0  0  0
 29 34  1  0  0  0  0
 17 25  1  0  0  0  0
M  CHG  1  23  -1
M  END
$$$$

  -OEChem-05262214473D

 44 43  0     1  0  0  0  0  0999 V2000
   -4.0256   -1.8030   -2.1581 C   0  0  0  0  0  0  0  0  0  0  0  0
   -3.7513   -2.6782   -2.9709 O   0  0  0  0  0  0  0  0  0  0  0  0
   -5.3491   -1.1169   -2.2339 C   0  0  0  0  0  0  0  0  0  0  0  0
   -5.3223   -0.2211   -2.8750 H   0  0  0  0  0  0  0  0  0  0  0  0
   -6.1322   -1.7605   -2.6658 H   0  0  0  0  0  0  0  0  0  0  0  0
   -5.7568   -0.7715   -1.2704 H   0  0  0  0  0  0  0  0  0  0  0  0
   -3.2124   -1.3578   -1.1289 N   0  0  0  0  0  0  0  0  0  0  0  0
   -1.8971   -1.8843   -0.8752 C   0  0  2  0  0  0  0  0  0  0  0  0
   -1.2676   -1.0599    0.2399 C   0  0  0  0  0  0  0  0  0  0  0  0
   -1.6270    0.0833    0.5138 O   0  0  0  0  0  0  0  0  0  0  0  0
   -1.0364   -1.8506   -2.1285 C   0  0  0  0  0  0  0  0  0  0  0  0
   -3.5631   -0.6202   -0.5206 H   0  0  0  0  0  0  0  0  0  0  0  0
   -2.0301   -2.9174   -0.5360 H   0  0  0  0  0  0  0  0  0  0  0  0
   -0.8921   -0.8236   -2.4833 H   0  0  0  0  0  0  0  0  0  0  0  0
   -0.0457   -2.2777   -1.9410 H   0  0  0  0  0  0  0  0  0  0  0  0
   -1.5052   -2.4193   -2.9387 H   0  0  0  0  0  0  0  0  0  0  0  0
   -0.2267   -1.7335    0.8672 N   0  0  0  0  0  0  0  0  0  0  0  0
    0.5363   -1.1590    1.9465 C   0  0  2  0  0  0  0  0  0  0  0  0
   -0.3896   -0.2074    2.6955 C   0  0  0  0  0  0  0  0  0  0  0  0
   -1.2500   -0.5920    3.4848 O   0  0  0  0  0  0  0  0  0  0  0  0
    1.7700   -0.4172    1.4375 C   0  0  0  0  0  0  0  0  0  0  0  0
    2.8860   -1.2816    0.8370 C   0  0  0  0  0  0  0  0  0  0  0  0
    2.9512   -2.4492    1.3201 O   0  5  0  0  0  0  0  0  0  0  0  0
    3.6058   -0.7415   -0.0468 O   0  0  0  0  0  0  0  0  0  0  0  0
   -0.0113   -2.6869    0.5854 H   0  0  0  0  0  0  0  0  0  0  0  0
    0.8164   -1.9855    2.6094 H   0  0  0  0  0  0  0  0  0  0  0  0
    2.2055    0.1776    2.2522 H   0  0  0  0  0  0  0  0  0  0  0  0
    1.4763    0.2956    0.6559 H   0  0  0  0  0  0  0  0  0  0  0  0
   -0.1064    1.1226    2.4177 N   0  0  0  0  0  0  0  0  0  0  0  0
   -0.8231    2.2186    3.0270 C   0  0  2  0  0  0  0  0  0  0  0  0
   -0.8517    3.3722    2.0331 C   0  0  0  0  0  0  0  0  0  0  0  0
   -0.0363    3.4922    1.1211 O   0  0  0  0  0  0  0  0  0  0  0  0
   -0.1752    2.6442    4.3354 C   0  0  0  0  0  0  0  0  0  0  0  0
    0.6567    1.3493    1.7867 H   0  0  0  0  0  0  0  0  0  0  0  0
   -1.8446    1.8666    3.2083 H   0  0  0  0  0  0  0  0  0  0  0  0
    0.8489    2.9999    4.1737 H   0  0  0  0  0  0  0  0  0  0  0  0
   -0.7360    3.4560    4.8102 H   0  0  0  0  0  0  0  0  0  0  0  0
   -0.1286    1.8053    5.0381 H   0  0  0  0  0  0  0  0  0  0  0  0
   -1.8685    4.2751    2.3107 N   0  0  0  0  0  0  0  0  0  0  0  0
   -2.0953    5.4615    1.5188 C   0  0  0  0  0  0  0  0  0  0  0  0
   -2.5096    4.0861    3.0756 H   0  0  0  0  0  0  0  0  0  0  0  0
   -1.5473    6.3074    1.9596 H   0  0  0  0  0  0  0  0  0  0  0  0
   -1.7404    5.2901    0.4919 H   0  0  0  0  0  0  0  0  0  0  0  0
   -3.1710    5.6907    1.5016 H   0  0  0  0  0  0  0  0  0  0  0  0
  1  3  1  0  0  0  0
  1  7  1  0  0  0  0
  1  2  2  0  0  0  0
 30 31  1  0  0  0  0
 31 39  1  0  0  0  0
 31 32  2  0  0  0  0
  8  9  1  0  0  0  0
  9 17  1  0  0  0  0
  9 10  2  0  0  0  0
 18 19  1  0  0  0  0
 19 29  1  0  0  0  0
 19 20  2  0  0  0  0
 21 22  1  0  0  0  0
 22 23  1  0  0  0  0
 22 24  2  0  0  0  0
 30 33  1  0  0  0  0
  8 11  1  0  0  0  0
 39 40  1  0  0  0  0
 18 21  1  0  0  0  0
 29 30  1  0  0  0  0
  7  8  1  0  0  0  0
 17 18  1  0  0  0  0
  3  4  1  0  0  0  0
  3  5  1  0  0  0  0
  3  6  1  0  0  0  0
 33 36  1  0  0  0  0
 33 37  1  0  0  0  0
 33 38  1  0  0  0  0
 11 14  1  0  0  0  0
 11 15  1  0  0  0  0
 11 16  1  0  0  0  0
 40 42  1  0  0  0  0
 40 43  1  0  0  0  0
 40 44  1  0  0  0  0
 21 27  1  0  0  0  0
 21 28  1  0  0  0  0
 30 35  1  0  0  0  0
  8 13  1  0  0  0  0
 18 26  1  0  0  0  0
 39 41  1  0  0  0  0
  7 12  1  0  0  0  0
 29 34  1  0  0  0  0
 17 25  1  0  0  0  0
M  CHG  1  23  -1
M  END
$$$$

  -OEChem-05262214473D

 44 43  0     1  0  0  0  0  0999 V2000
   -4.0256   -1.8030   -2.1581 C   0  0  0  0  0  0  0  0  0  0  0  0
   -3.7513   -2.6782   -2.9709 O   0  0  0  0  0  0  0  0  0  0  0  0
   -5.3491   -1.1169   -2.2339 C   0  0  0  0  0  0  0  0  0  0  0  0
   -5.3223   -0.2211   -2.8750 H   0  0  0  0  0  0  0  0  0  0  0  0
   -6.1322   -1.7605   -2.6658 H   0  0  0  0  0  0  0  0  0  0  0  0
   -5.7568   -0.7715   -1.2704 H   0  0  0  0  0  0  0  0  0  0  0  0
   -3.2124   -1.3578   -1.1289 N   0  0  0  0  0  0  0  0  0  0  0  0
   -1.8971   -1.8843   -0.8752 C   0  0  2  0  0  0  0  0  0  0  0  0
   -1.2676   -1.0599    0.2399 C   0  0  0  0  0  0  0  0  0  0  0  0
   -1.6270    0.0833    0.5138 O   0  0  0  0  0  0  0  0  0  0  0  0
   -1.0364   -1.8506   -2.1285 C   0  0  0  0  0  0  0  0  0  0  0  0
   -3.5631   -0.6202   -0.5206 H   0  0  0  0  0  0  0  0  0  0  0  0
   -2.0301   -2.9174   -0.5360 H   0  0  0  0  0  0  0  0  0  0  0  0
   -0.8921   -0.8236   -2.4833 H   0  0  0  0  0  0  0  0  0  0  0  0
   -0.0457   -2.2777   -1.9410 H   0  0  0  0  0  0  0  0  0  0  0  0
   -1.5052   -2.4193   -2.9387 H   0  0  0  0  0  0  0  0  0  0  0  0
   -0.2267   -1.7335    0.8672 N   0  0  0  0  0  0  0  0  0  0  0  0
    0.5363   -1.1590    1.9465 C   0  0  2  0  0  0  0  0  0  0  0  0
   -0.3896   -0.2074    2.6955 C   0  0  0  0  0  0  0  0  0  0  0  0
   -1.0582   -0.5500    3.6686 O   0  0  0  0  0  0  0  0  0  0  0  0
    1.7700   -0.4172    1.4375 C   0  0  0  0  0  0  0  0  0  0  0  0
    2.8860   -1.2816    0.8370 C   0  0  0  0  0  0  0  0  0  0  0  0
    2.9512   -2.4492    1.3201 O   0  5  0  0  0  0  0  0  0  0  0  0
    3.6058   -0.7415   -0.0468 O   0  0  0  0  0  0  0  0  0  0  0  0
   -0.0113   -2.6869    0.5854 H   0  0  0  0  0  0  0  0  0  0  0  0
    0.8164   -1.9855    2.6094 H   0  0  0  0  0  0  0  0  0  0  0  0
    2.2055    0.1776    2.2522 H   0  0  0  0  0  0  0  0  0  0  0  0
    1.4763    0.2956    0.6559 H   0  0  0  0  0  0  0  0  0  0  0  0
   -0.3408    1.0807    2.1810 N   0  0  0  0  0  0  0  0  0  0  0  0
   -1.1035    2.1742    2.7369 C   0  0  2  0  0  0  0  0  0  0  0  0
   -1.4435    3.1340    1.6043 C   0  0  0  0  0  0  0  0  0  0  0  0
   -0.8006    3.1916    0.5582 O   0  0  0  0  0  0  0  0  0  0  0  0
   -0.3310    2.8843    3.8377 C   0  0  0  0  0  0  0  0  0  0  0  0
    0.2785    1.2841    1.4020 H   0  0  0  0  0  0  0  0  0  0  0  0
   -2.0262    1.7432    3.1405 H   0  0  0  0  0  0  0  0  0  0  0  0
    0.5967    3.3226    3.4522 H   0  0  0  0  0  0  0  0  0  0  0  0
   -0.9216    3.6947    4.2774 H   0  0  0  0  0  0  0  0  0  0  0  0
   -0.0615    2.1860    4.6374 H   0  0  0  0  0  0  0  0  0  0  0  0
   -2.5229    3.9484    1.9168 N   0  0  0  0  0  0  0  0  0  0  0  0
   -3.0309    4.9515    1.0103 C   0  0  0  0  0  0  0  0  0  0  0  0
   -3.0079    3.8184    2.7997 H   0  0  0  0  0  0  0  0  0  0  0  0
   -2.5465    5.9163    1.2214 H   0  0  0  0  0  0  0  0  0  0  0  0
   -2.8151    4.6520   -0.0260 H   0  0  0  0  0  0  0  0  0  0  0  0
   -4.1182    5.0501    1.1446 H   0  0  0  0  0  0  0  0  0  0  0  0
  1  3  1  0  0  0  0
  1  7  1  0  0  0  0
  1  2  2  0  0  0  0
 30 31  1  0  0  0  0
 31 39  1  0  0  0  0
 31 32  2  0  0  0  0
  8  9  1  0  0  0  0
  9 17  1  0  0  0  0
  9 10  2  0  0  0  0
 18 19  1  0  0  0  0
 19 29  1  0  0  0  0
 19 20  2  0  0  0  0
 21 22  1  0  0  0  0
 22 23  1  0  0  0  0
 22 24  2  0  0  0  0
 30 33  1  0  0  0  0
  8 11  1  0  0  0  0
 39 40  1  0  0  0  0
 18 21  1  0  0  0  0
 29 30  1  0  0  0  0
  7  8  1  0  0  0  0
 17 18  1  0  0  0  0
  3  4  1  0  0  0  0
  3  5  1  0  0  0  0
  3  6  1  0  0  0  0
 33 36  1  0  0  0  0
 33 37  1  0  0  0  0
 33 38  1  0  0  0  0
 11 14  1  0  0  0  0
 11 15  1  0  0  0  0
 11 16  1  0  0  0  0
 40 42  1  0  0  0  0
 40 43  1  0  0  0  0
 40 44  1  0  0  0  0
 21 27  1  0  0  0  0
 21 28  1  0  0  0  0
 30 35  1  0  0  0  0
  8 13  1  0  0  0  0
 18 26  1  0  0  0  0
 39 41  1  0  0  0  0
  7 12  1  0  0  0  0
 29 34  1  0  0  0  0
 17 25  1  0  0  0  0
M  CHG  1  23  -1
M  END
$$$$

  -OEChem-05262214473D

 44 43  0     1  0  0  0  0  0999 V2000
   -4.0256   -1.8030   -2.1581 C   0  0  0  0  0  0  0  0  0  0  0  0
   -3.7513   -2.6782   -2.9709 O   0  0  0  0  0  0  0  0  0  0  0  0
   -5.3491   -1.1169   -2.2339 C   0  0  0  0  0  0  0  0  0  0  0  0
   -5.3223   -0.2211   -2.8750 H   0  0  0  0  0  0  0  0  0  0  0  0
   -6.1322   -1.7605   -2.6658 H   0  0  0  0  0  0  0  0  0  0  0  0
   -5.7568   -0.7715   -1.2704 H   0  0  0  0  0  0  0  0  0  0  0  0
   -3.2124   -1.3578   -1.1289 N   0  0  0  0  0  0  0  0  0  0  0  0
   -1.8971   -1.8843   -0.8752 C   0  0  2  0  0  0  0  0  0  0  0  0
   -1.2676   -1.0599    0.2399 C   0  0  0  0  0  0  0  0  0  0  0  0
   -1.6270    0.0833    0.5138 O   0  0  0  0  0  0  0  0  0  0  0  0
   -1.0364   -1.8506   -2.1285 C   0  0  0  0  0  0  0  0  0  0  0  0
   -3.5631   -0.6202   -0.5206 H   0  0  0  0  0  0  0  0  0  0  0  0
   -2.0301   -2.9174   -0.5360 H   0  0  0  0  0  0  0  0  0  0  0  0
   -0.8921   -0.8236   -2.4833 H   0  0  0  0  0  0  0  0  0  0  0  0
   -0.0457   -2.2777   -1.9410 H   0  0  0  0  0  0  0  0  0  0  0  0
   -1.5052   -2.4193   -2.9387 H   0  0  0  0  0  0  0  0  0  0  0  0
   -0.2267   -1.7335    0.8672 N   0  0  0  0  0  0  0  0  0  0  0  0
    0.5363   -1.1590    1.9465 C   0  0  2  0  0  0  0  0  0  0  0  0
   -0.3896   -0.2074    2.6955 C   0  0  0  0  0  0  0  0  0  0  0  0
   -0.8485   -0.4561    3.8085 O   0  0  0  0  0  0  0  0  0  0  0  0
    1.7700   -0.4172    1.4375 C   0  0  0  0  0  0  0  0  0  0  0  0
    2.8860   -1.2816    0.8370 C   0  0  0  0  0  0  0  0  0  0  0  0
    2.9512   -2.4492    1.3201 O   0  5  0  0  0  0  0  0  0  0  0  0
    3.6058   -0.7415   -0.0468 O   0  0  0  0  0  0  0  0  0  0  0  0
   -0.0113   -2.6869    0.5854 H   0  0  0  0  0  0  0  0  0  0  0  0
    0.8164   -1.9855    2.6094 H   0  0  0  0  0  0  0  0  0  0  0  0
    2.2055    0.1776    2.2522 H   0  0  0  0  0  0  0  0  0  0  0  0
    1.4763    0.2956    0.6559 H   0  0  0  0  0  0  0  0  0  0  0  0
   -0.6002    0.9732    1.9969 N   0  0  0  0  0  0  0  0  0  0  0  0
   -1.4155    2.0500    2.5089 C   0  0  2  0  0  0  0  0  0  0  0  0
   -2.0541    2.7611    1.3232 C   0  0  0  0  0  0  0  0  0  0  0  0
   -1.5915    2.7157    0.1852 O   0  0  0  0  0  0  0  0  0  0  0  0
   -0.5925    3.0182    3.3444 C   0  0  0  0  0  0  0  0  0  0  0  0
   -0.1406    1.1126    1.1018 H   0  0  0  0  0  0  0  0  0  0  0  0
   -2.1969    1.5903    3.1238 H   0  0  0  0  0  0  0  0  0  0  0  0
    0.1956    3.4887    2.7452 H   0  0  0  0  0  0  0  0  0  0  0  0
   -1.2173    3.8180    3.7553 H   0  0  0  0  0  0  0  0  0  0  0  0
   -0.1099    2.4993    4.1796 H   0  0  0  0  0  0  0  0  0  0  0  0
   -3.1771    3.4877    1.6934 N   0  0  0  0  0  0  0  0  0  0  0  0
   -3.9519    4.2599    0.7503 C   0  0  0  0  0  0  0  0  0  0  0  0
   -3.4998    3.4530    2.6559 H   0  0  0  0  0  0  0  0  0  0  0  0
   -3.5812    5.2954    0.7312 H   0  0  0  0  0  0  0  0  0  0  0  0
   -3.8558    3.8176   -0.2522 H   0  0  0  0  0  0  0  0  0  0  0  0
   -5.0093    4.2547    1.0535 H   0  0  0  0  0  0  0  0  0  0  0  0
  1  3  1  0  0  0  0
  1  7  1  0  0  0  0
  1  2  2  0  0  0  0
 30 31  1  0  0  0  0
 31 39  1  0  0  0  0
 31 32  2  0  0  0  0
  8  9  1  0  0  0  0
  9 17  1  0  0  0  0
  9 10  2  0  0  0  0
 18 19  1  0  0  0  0
 19 29  1  0  0  0  0
 19 20  2  0  0  0  0
 21 22  1  0  0  0  0
 22 23  1  0  0  0  0
 22 24  2  0  0  0  0
 30 33  1  0  0  0  0
  8 11  1  0  0  0  0
 39 40  1  0  0  0  0
 18 21  1  0  0  0  0
 29 30  1  0  0  0  0
  7  8  1  0  0  0  0
 17 18  1  0  0  0  0
  3  4  1  0  0  0  0
  3  5  1  0  0  0  0
  3  6  1  0  0  0  0
 33 36  1  0  0  0  0
 33 37  1  0  0  0  0
 33 38  1  0  0  0  0
 11 14  1  0  0  0  0
 11 15  1  0  0  0  0
 11 16  1  0  0  0  0
 40 42  1  0  0  0  0
 40 43  1  0  0  0  0
 40 44  1  0  0  0  0
 21 27  1  0  0  0  0
 21 28  1  0  0  0  0
 30 35  1  0  0  0  0
  8 13  1  0  0  0  0
 18 26  1  0  0  0  0
 39 41  1  0  0  0  0
  7 12  1  0  0  0  0
 29 34  1  0  0  0  0
 17 25  1  0  0  0  0
M  CHG  1  23  -1
M  END
$$$$

  -OEChem-05262214473D

 44 43  0     1  0  0  0  0  0999 V2000
   -4.0256   -1.8030   -2.1581 C   0  0  0  0  0  0  0  0  0  0  0  0
   -3.7513   -2.6782   -2.9709 O   0  0  0  0  0  0  0  0  0  0  0  0
   -5.3491   -1.1169   -2.2339 C   0  0  0  0  0  0  0  0  0  0  0  0
   -5.3223   -0.2211   -2.8750 H   0  0  0  0  0  0  0  0  0  0  0  0
   -6.1322   -1.7605   -2.6658 H   0  0  0  0  0  0  0  0  0  0  0  0
   -5.7568   -0.7715   -1.2704 H   0  0  0  0  0  0  0  0  0  0  0  0
   -3.2124   -1.3578   -1.1289 N   0  0  0  0  0  0  0  0  0  0  0  0
   -1.8971   -1.8843   -0.8752 C   0  0  2  0  0  0  0  0  0  0  0  0
   -1.2676   -1.0599    0.2399 C   0  0  0  0  0  0  0  0  0  0  0  0
   -1.6270    0.0833    0.5138 O   0  0  0  0  0  0  0  0  0  0  0  0
   -1.0364   -1.8506   -2.1285 C   0  0  0  0  0  0  0  0  0  0  0  0
   -3.5631   -0.6202   -0.5206 H   0  0  0  0  0  0  0  0  0  0  0  0
   -2.0301   -2.9174   -0.5360 H   0  0  0  0  0  0  0  0  0  0  0  0
   -0.8921   -0.8236   -2.4833 H   0  0  0  0  0  0  0  0  0  0  0  0
   -0.0457   -2.2777   -1.9410 H   0  0  0  0  0  0  0  0  0  0  0  0
   -1.5052   -2.4193   -2.9387 H   0  0  0  0  0  0  0  0  0  0  0  0
   -0.2267   -1.7335    0.8672 N   0  0  0  0  0  0  0  0  0  0  0  0
    0.5363   -1.1590    1.9465 C   0  0  2  0  0  0  0  0  0  0  0  0
   -0.3896   -0.2074    2.6955 C   0  0  0  0  0  0  0  0  0  0  0  0
   -0.6353   -0.3167    3.8950 O   0  0  0  0  0  0  0  0  0  0  0  0
    1.7700   -0.4172    1.4375 C   0  0  0  0  0  0  0  0  0  0  0  0
    2.8860   -1.2816    0.8370 C   0  0  0  0  0  0  0  0  0  0  0  0
    2.9512   -2.4492    1.3201 O   0  5  0  0  0  0  0  0  0  0  0  0
    3.6058   -0.7415   -0.0468 O   0  0  0  0  0  0  0  0  0  0  0  0
   -0.0113   -2.6869    0.5854 H   0  0  0  0  0  0  0  0  0  0  0  0
    0.8164   -1.9855    2.6094 H   0  0  0  0  0  0  0  0  0  0  0  0
    2.2055    0.1776    2.2522 H   0  0  0  0  0  0  0  0  0  0  0  0
    1.4763    0.2956    0.6559 H   0  0  0  0  0  0  0  0  0  0  0  0
   -0.8668    0.8075    1.8779 N   0  0  0  0  0  0  0  0  0  0  0  0
   -1.7379    1.8546    2.3586 C   0  0  2  0  0  0  0  0  0  0  0  0
   -2.6420    2.2791    1.2088 C   0  0  0  0  0  0  0  0  0  0  0  0
   -2.3552    2.0967    0.0275 O   0  0  0  0  0  0  0  0  0  0  0  0
   -0.9418    3.0367    2.8891 C   0  0  0  0  0  0  0  0  0  0  0  0
   -0.5722    0.8464    0.9066 H   0  0  0  0  0  0  0  0  0  0  0  0
   -2.3450    1.4182    3.1593 H   0  0  0  0  0  0  0  0  0  0  0  0
   -0.3273    3.4870    2.1010 H   0  0  0  0  0  0  0  0  0  0  0  0
   -1.6030    3.8174    3.2793 H   0  0  0  0  0  0  0  0  0  0  0  0
   -0.2704    2.7238    3.6960 H   0  0  0  0  0  0  0  0  0  0  0  0
   -3.7865    2.9244    1.6557 N   0  0  0  0  0  0  0  0  0  0  0  0
   -4.7956    3.4339    0.7568 C   0  0  0  0  0  0  0  0  0  0  0  0
   -3.9517    3.0149    2.6539 H   0  0  0  0  0  0  0  0  0  0  0  0
   -4.5808    4.4870    0.5226 H   0  0  0  0  0  0  0  0  0  0  0  0
   -4.7914    2.8437   -0.1714 H   0  0  0  0  0  0  0  0  0  0  0  0
   -5.7837    3.3589    1.2345 H   0  0  0  0  0  0  0  0  0  0  0  0
  1  3  1  0  0  0  0
  1  7  1  0  0  0  0
  1  2  2  0  0  0  0
 30 31  1  0  0  0  0
 31 39  1  0  0  0  0
 31 32  2  0  0  0  0
  8  9  1  0  0  0  0
  9 17  1  0  0  0  0
  9 10  2  0  0  0  0
 18 19  1  0  0  0  0
 19 29  1  0  0  0  0
 19 20  2  0  0  0  0
 21 22  1  0  0  0  0
 22 23  1  0  0  0  0
 22 24  2  0  0  0  0
 30 33  1  0  0  0  0
  8 11  1  0  0  0  0
 39 40  1  0  0  0  0
 18 21  1  0  0  0  0
 29 30  1  0  0  0  0
  7  8  1  0  0  0  0
 17 18  1  0  0  0  0
  3  4  1  0  0  0  0
  3  5  1  0  0  0  0
  3  6  1  0  0  0  0
 33 36  1  0  0  0  0
 33 37  1  0  0  0  0
 33 38  1  0  0  0  0
 11 14  1  0  0  0  0
 11 15  1  0  0  0  0
 11 16  1  0  0  0  0
 40 42  1  0  0  0  0
 40 43  1  0  0  0  0
 40 44  1  0  0  0  0
 21 27  1  0  0  0  0
 21 28  1  0  0  0  0
 30 35  1  0  0  0  0
  8 13  1  0  0  0  0
 18 26  1  0  0  0  0
 39 41  1  0  0  0  0
  7 12  1  0  0  0  0
 29 34  1  0  0  0  0
 17 25  1  0  0  0  0
M  CHG  1  23  -1
M  END
$$$$

  -OEChem-05262214473D

 44 43  0     1  0  0  0  0  0999 V2000
   -4.0256   -1.8030   -2.1581 C   0  0  0  0  0  0  0  0  0  0  0  0
   -3.7513   -2.6782   -2.9709 O   0  0  0  0  0  0  0  0  0  0  0  0
   -5.3491   -1.1169   -2.2339 C   0  0  0  0  0  0  0  0  0  0  0  0
   -5.3223   -0.2211   -2.8750 H   0  0  0  0  0  0  0  0  0  0  0  0
   -6.1322   -1.7605   -2.6658 H   0  0  0  0  0  0  0  0  0  0  0  0
   -5.7568   -0.7715   -1.2704 H   0  0  0  0  0  0  0  0  0  0  0  0
   -3.2124   -1.3578   -1.1289 N   0  0  0  0  0  0  0  0  0  0  0  0
   -1.8971   -1.8843   -0.8752 C   0  0  2  0  0  0  0  0  0  0  0  0
   -1.2676   -1.0599    0.2399 C   0  0  0  0  0  0  0  0  0  0  0  0
   -1.6270    0.0833    0.5138 O   0  0  0  0  0  0  0  0  0  0  0  0
   -1.0364   -1.8506   -2.1285 C   0  0  0  0  0  0  0  0  0  0  0  0
   -3.5631   -0.6202   -0.5206 H   0  0  0  0  0  0  0  0  0  0  0  0
   -2.0301   -2.9174   -0.5360 H   0  0  0  0  0  0  0  0  0  0  0  0
   -0.8921   -0.8236   -2.4833 H   0  0  0  0  0  0  0  0  0  0  0  0
   -0.0457   -2.2777   -1.9410 H   0  0  0  0  0  0  0  0  0  0  0  0
   -1.5052   -2.4193   -2.9387 H   0  0  0  0  0  0  0  0  0  0  0  0
   -0.2267   -1.7335    0.8672 N   0  0  0  0  0  0  0  0  0  0  0  0
    0.5363   -1.1590    1.9465 C   0  0  2  0  0  0  0  0  0  0  0  0
   -0.3896   -0.2074    2.6955 C   0  0  0  0  0  0  0  0  0  0  0  0
   -0.4331   -0.1414    3.9223 O   0  0  0  0  0  0  0  0  0  0  0  0
    1.7700   -0.4172    1.4375 C   0  0  0  0  0  0  0  0  0  0  0  0
    2.8860   -1.2816    0.8370 C   0  0  0  0  0  0  0  0  0  0  0  0
    2.9512   -2.4492    1.3201 O   0  5  0  0  0  0  0  0  0  0  0  0
    3.6058   -0.7415   -0.0468 O   0  0  0  0  0  0  0  0  0  0  0  0
   -0.0113   -2.6869    0.5854 H   0  0  0  0  0  0  0  0  0  0  0  0
    0.8164   -1.9855    2.6094 H   0  0  0  0  0  0  0  0  0  0  0  0
    2.2055    0.1776    2.2522 H   0  0  0  0  0  0  0  0  0  0  0  0
    1.4763    0.2956    0.6559 H   0  0  0  0  0  0  0  0  0  0  0  0
   -1.1225    0.5948    1.8320 N   0  0  0  0  0  0  0  0  0  0  0  0
   -2.0488    1.6012    2.2963 C   0  0  2  0  0  0  0  0  0  0  0  0
   -3.1669    1.7209    1.2692 C   0  0  0  0  0  0  0  0  0  0  0  0
   -3.0396    1.3769    0.0959 O   0  0  0  0  0  0  0  0  0  0  0  0
   -1.3550    2.9386    2.5029 C   0  0  0  0  0  0  0  0  0  0  0  0
   -0.9867    0.5037    0.8295 H   0  0  0  0  0  0  0  0  0  0  0  0
   -2.4605    1.2388    3.2446 H   0  0  0  0  0  0  0  0  0  0  0  0
   -0.9362    3.3176    1.5635 H   0  0  0  0  0  0  0  0  0  0  0  0
   -2.0524    3.6929    2.8820 H   0  0  0  0  0  0  0  0  0  0  0  0
   -0.5321    2.8442    3.2195 H   0  0  0  0  0  0  0  0  0  0  0  0
   -4.3096    2.2968    1.8064 N   0  0  0  0  0  0  0  0  0  0  0  0
   -5.5045    2.5297    1.0292 C   0  0  0  0  0  0  0  0  0  0  0  0
   -4.3328    2.5339    2.7938 H   0  0  0  0  0  0  0  0  0  0  0  0
   -5.4773    3.5462    0.6096 H   0  0  0  0  0  0  0  0  0  0  0  0
   -5.5582    1.7967    0.2108 H   0  0  0  0  0  0  0  0  0  0  0  0
   -6.3885    2.4235    1.6752 H   0  0  0  0  0  0  0  0  0  0  0  0
  1  3  1  0  0  0  0
  1  7  1  0  0  0  0
  1  2  2  0  0  0  0
 30 31  1  0  0  0  0
 31 39  1  0  0  0  0
 31 32  2  0  0  0  0
  8  9  1  0  0  0  0
  9 17  1  0  0  0  0
  9 10  2  0  0  0  0
 18 19  1  0  0  0  0
 19 29  1  0  0  0  0
 19 20  2  0  0  0  0
 21 22  1  0  0  0  0
 22 23  1  0  0  0  0
 22 24  2  0  0  0  0
 30 33  1  0  0  0  0
  8 11  1  0  0  0  0
 39 40  1  0  0  0  0
 18 21  1  0  0  0  0
 29 30  1  0  0  0  0
  7  8  1  0  0  0  0
 17 18  1  0  0  0  0
  3  4  1  0  0  0  0
  3  5  1  0  0  0  0
  3  6  1  0  0  0  0
 33 36  1  0  0  0  0
 33 37  1  0  0  0  0
 33 38  1  0  0  0  0
 11 14  1  0  0  0  0
 11 15  1  0  0  0  0
 11 16  1  0  0  0  0
 40 42  1  0  0  0  0
 40 43  1  0  0  0  0
 40 44  1  0  0  0  0
 21 27  1  0  0  0  0
 21 28  1  0  0  0  0
 30 35  1  0  0  0  0
  8 13  1  0  0  0  0
 18 26  1  0  0  0  0
 39 41  1  0  0  0  0
  7 12  1  0  0  0  0
 29 34  1  0  0  0  0
 17 25  1  0  0  0  0
M  CHG  1  23  -1
M  END
$$$$

  -OEChem-05262214473D

 44 43  0     1  0  0  0  0  0999 V2000
   -4.0256   -1.8030   -2.1581 C   0  0  0  0  0  0  0  0  0  0  0  0
   -3.7513   -2.6782   -2.9709 O   0  0  0  0  0  0  0  0  0  0  0  0
   -5.3491   -1.1169   -2.2339 C   0  0  0  0  0  0  0  0  0  0  0  0
   -5.3223   -0.2211   -2.8750 H   0  0  0  0  0  0  0  0  0  0  0  0
   -6.1322   -1.7605   -2.6658 H   0  0  0  0  0  0  0  0  0  0  0  0
   -5.7568   -0.7715   -1.2704 H   0  0  0  0  0  0  0  0  0  0  0  0
   -3.2124   -1.3578   -1.1289 N   0  0  0  0  0  0  0  0  0  0  0  0
   -1.8971   -1.8843   -0.8752 C   0  0  2  0  0  0  0  0  0  0  0  0
   -1.2676   -1.0599    0.2399 C   0  0  0  0  0  0  0  0  0  0  0  0
   -1.6270    0.0833    0.5138 O   0  0  0  0  0  0  0  0  0  0  0  0
   -1.0364   -1.8506   -2.1285 C   0  0  0  0  0  0  0  0  0  0  0  0
   -3.5631   -0.6202   -0.5206 H   0  0  0  0  0  0  0  0  0  0  0  0
   -2.0301   -2.9174   -0.5360 H   0  0  0  0  0  0  0  0  0  0  0  0
   -0.8921   -0.8236   -2.4833 H   0  0  0  0  0  0  0  0  0  0  0  0
   -0.0457   -2.2777   -1.9410 H   0  0  0  0  0  0  0  0  0  0  0  0
   -1.5052   -2.4193   -2.9387 H   0  0  0  0  0  0  0  0  0  0  0  0
   -0.2267   -1.7335    0.8672 N   0  0  0  0  0  0  0  0  0  0  0  0
    0.5363   -1.1590    1.9465 C   0  0  2  0  0  0  0  0  0  0  0  0
   -0.3896   -0.2074    2.6955 C   0  0  0  0  0  0  0  0  0  0  0  0
   -0.2557    0.0579    3.8883 O   0  0  0  0  0  0  0  0  0  0  0  0
    1.7700   -0.4172    1.4375 C   0  0  0  0  0  0  0  0  0  0  0  0
    2.8860   -1.2816    0.8370 C   0  0  0  0  0  0  0  0  0  0  0  0
    2.9512   -2.4492    1.3201 O   0  5  0  0  0  0  0  0  0  0  0  0
    3.6058   -0.7415   -0.0468 O   0  0  0  0  0  0  0  0  0  0  0  0
   -0.0113   -2.6869    0.5854 H   0  0  0  0  0  0  0  0  0  0  0  0
    0.8164   -1.9855    2.6094 H   0  0  0  0  0  0  0  0  0  0  0  0
    2.2055    0.1776    2.2522 H   0  0  0  0  0  0  0  0  0  0  0  0
    1.4763    0.2956    0.6559 H   0  0  0  0  0  0  0  0  0  0  0  0
   -1.3499    0.3496    1.8625 N   0  0  0  0  0  0  0  0  0  0  0  0
   -2.3269    1.3071    2.3261 C   0  0  2  0  0  0  0  0  0  0  0  0
   -3.5933    1.1243    1.5000 C   0  0  0  0  0  0  0  0  0  0  0  0
   -3.5982    0.6054    0.3857 O   0  0  0  0  0  0  0  0  0  0  0  0
   -1.8042    2.7306    2.2120 C   0  0  0  0  0  0  0  0  0  0  0  0
   -1.3560    0.1079    0.8759 H   0  0  0  0  0  0  0  0  0  0  0  0
   -2.5354    1.0641    3.3738 H   0  0  0  0  0  0  0  0  0  0  0  0
   -1.5896    2.9921    1.1693 H   0  0  0  0  0  0  0  0  0  0  0  0
   -2.5348    3.4531    2.5903 H   0  0  0  0  0  0  0  0  0  0  0  0
   -0.8772    2.8523    2.7826 H   0  0  0  0  0  0  0  0  0  0  0  0
   -4.7108    1.6478    2.1351 N   0  0  0  0  0  0  0  0  0  0  0  0
   -6.0302    1.6091    1.5490 C   0  0  0  0  0  0  0  0  0  0  0  0
   -4.6172    2.0429    3.0662 H   0  0  0  0  0  0  0  0  0  0  0  0
   -6.2095    2.5372    0.9864 H   0  0  0  0  0  0  0  0  0  0  0  0
   -6.1039    0.7479    0.8686 H   0  0  0  0  0  0  0  0  0  0  0  0
   -6.7825    1.5123    2.3457 H   0  0  0  0  0  0  0  0  0  0  0  0
  1  3  1  0  0  0  0
  1  7  1  0  0  0  0
  1  2  2  0  0  0  0
 30 31  1  0  0  0  0
 31 39  1  0  0  0  0
 31 32  2  0  0  0  0
  8  9  1  0  0  0  0
  9 17  1  0  0  0  0
  9 10  2  0  0  0  0
 18 19  1  0  0  0  0
 19 29  1  0  0  0  0
 19 20  2  0  0  0  0
 21 22  1  0  0  0  0
 22 23  1  0  0  0  0
 22 24  2  0  0  0  0
 30 33  1  0  0  0  0
  8 11  1  0  0  0  0
 39 40  1  0  0  0  0
 18 21  1  0  0  0  0
 29 30  1  0  0  0  0
  7  8  1  0  0  0  0
 17 18  1  0  0  0  0
  3  4  1  0  0  0  0
  3  5  1  0  0  0  0
  3  6  1  0  0  0  0
 33 36  1  0  0  0  0
 33 37  1  0  0  0  0
 33 38  1  0  0  0  0
 11 14  1  0  0  0  0
 11 15  1  0  0  0  0
 11 16  1  0  0  0  0
 40 42  1  0  0  0  0
 40 43  1  0  0  0  0
 40 44  1  0  0  0  0
 21 27  1  0  0  0  0
 21 28  1  0  0  0  0
 30 35  1  0  0  0  0
  8 13  1  0  0  0  0
 18 26  1  0  0  0  0
 39 41  1  0  0  0  0
  7 12  1  0  0  0  0
 29 34  1  0  0  0  0
 17 25  1  0  0  0  0
M  CHG  1  23  -1
M  END
$$$$

  -OEChem-05262214473D

 44 43  0     1  0  0  0  0  0999 V2000
   -4.0256   -1.8030   -2.1581 C   0  0  0  0  0  0  0  0  0  0  0  0
   -3.7513   -2.6782   -2.9709 O   0  0  0  0  0  0  0  0  0  0  0  0
   -5.3491   -1.1169   -2.2339 C   0  0  0  0  0  0  0  0  0  0  0  0
   -5.3223   -0.2211   -2.8750 H   0  0  0  0  0  0  0  0  0  0  0  0
   -6.1322   -1.7605   -2.6658 H   0  0  0  0  0  0  0  0  0  0  0  0
   -5.7568   -0.7715   -1.2704 H   0  0  0  0  0  0  0  0  0  0  0  0
   -3.2124   -1.3578   -1.1289 N   0  0  0  0  0  0  0  0  0  0  0  0
   -1.8971   -1.8843   -0.8752 C   0  0  2  0  0  0  0  0  0  0  0  0
   -1.2676   -1.0599    0.2399 C   0  0  0  0  0  0  0  0  0  0  0  0
   -1.6270    0.0833    0.5138 O   0  0  0  0  0  0  0  0  0  0  0  0
   -1.0364   -1.8506   -2.1285 C   0  0  0  0  0  0  0  0  0  0  0  0
   -3.5631   -0.6202   -0.5206 H   0  0  0  0  0  0  0  0  0  0  0  0
   -2.0301   -2.9174   -0.5360 H   0  0  0  0  0  0  0  0  0  0  0  0
   -0.8921   -0.8236   -2.4833 H   0  0  0  0  0  0  0  0  0  0  0  0
   -0.0457   -2.2777   -1.9410 H   0  0  0  0  0  0  0  0  0  0  0  0
   -1.5052   -2.4193   -2.9387 H   0  0  0  0  0  0  0  0  0  0  0  0
   -0.2267   -1.7335    0.8672 N   0  0  0  0  0  0  0  0  0  0  0  0
    0.5363   -1.1590    1.9465 C   0  0  2  0  0  0  0  0  0  0  0  0
   -0.3896   -0.2074    2.6955 C   0  0  0  0  0  0  0  0  0  0  0  0
   -0.1151    0.2677    3.7956 O   0  0  0  0  0  0  0  0  0  0  0  0
    1.7700   -0.4172    1.4375 C   0  0  0  0  0  0  0  0  0  0  0  0
    2.8860   -1.2816    0.8370 C   0  0  0  0  0  0  0  0  0  0  0  0
    2.9512   -2.4492    1.3201 O   0  5  0  0  0  0  0  0  0  0  0  0
    3.6058   -0.7415   -0.0468 O   0  0  0  0  0  0  0  0  0  0  0  0
   -0.0113   -2.6869    0.5854 H   0  0  0  0  0  0  0  0  0  0  0  0
    0.8164   -1.9855    2.6094 H   0  0  0  0  0  0  0  0  0  0  0  0
    2.2055    0.1776    2.2522 H   0  0  0  0  0  0  0  0  0  0  0  0
    1.4763    0.2956    0.6559 H   0  0  0  0  0  0  0  0  0  0  0  0
   -1.5334    0.0886    1.9672 N   0  0  0  0  0  0  0  0  0  0  0  0
   -2.5534    0.9923    2.4461 C   0  0  2  0  0  0  0  0  0  0  0  0
   -3.8919    0.5302    1.8857 C   0  0  0  0  0  0  0  0  0  0  0  0
   -3.9927   -0.1653    0.8771 O   0  0  0  0  0  0  0  0  0  0  0  0
   -2.2585    2.4268    2.0362 C   0  0  0  0  0  0  0  0  0  0  0  0
   -1.6548   -0.3142    1.0427 H   0  0  0  0  0  0  0  0  0  0  0  0
   -2.5647    0.9062    3.5382 H   0  0  0  0  0  0  0  0  0  0  0  0
   -2.2431    2.5326    0.9453 H   0  0  0  0  0  0  0  0  0  0  0  0
   -3.0174    3.1143    2.4242 H   0  0  0  0  0  0  0  0  0  0  0  0
   -1.2821    2.7475    2.4151 H   0  0  0  0  0  0  0  0  0  0  0  0
   -4.9626    1.0216    2.6194 N   0  0  0  0  0  0  0  0  0  0  0  0
   -6.3370    0.7346    2.2808 C   0  0  0  0  0  0  0  0  0  0  0  0
   -4.7854    1.5752    3.4524 H   0  0  0  0  0  0  0  0  0  0  0  0
   -6.7276    1.5286    1.6273 H   0  0  0  0  0  0  0  0  0  0  0  0
   -6.3915   -0.2311    1.7569 H   0  0  0  0  0  0  0  0  0  0  0  0
   -6.9389    0.6875    3.2003 H   0  0  0  0  0  0  0  0  0  0  0  0
  1  3  1  0  0  0  0
  1  7  1  0  0  0  0
  1  2  2  0  0  0  0
 30 31  1  0  0  0  0
 31 39  1  0  0  0  0
 31 32  2  0  0  0  0
  8  9  1  0  0  0  0
  9 17  1  0  0  0  0
  9 10  2  0  0  0  0
 18 19  1  0  0  0  0
 19 29  1  0  0  0  0
 19 20  2  0  0  0  0
 21 22  1  0  0  0  0
 22 23  1  0  0  0  0
 22 24  2  0  0  0  0
 30 33  1  0  0  0  0
  8 11  1  0  0  0  0
 39 40  1  0  0  0  0
 18 21  1  0  0  0  0
 29 30  1  0  0  0  0
  7  8  1  0  0  0  0
 17 18  1  0  0  0  0
  3  4  1  0  0  0  0
  3  5  1  0  0  0  0
  3  6  1  0  0  0  0
 33 36  1  0  0  0  0
 33 37  1  0  0  0  0
 33 38  1  0  0  0  0
 11 14  1  0  0  0  0
 11 15  1  0  0  0  0
 11 16  1  0  0  0  0
 40 42  1  0  0  0  0
 40 43  1  0  0  0  0
 40 44  1  0  0  0  0
 21 27  1  0  0  0  0
 21 28  1  0  0  0  0
 30 35  1  0  0  0  0
  8 13  1  0  0  0  0
 18 26  1  0  0  0  0
 39 41  1  0  0  0  0
  7 12  1  0  0  0  0
 29 34  1  0  0  0  0
 17 25  1  0  0  0  0
M  CHG  1  23  -1
M  END
$$$$

  -OEChem-05262214473D

 44 43  0     1  0  0  0  0  0999 V2000
   -4.0256   -1.8030   -2.1581 C   0  0  0  0  0  0  0  0  0  0  0  0
   -3.7513   -2.6782   -2.9709 O   0  0  0  0  0  0  0  0  0  0  0  0
   -5.3491   -1.1169   -2.2339 C   0  0  0  0  0  0  0  0  0  0  0  0
   -5.3223   -0.2211   -2.8750 H   0  0  0  0  0  0  0  0  0  0  0  0
   -6.1322   -1.7605   -2.6658 H   0  0  0  0  0  0  0  0  0  0  0  0
   -5.7568   -0.7715   -1.2704 H   0  0  0  0  0  0  0  0  0  0  0  0
   -3.2124   -1.3578   -1.1289 N   0  0  0  0  0  0  0  0  0  0  0  0
   -1.8971   -1.8843   -0.8752 C   0  0  2  0  0  0  0  0  0  0  0  0
   -1.2676   -1.0599    0.2399 C   0  0  0  0  0  0  0  0  0  0  0  0
   -1.6270    0.0833    0.5138 O   0  0  0  0  0  0  0  0  0  0  0  0
   -1.0364   -1.8506   -2.1285 C   0  0  0  0  0  0  0  0  0  0  0  0
   -3.5631   -0.6202   -0.5206 H   0  0  0  0  0  0  0  0  0  0  0  0
   -2.0301   -2.9174   -0.5360 H   0  0  0  0  0  0  0  0  0  0  0  0
   -0.8921   -0.8236   -2.4833 H   0  0  0  0  0  0  0  0  0  0  0  0
   -0.0457   -2.2777   -1.9410 H   0  0  0  0  0  0  0  0  0  0  0  0
   -1.5052   -2.4193   -2.9387 H   0  0  0  0  0  0  0  0  0  0  0  0
   -0.2267   -1.7335    0.8672 N   0  0  0  0  0  0  0  0  0  0  0  0
    0.5363   -1.1590    1.9465 C   0  0  2  0  0  0  0  0  0  0  0  0
   -0.3896   -0.2074    2.6955 C   0  0  0  0  0  0  0  0  0  0  0  0
   -0.0210    0.4736    3.6503 O   0  0  0  0  0  0  0  0  0  0  0  0
    1.7700   -0.4172    1.4375 C   0  0  0  0  0  0  0  0  0  0  0  0
    2.8860   -1.2816    0.8370 C   0  0  0  0  0  0  0  0  0  0  0  0
    2.9512   -2.4492    1.3201 O   0  5  0  0  0  0  0  0  0  0  0  0
    3.6058   -0.7415   -0.0468 O   0  0  0  0  0  0  0  0  0  0  0  0
   -0.0113   -2.6869    0.5854 H   0  0  0  0  0  0  0  0  0  0  0  0
    0.8164   -1.9855    2.6094 H   0  0  0  0  0  0  0  0  0  0  0  0
    2.2055    0.1776    2.2522 H   0  0  0  0  0  0  0  0  0  0  0  0
    1.4763    0.2956    0.6559 H   0  0  0  0  0  0  0  0  0  0  0  0
   -1.6605   -0.1703    2.1390 N   0  0  0  0  0  0  0  0  0  0  0  0
   -2.7127    0.6783    2.6481 C   0  0  2  0  0  0  0  0  0  0  0  0
   -4.0426   -0.0211    2.3998 C   0  0  0  0  0  0  0  0  0  0  0  0
   -4.1964   -0.8827    1.5367 O   0  0  0  0  0  0  0  0  0  0  0  0
   -2.6872    2.0480    1.9877 C   0  0  0  0  0  0  0  0  0  0  0  0
   -1.8629   -0.7336    1.3183 H   0  0  0  0  0  0  0  0  0  0  0  0
   -2.5464    0.7759    3.7265 H   0  0  0  0  0  0  0  0  0  0  0  0
   -2.8520    1.9704    0.9068 H   0  0  0  0  0  0  0  0  0  0  0  0
   -3.4673    2.6995    2.3951 H   0  0  0  0  0  0  0  0  0  0  0  0
   -1.7193    2.5371    2.1420 H   0  0  0  0  0  0  0  0  0  0  0  0
   -5.0480    0.4608    3.2263 N   0  0  0  0  0  0  0  0  0  0  0  0
   -6.4039   -0.0340    3.1746 C   0  0  0  0  0  0  0  0  0  0  0  0
   -4.8260    1.1628    3.9261 H   0  0  0  0  0  0  0  0  0  0  0  0
   -6.9962    0.5893    2.4886 H   0  0  0  0  0  0  0  0  0  0  0  0
   -6.4012   -1.0737    2.8154 H   0  0  0  0  0  0  0  0  0  0  0  0
   -6.8470    0.0053    4.1806 H   0  0  0  0  0  0  0  0  0  0  0  0
  1  3  1  0  0  0  0
  1  7  1  0  0  0  0
  1  2  2  0  0  0  0
 30 31  1  0  0  0  0
 31 39  1  0  0  0  0
 31 32  2  0  0  0  0
  8  9  1  0  0  0  0
  9 17  1  0  0  0  0
  9 10  2  0  0  0  0
 18 19  1  0  0  0  0
 19 29  1  0  0  0  0
 19 20  2  0  0  0  0
 21 22  1  0  0  0  0
 22 23  1  0  0  0  0
 22 24  2  0  0  0  0
 30 33  1  0  0  0  0
  8 11  1  0  0  0  0
 39 40  1  0  0  0  0
 18 21  1  0  0  0  0
 29 30  1  0  0  0  0
  7  8  1  0  0  0  0
 17 18  1  0  0  0  0
  3  4  1  0  0  0  0
  3  5  1  0  0  0  0
  3  6  1  0  0  0  0
 33 36  1  0  0  0  0
 33 37  1  0  0  0  0
 33 38  1  0  0  0  0
 11 14  1  0  0  0  0
 11 15  1  0  0  0  0
 11 16  1  0  0  0  0
 40 42  1  0  0  0  0
 40 43  1  0  0  0  0
 40 44  1  0  0  0  0
 21 27  1  0  0  0  0
 21 28  1  0  0  0  0
 30 35  1  0  0  0  0
  8 13  1  0  0  0  0
 18 26  1  0  0  0  0
 39 41  1  0  0  0  0
  7 12  1  0  0  0  0
 29 34  1  0  0  0  0
 17 25  1  0  0  0  0
M  CHG  1  23  -1
M  END
$$$$

  -OEChem-05262214473D

 44 43  0     1  0  0  0  0  0999 V2000
   -4.0256   -1.8030   -2.1581 C   0  0  0  0  0  0  0  0  0  0  0  0
   -3.7513   -2.6782   -2.9709 O   0  0  0  0  0  0  0  0  0  0  0  0
   -5.3491   -1.1169   -2.2339 C   0  0  0  0  0  0  0  0  0  0  0  0
   -5.3223   -0.2211   -2.8750 H   0  0  0  0  0  0  0  0  0  0  0  0
   -6.1322   -1.7605   -2.6658 H   0  0  0  0  0  0  0  0  0  0  0  0
   -5.7568   -0.7715   -1.2704 H   0  0  0  0  0  0  0  0  0  0  0  0
   -3.2124   -1.3578   -1.1289 N   0  0  0  0  0  0  0  0  0  0  0  0
   -1.8971   -1.8843   -0.8752 C   0  0  2  0  0  0  0  0  0  0  0  0
   -1.2676   -1.0599    0.2399 C   0  0  0  0  0  0  0  0  0  0  0  0
   -1.6270    0.0833    0.5138 O   0  0  0  0  0  0  0  0  0  0  0  0
   -1.0364   -1.8506   -2.1285 C   0  0  0  0  0  0  0  0  0  0  0  0
   -3.5631   -0.6202   -0.5206 H   0  0  0  0  0  0  0  0  0  0  0  0
   -2.0301   -2.9174   -0.5360 H   0  0  0  0  0  0  0  0  0  0  0  0
   -0.8921   -0.8236   -2.4833 H   0  0  0  0  0  0  0  0  0  0  0  0
   -0.0457   -2.2777   -1.9410 H   0  0  0  0  0  0  0  0  0  0  0  0
   -1.5052   -2.4193   -2.9387 H   0  0  0  0  0  0  0  0  0  0  0  0
   -0.2267   -1.7335    0.8672 N   0  0  0  0  0  0  0  0  0  0  0  0
    0.5363   -1.1590    1.9465 C   0  0  2  0  0  0  0  0  0  0  0  0
   -0.3896   -0.2074    2.6955 C   0  0  0  0  0  0  0  0  0  0  0  0
    0.0202    0.6616    3.4624 O   0  0  0  0  0  0  0  0  0  0  0  0
    1.7700   -0.4172    1.4375 C   0  0  0  0  0  0  0  0  0  0  0  0
    2.8860   -1.2816    0.8370 C   0  0  0  0  0  0  0  0  0  0  0  0
    2.9512   -2.4492    1.3201 O   0  5  0  0  0  0  0  0  0  0  0  0
    3.6058   -0.7415   -0.0468 O   0  0  0  0  0  0  0  0  0  0  0  0
   -0.0113   -2.6869    0.5854 H   0  0  0  0  0  0  0  0  0  0  0  0
    0.8164   -1.9855    2.6094 H   0  0  0  0  0  0  0  0  0  0  0  0
    2.2055    0.1776    2.2522 H   0  0  0  0  0  0  0  0  0  0  0  0
    1.4763    0.2956    0.6559 H   0  0  0  0  0  0  0  0  0  0  0  0
   -1.7226   -0.4096    2.3662 N   0  0  0  0  0  0  0  0  0  0  0  0
   -2.7940    0.3866    2.9183 C   0  0  2  0  0  0  0  0  0  0  0  0
   -4.0349   -0.4919    3.0075 C   0  0  0  0  0  0  0  0  0  0  0  0
   -4.1954   -1.4979    2.3195 O   0  0  0  0  0  0  0  0  0  0  0  0
   -3.0609    1.6199    2.0696 C   0  0  0  0  0  0  0  0  0  0  0  0
   -1.9660   -1.1219    1.6842 H   0  0  0  0  0  0  0  0  0  0  0  0
   -2.4817    0.6818    3.9259 H   0  0  0  0  0  0  0  0  0  0  0  0
   -3.3750    1.3439    1.0563 H   0  0  0  0  0  0  0  0  0  0  0  0
   -3.8538    2.2370    2.5048 H   0  0  0  0  0  0  0  0  0  0  0  0
   -2.1590    2.2353    1.9819 H   0  0  0  0  0  0  0  0  0  0  0  0
   -4.9610    0.0037    3.9145 N   0  0  0  0  0  0  0  0  0  0  0  0
   -6.2263   -0.6444    4.1696 C   0  0  0  0  0  0  0  0  0  0  0  0
   -4.7362    0.8338    4.4551 H   0  0  0  0  0  0  0  0  0  0  0  0
   -6.9971   -0.2168    3.5116 H   0  0  0  0  0  0  0  0  0  0  0  0
   -6.1324   -1.7224    3.9718 H   0  0  0  0  0  0  0  0  0  0  0  0
   -6.5131   -0.4879    5.2200 H   0  0  0  0  0  0  0  0  0  0  0  0
  1  3  1  0  0  0  0
  1  7  1  0  0  0  0
  1  2  2  0  0  0  0
 30 31  1  0  0  0  0
 31 39  1  0  0  0  0
 31 32  2  0  0  0  0
  8  9  1  0  0  0  0
  9 17  1  0  0  0  0
  9 10  2  0  0  0  0
 18 19  1  0  0  0  0
 19 29  1  0  0  0  0
 19 20  2  0  0  0  0
 21 22  1  0  0  0  0
 22 23  1  0  0  0  0
 22 24  2  0  0  0  0
 30 33  1  0  0  0  0
  8 11  1  0  0  0  0
 39 40  1  0  0  0  0
 18 21  1  0  0  0  0
 29 30  1  0  0  0  0
  7  8  1  0  0  0  0
 17 18  1  0  0  0  0
  3  4  1  0  0  0  0
  3  5  1  0  0  0  0
  3  6  1  0  0  0  0
 33 36  1  0  0  0  0
 33 37  1  0  0  0  0
 33 38  1  0  0  0  0
 11 14  1  0  0  0  0
 11 15  1  0  0  0  0
 11 16  1  0  0  0  0
 40 42  1  0  0  0  0
 40 43  1  0  0  0  0
 40 44  1  0  0  0  0
 21 27  1  0  0  0  0
 21 28  1  0  0  0  0
 30 35  1  0  0  0  0
  8 13  1  0  0  0  0
 18 26  1  0  0  0  0
 39 41  1  0  0  0  0
  7 12  1  0  0  0  0
 29 34  1  0  0  0  0
 17 25  1  0  0  0  0
M  CHG  1  23  -1
M  END
$$$$

  -OEChem-05262214473D

 44 43  0     1  0  0  0  0  0999 V2000
   -4.0256   -1.8030   -2.1581 C   0  0  0  0  0  0  0  0  0  0  0  0
   -3.7513   -2.6782   -2.9709 O   0  0  0  0  0  0  0  0  0  0  0  0
   -5.3491   -1.1169   -2.2339 C   0  0  0  0  0  0  0  0  0  0  0  0
   -5.3223   -0.2211   -2.8750 H   0  0  0  0  0  0  0  0  0  0  0  0
   -6.1322   -1.7605   -2.6658 H   0  0  0  0  0  0  0  0  0  0  0  0
   -5.7568   -0.7715   -1.2704 H   0  0  0  0  0  0  0  0  0  0  0  0
   -3.2124   -1.3578   -1.1289 N   0  0  0  0  0  0  0  0  0  0  0  0
   -1.8971   -1.8843   -0.8752 C   0  0  2  0  0  0  0  0  0  0  0  0
   -1.2676   -1.0599    0.2399 C   0  0  0  0  0  0  0  0  0  0  0  0
   -1.6270    0.0833    0.5138 O   0  0  0  0  0  0  0  0  0  0  0  0
   -1.0364   -1.8506   -2.1285 C   0  0  0  0  0  0  0  0  0  0  0  0
   -3.5631   -0.6202   -0.5206 H   0  0  0  0  0  0  0  0  0  0  0  0
   -2.0301   -2.9174   -0.5360 H   0  0  0  0  0  0  0  0  0  0  0  0
   -0.8921   -0.8236   -2.4833 H   0  0  0  0  0  0  0  0  0  0  0  0
   -0.0457   -2.2777   -1.9410 H   0  0  0  0  0  0  0  0  0  0  0  0
   -1.5052   -2.4193   -2.9387 H   0  0  0  0  0  0  0  0  0  0  0  0
   -0.2267   -1.7335    0.8672 N   0  0  0  0  0  0  0  0  0  0  0  0
    0.5363   -1.1590    1.9465 C   0  0  2  0  0  0  0  0  0  0  0  0
   -0.3896   -0.2074    2.6955 C   0  0  0  0  0  0  0  0  0  0  0  0
    0.0057    0.8189    3.2446 O   0  0  0  0  0  0  0  0  0  0  0  0
    1.7700   -0.4172    1.4375 C   0  0  0  0  0  0  0  0  0  0  0  0
    2.8860   -1.2816    0.8370 C   0  0  0  0  0  0  0  0  0  0  0  0
    2.9512   -2.4492    1.3201 O   0  5  0  0  0  0  0  0  0  0  0  0
    3.6058   -0.7415   -0.0468 O   0  0  0  0  0  0  0  0  0  0  0  0
   -0.0113   -2.6869    0.5854 H   0  0  0  0  0  0  0  0  0  0  0  0
    0.8164   -1.9855    2.6094 H   0  0  0  0  0  0  0  0  0  0  0  0
    2.2055    0.1776    2.2522 H   0  0  0  0  0  0  0  0  0  0  0  0
    1.4763    0.2956    0.6559 H   0  0  0  0  0  0  0  0  0  0  0  0
   -1.7155   -0.6129    2.6333 N   0  0  0  0  0  0  0  0  0  0  0  0
   -2.7917    0.1369    3.2383 C   0  0  2  0  0  0  0  0  0  0  0  0
   -3.8694   -0.8501    3.6672 C   0  0  0  0  0  0  0  0  0  0  0  0
   -3.9897   -1.9689    3.1722 O   0  0  0  0  0  0  0  0  0  0  0  0
   -3.3542    1.1717    2.2763 C   0  0  0  0  0  0  0  0  0  0  0  0
   -1.9571   -1.4525    2.1152 H   0  0  0  0  0  0  0  0  0  0  0  0
   -2.3750    0.6306    4.1229 H   0  0  0  0  0  0  0  0  0  0  0  0
   -3.7763    0.6958    1.3837 H   0  0  0  0  0  0  0  0  0  0  0  0
   -4.1506    1.7584    2.7459 H   0  0  0  0  0  0  0  0  0  0  0  0
   -2.5712    1.8627    1.9457 H   0  0  0  0  0  0  0  0  0  0  0  0
   -4.7077   -0.3186    4.6371 N   0  0  0  0  0  0  0  0  0  0  0  0
   -5.8164   -1.0550    5.1980 C   0  0  0  0  0  0  0  0  0  0  0  0
   -4.5222    0.6105    5.0033 H   0  0  0  0  0  0  0  0  0  0  0  0
   -6.7302   -0.8347    4.6266 H   0  0  0  0  0  0  0  0  0  0  0  0
   -5.6035   -2.1330    5.1474 H   0  0  0  0  0  0  0  0  0  0  0  0
   -5.9599   -0.7585    6.2475 H   0  0  0  0  0  0  0  0  0  0  0  0
  1  3  1  0  0  0  0
  1  7  1  0  0  0  0
  1  2  2  0  0  0  0
 30 31  1  0  0  0  0
 31 39  1  0  0  0  0
 31 32  2  0  0  0  0
  8  9  1  0  0  0  0
  9 17  1  0  0  0  0
  9 10  2  0  0  0  0
 18 19  1  0  0  0  0
 19 29  1  0  0  0  0
 19 20  2  0  0  0  0
 21 22  1  0  0  0  0
 22 23  1  0  0  0  0
 22 24  2  0  0  0  0
 30 33  1  0  0  0  0
  8 11  1  0  0  0  0
 39 40  1  0  0  0  0
 18 21  1  0  0  0  0
 29 30  1  0  0  0  0
  7  8  1  0  0  0  0
 17 18  1  0  0  0  0
  3  4  1  0  0  0  0
  3  5  1  0  0  0  0
  3  6  1  0  0  0  0
 33 36  1  0  0  0  0
 33 37  1  0  0  0  0
 33 38  1  0  0  0  0
 11 14  1  0  0  0  0
 11 15  1  0  0  0  0
 11 16  1  0  0  0  0
 40 42  1  0  0  0  0
 40 43  1  0  0  0  0
 40 44  1  0  0  0  0
 21 27  1  0  0  0  0
 21 28  1  0  0  0  0
 30 35  1  0  0  0  0
  8 13  1  0  0  0  0
 18 26  1  0  0  0  0
 39 41  1  0  0  0  0
  7 12  1  0  0  0  0
 29 34  1  0  0  0  0
 17 25  1  0  0  0  0
M  CHG  1  23  -1
M  END
$$$$

  -OEChem-05262214473D

 44 43  0     1  0  0  0  0  0999 V2000
   -4.0256   -1.8030   -2.1581 C   0  0  0  0  0  0  0  0  0  0  0  0
   -3.7513   -2.6782   -2.9709 O   0  0  0  0  0  0  0  0  0  0  0  0
   -5.3491   -1.1169   -2.2339 C   0  0  0  0  0  0  0  0  0  0  0  0
   -5.3223   -0.2211   -2.8750 H   0  0  0  0  0  0  0  0  0  0  0  0
   -6.1322   -1.7605   -2.6658 H   0  0  0  0  0  0  0  0  0  0  0  0
   -5.7568   -0.7715   -1.2704 H   0  0  0  0  0  0  0  0  0  0  0  0
   -3.2124   -1.3578   -1.1289 N   0  0  0  0  0  0  0  0  0  0  0  0
   -1.8971   -1.8843   -0.8752 C   0  0  2  0  0  0  0  0  0  0  0  0
   -1.2676   -1.0599    0.2399 C   0  0  0  0  0  0  0  0  0  0  0  0
   -1.6270    0.0833    0.5138 O   0  0  0  0  0  0  0  0  0  0  0  0
   -1.0364   -1.8506   -2.1285 C   0  0  0  0  0  0  0  0  0  0  0  0
   -3.5631   -0.6202   -0.5206 H   0  0  0  0  0  0  0  0  0  0  0  0
   -2.0301   -2.9174   -0.5360 H   0  0  0  0  0  0  0  0  0  0  0  0
   -0.8921   -0.8236   -2.4833 H   0  0  0  0  0  0  0  0  0  0  0  0
   -0.0457   -2.2777   -1.9410 H   0  0  0  0  0  0  0  0  0  0  0  0
   -1.5052   -2.4193   -2.9387 H   0  0  0  0  0  0  0  0  0  0  0  0
   -0.2267   -1.7335    0.8672 N   0  0  0  0  0  0  0  0  0  0  0  0
    0.5363   -1.1590    1.9465 C   0  0  2  0  0  0  0  0  0  0  0  0
   -0.3896   -0.2074    2.6955 C   0  0  0  0  0  0  0  0  0  0  0  0
   -0.0634    0.9348    3.0119 O   0  0  0  0  0  0  0  0  0  0  0  0
    1.7700   -0.4172    1.4375 C   0  0  0  0  0  0  0  0  0  0  0  0
    2.8860   -1.2816    0.8370 C   0  0  0  0  0  0  0  0  0  0  0  0
    2.9512   -2.4492    1.3201 O   0  5  0  0  0  0  0  0  0  0  0  0
    3.6058   -0.7415   -0.0468 O   0  0  0  0  0  0  0  0  0  0  0  0
   -0.0113   -2.6869    0.5854 H   0  0  0  0  0  0  0  0  0  0  0  0
    0.8164   -1.9855    2.6094 H   0  0  0  0  0  0  0  0  0  0  0  0
    2.2055    0.1776    2.2522 H   0  0  0  0  0  0  0  0  0  0  0  0
    1.4763    0.2956    0.6559 H   0  0  0  0  0  0  0  0  0  0  0  0
   -1.6396   -0.7663    2.9221 N   0  0  0  0  0  0  0  0  0  0  0  0
   -2.7061   -0.0537    3.5863 C   0  0  2  0  0  0  0  0  0  0  0  0
   -3.5574   -1.0715    4.3340 C   0  0  0  0  0  0  0  0  0  0  0  0
   -3.5933   -2.2637    4.0366 O   0  0  0  0  0  0  0  0  0  0  0  0
   -3.5471    0.7341    2.5939 C   0  0  0  0  0  0  0  0  0  0  0  0
   -1.8368   -1.7030    2.5821 H   0  0  0  0  0  0  0  0  0  0  0  0
   -2.2336    0.6257    4.3040 H   0  0  0  0  0  0  0  0  0  0  0  0
   -4.0286    0.0701    1.8667 H   0  0  0  0  0  0  0  0  0  0  0  0
   -4.3375    1.2963    3.1020 H   0  0  0  0  0  0  0  0  0  0  0  0
   -2.9278    1.4447    2.0360 H   0  0  0  0  0  0  0  0  0  0  0  0
   -4.3054   -0.4841    5.3448 N   0  0  0  0  0  0  0  0  0  0  0  0
   -5.2021   -1.2379    6.1896 C   0  0  0  0  0  0  0  0  0  0  0  0
   -4.1985    0.5082    5.5333 H   0  0  0  0  0  0  0  0  0  0  0  0
   -6.2136   -1.2223    5.7576 H   0  0  0  0  0  0  0  0  0  0  0  0
   -4.8504   -2.2776    6.2620 H   0  0  0  0  0  0  0  0  0  0  0  0
   -5.2252   -0.7880    7.1932 H   0  0  0  0  0  0  0  0  0  0  0  0
  1  3  1  0  0  0  0
  1  7  1  0  0  0  0
  1  2  2  0  0  0  0
 30 31  1  0  0  0  0
 31 39  1  0  0  0  0
 31 32  2  0  0  0  0
  8  9  1  0  0  0  0
  9 17  1  0  0  0  0
  9 10  2  0  0  0  0
 18 19  1  0  0  0  0
 19 29  1  0  0  0  0
 19 20  2  0  0  0  0
 21 22  1  0  0  0  0
 22 23  1  0  0  0  0
 22 24  2  0  0  0  0
 30 33  1  0  0  0  0
  8 11  1  0  0  0  0
 39 40  1  0  0  0  0
 18 21  1  0  0  0  0
 29 30  1  0  0  0  0
  7  8  1  0  0  0  0
 17 18  1  0  0  0  0
  3  4  1  0  0  0  0
  3  5  1  0  0  0  0
  3  6  1  0  0  0  0
 33 36  1  0  0  0  0
 33 37  1  0  0  0  0
 33 38  1  0  0  0  0
 11 14  1  0  0  0  0
 11 15  1  0  0  0  0
 11 16  1  0  0  0  0
 40 42  1  0  0  0  0
 40 43  1  0  0  0  0
 40 44  1  0  0  0  0
 21 27  1  0  0  0  0
 21 28  1  0  0  0  0
 30 35  1  0  0  0  0
  8 13  1  0  0  0  0
 18 26  1  0  0  0  0
 39 41  1  0  0  0  0
  7 12  1  0  0  0  0
 29 34  1  0  0  0  0
 17 25  1  0  0  0  0
M  CHG  1  23  -1
M  END
$$$$

  -OEChem-05262214473D

 44 43  0     1  0  0  0  0  0999 V2000
   -4.0256   -1.8030   -2.1581 C   0  0  0  0  0  0  0  0  0  0  0  0
   -3.7513   -2.6782   -2.9709 O   0  0  0  0  0  0  0  0  0  0  0  0
   -5.3491   -1.1169   -2.2339 C   0  0  0  0  0  0  0  0  0  0  0  0
   -5.3223   -0.2211   -2.8750 H   0  0  0  0  0  0  0  0  0  0  0  0
   -6.1322   -1.7605   -2.6658 H   0  0  0  0  0  0  0  0  0  0  0  0
   -5.7568   -0.7715   -1.2704 H   0  0  0  0  0  0  0  0  0  0  0  0
   -3.2124   -1.3578   -1.1289 N   0  0  0  0  0  0  0  0  0  0  0  0
   -1.8971   -1.8843   -0.8752 C   0  0  2  0  0  0  0  0  0  0  0  0
   -1.2676   -1.0599    0.2399 C   0  0  0  0  0  0  0  0  0  0  0  0
   -1.6270    0.0833    0.5138 O   0  0  0  0  0  0  0  0  0  0  0  0
   -1.0364   -1.8506   -2.1285 C   0  0  0  0  0  0  0  0  0  0  0  0
   -3.5631   -0.6202   -0.5206 H   0  0  0  0  0  0  0  0  0  0  0  0
   -2.0301   -2.9174   -0.5360 H   0  0  0  0  0  0  0  0  0  0  0  0
   -0.8921   -0.8236   -2.4833 H   0  0  0  0  0  0  0  0  0  0  0  0
   -0.0457   -2.2777   -1.9410 H   0  0  0  0  0  0  0  0  0  0  0  0
   -1.5052   -2.4193   -2.9387 H   0  0  0  0  0  0  0  0  0  0  0  0
   -0.2267   -1.7335    0.8672 N   0  0  0  0  0  0  0  0  0  0  0  0
    0.5363   -1.1590    1.9465 C   0  0  2  0  0  0  0  0  0  0  0  0
   -0.3896   -0.2074    2.6955 C   0  0  0  0  0  0  0  0  0  0  0  0
   -0.1825    1.0014    2.7801 O   0  0  0  0  0  0  0  0  0  0  0  0
    1.7700   -0.4172    1.4375 C   0  0  0  0  0  0  0  0  0  0  0  0
    2.8860   -1.2816    0.8370 C   0  0  0  0  0  0  0  0  0  0  0  0
    2.9512   -2.4492    1.3201 O   0  5  0  0  0  0  0  0  0  0  0  0
    3.6058   -0.7415   -0.0468 O   0  0  0  0  0  0  0  0  0  0  0  0
   -0.0113   -2.6869    0.5854 H   0  0  0  0  0  0  0  0  0  0  0  0
    0.8164   -1.9855    2.6094 H   0  0  0  0  0  0  0  0  0  0  0  0
    2.2055    0.1776    2.2522 H   0  0  0  0  0  0  0  0  0  0  0  0
    1.4763    0.2956    0.6559 H   0  0  0  0  0  0  0  0  0  0  0  0
   -1.5001   -0.8595    3.2129 N   0  0  0  0  0  0  0  0  0  0  0  0
   -2.5430   -0.1723    3.9385 C   0  0  2  0  0  0  0  0  0  0  0  0
   -3.1202   -1.1407    4.9624 C   0  0  0  0  0  0  0  0  0  0  0  0
   -3.0333   -2.3621    4.8539 O   0  0  0  0  0  0  0  0  0  0  0  0
   -3.6265    0.3367    3.0006 C   0  0  0  0  0  0  0  0  0  0  0  0
   -1.6134   -1.8562    3.0531 H   0  0  0  0  0  0  0  0  0  0  0  0
   -2.0671    0.6673    4.4568 H   0  0  0  0  0  0  0  0  0  0  0  0
   -4.1147   -0.4904    2.4723 H   0  0  0  0  0  0  0  0  0  0  0  0
   -4.4017    0.8821    3.5488 H   0  0  0  0  0  0  0  0  0  0  0  0
   -3.2045    1.0098    2.2465 H   0  0  0  0  0  0  0  0  0  0  0  0
   -3.7813   -0.4816    5.9894 N   0  0  0  0  0  0  0  0  0  0  0  0
   -4.4253   -1.1805    7.0770 C   0  0  0  0  0  0  0  0  0  0  0  0
   -3.7873    0.5339    6.0091 H   0  0  0  0  0  0  0  0  0  0  0  0
   -5.4826   -1.3532    6.8276 H   0  0  0  0  0  0  0  0  0  0  0  0
   -3.9245   -2.1463    7.2396 H   0  0  0  0  0  0  0  0  0  0  0  0
   -4.3590   -0.5743    7.9925 H   0  0  0  0  0  0  0  0  0  0  0  0
  1  3  1  0  0  0  0
  1  7  1  0  0  0  0
  1  2  2  0  0  0  0
 30 31  1  0  0  0  0
 31 39  1  0  0  0  0
 31 32  2  0  0  0  0
  8  9  1  0  0  0  0
  9 17  1  0  0  0  0
  9 10  2  0  0  0  0
 18 19  1  0  0  0  0
 19 29  1  0  0  0  0
 19 20  2  0  0  0  0
 21 22  1  0  0  0  0
 22 23  1  0  0  0  0
 22 24  2  0  0  0  0
 30 33  1  0  0  0  0
  8 11  1  0  0  0  0
 39 40  1  0  0  0  0
 18 21  1  0  0  0  0
 29 30  1  0  0  0  0
  7  8  1  0  0  0  0
 17 18  1  0  0  0  0
  3  4  1  0  0  0  0
  3  5  1  0  0  0  0
  3  6  1  0  0  0  0
 33 36  1  0  0  0  0
 33 37  1  0  0  0  0
 33 38  1  0  0  0  0
 11 14  1  0  0  0  0
 11 15  1  0  0  0  0
 11 16  1  0  0  0  0
 40 42  1  0  0  0  0
 40 43  1  0  0  0  0
 40 44  1  0  0  0  0
 21 27  1  0  0  0  0
 21 28  1  0  0  0  0
 30 35  1  0  0  0  0
  8 13  1  0  0  0  0
 18 26  1  0  0  0  0
 39 41  1  0  0  0  0
  7 12  1  0  0  0  0
 29 34  1  0  0  0  0
 17 25  1  0  0  0  0
M  CHG  1  23  -1
M  END
$$$$

  -OEChem-05262214473D

 44 43  0     1  0  0  0  0  0999 V2000
   -4.0256   -1.8030   -2.1581 C   0  0  0  0  0  0  0  0  0  0  0  0
   -3.7513   -2.6782   -2.9709 O   0  0  0  0  0  0  0  0  0  0  0  0
   -5.3491   -1.1169   -2.2339 C   0  0  0  0  0  0  0  0  0  0  0  0
   -5.3223   -0.2211   -2.8750 H   0  0  0  0  0  0  0  0  0  0  0  0
   -6.1322   -1.7605   -2.6658 H   0  0  0  0  0  0  0  0  0  0  0  0
   -5.7568   -0.7715   -1.2704 H   0  0  0  0  0  0  0  0  0  0  0  0
   -3.2124   -1.3578   -1.1289 N   0  0  0  0  0  0  0  0  0  0  0  0
   -1.8971   -1.8843   -0.8752 C   0  0  2  0  0  0  0  0  0  0  0  0
   -1.2676   -1.0599    0.2399 C   0  0  0  0  0  0  0  0  0  0  0  0
   -1.6270    0.0833    0.5138 O   0  0  0  0  0  0  0  0  0  0  0  0
   -1.0364   -1.8506   -2.1285 C   0  0  0  0  0  0  0  0  0  0  0  0
   -3.5631   -0.6202   -0.5206 H   0  0  0  0  0  0  0  0  0  0  0  0
   -2.0301   -2.9174   -0.5360 H   0  0  0  0  0  0  0  0  0  0  0  0
   -0.8921   -0.8236   -2.4833 H   0  0  0  0  0  0  0  0  0  0  0  0
   -0.0457   -2.2777   -1.9410 H   0  0  0  0  0  0  0  0  0  0  0  0
   -1.5052   -2.4193   -2.9387 H   0  0  0  0  0  0  0  0  0  0  0  0
   -0.2267   -1.7335    0.8672 N   0  0  0  0  0  0  0  0  0  0  0  0
    0.5363   -1.1590    1.9465 C   0  0  2  0  0  0  0  0  0  0  0  0
   -0.3896   -0.2074    2.6955 C   0  0  0  0  0  0  0  0  0  0  0  0
   -0.3435    1.0141    2.5650 O   0  0  0  0  0  0  0  0  0  0  0  0
    1.7700   -0.4172    1.4375 C   0  0  0  0  0  0  0  0  0  0  0  0
    2.8860   -1.2816    0.8370 C   0  0  0  0  0  0  0  0  0  0  0  0
    2.9512   -2.4492    1.3201 O   0  5  0  0  0  0  0  0  0  0  0  0
    3.6058   -0.7415   -0.0468 O   0  0  0  0  0  0  0  0  0  0  0  0
   -0.0113   -2.6869    0.5854 H   0  0  0  0  0  0  0  0  0  0  0  0
    0.8164   -1.9855    2.6094 H   0  0  0  0  0  0  0  0  0  0  0  0
    2.2055    0.1776    2.2522 H   0  0  0  0  0  0  0  0  0  0  0  0
    1.4763    0.2956    0.6559 H   0  0  0  0  0  0  0  0  0  0  0  0
   -1.3065   -0.8861    3.4860 N   0  0  0  0  0  0  0  0  0  0  0  0
   -2.3134   -0.2106    4.2710 C   0  0  2  0  0  0  0  0  0  0  0  0
   -2.5876   -1.0532    5.5097 C   0  0  0  0  0  0  0  0  0  0  0  0
   -2.3479   -2.2575    5.5683 O   0  0  0  0  0  0  0  0  0  0  0  0
   -3.5869    0.0067    3.4687 C   0  0  0  0  0  0  0  0  0  0  0  0
   -1.3019   -1.9018    3.4960 H   0  0  0  0  0  0  0  0  0  0  0  0
   -1.8869    0.7528    4.5710 H   0  0  0  0  0  0  0  0  0  0  0  0
   -4.0288   -0.9475    3.1593 H   0  0  0  0  0  0  0  0  0  0  0  0
   -4.3389    0.5441    4.0559 H   0  0  0  0  0  0  0  0  0  0  0  0
   -3.3825    0.5876    2.5629 H   0  0  0  0  0  0  0  0  0  0  0  0
   -3.1713   -0.3112    6.5270 N   0  0  0  0  0  0  0  0  0  0  0  0
   -3.5388   -0.8868    7.7996 C   0  0  0  0  0  0  0  0  0  0  0  0
   -3.3164    0.6859    6.3981 H   0  0  0  0  0  0  0  0  0  0  0  0
   -4.5870   -1.2185    7.7635 H   0  0  0  0  0  0  0  0  0  0  0  0
   -2.8889   -1.7480    8.0138 H   0  0  0  0  0  0  0  0  0  0  0  0
   -3.4203   -0.1321    8.5911 H   0  0  0  0  0  0  0  0  0  0  0  0
  1  3  1  0  0  0  0
  1  7  1  0  0  0  0
  1  2  2  0  0  0  0
 30 31  1  0  0  0  0
 31 39  1  0  0  0  0
 31 32  2  0  0  0  0
  8  9  1  0  0  0  0
  9 17  1  0  0  0  0
  9 10  2  0  0  0  0
 18 19  1  0  0  0  0
 19 29  1  0  0  0  0
 19 20  2  0  0  0  0
 21 22  1  0  0  0  0
 22 23  1  0  0  0  0
 22 24  2  0  0  0  0
 30 33  1  0  0  0  0
  8 11  1  0  0  0  0
 39 40  1  0  0  0  0
 18 21  1  0  0  0  0
 29 30  1  0  0  0  0
  7  8  1  0  0  0  0
 17 18  1  0  0  0  0
  3  4  1  0  0  0  0
  3  5  1  0  0  0  0
  3  6  1  0  0  0  0
 33 36  1  0  0  0  0
 33 37  1  0  0  0  0
 33 38  1  0  0  0  0
 11 14  1  0  0  0  0
 11 15  1  0  0  0  0
 11 16  1  0  0  0  0
 40 42  1  0  0  0  0
 40 43  1  0  0  0  0
 40 44  1  0  0  0  0
 21 27  1  0  0  0  0
 21 28  1  0  0  0  0
 30 35  1  0  0  0  0
  8 13  1  0  0  0  0
 18 26  1  0  0  0  0
 39 41  1  0  0  0  0
  7 12  1  0  0  0  0
 29 34  1  0  0  0  0
 17 25  1  0  0  0  0
M  CHG  1  23  -1
M  END
$$$$

  -OEChem-05262214473D

 44 43  0     1  0  0  0  0  0999 V2000
   -4.0256   -1.8030   -2.1581 C   0  0  0  0  0  0  0  0  0  0  0  0
   -3.7513   -2.6782   -2.9709 O   0  0  0  0  0  0  0  0  0  0  0  0
   -5.3491   -1.1169   -2.2339 C   0  0  0  0  0  0  0  0  0  0  0  0
   -5.3223   -0.2211   -2.8750 H   0  0  0  0  0  0  0  0  0  0  0  0
   -6.1322   -1.7605   -2.6658 H   0  0  0  0  0  0  0  0  0  0  0  0
   -5.7568   -0.7715   -1.2704 H   0  0  0  0  0  0  0  0  0  0  0  0
   -3.2124   -1.3578   -1.1289 N   0  0  0  0  0  0  0  0  0  0  0  0
   -1.8971   -1.8843   -0.8752 C   0  0  2  0  0  0  0  0  0  0  0  0
   -1.2676   -1.0599    0.2399 C   0  0  0  0  0  0  0  0  0  0  0  0
   -1.6270    0.0833    0.5138 O   0  0  0  0  0  0  0  0  0  0  0  0
   -1.0364   -1.8506   -2.1285 C   0  0  0  0  0  0  0  0  0  0  0  0
   -3.5631   -0.6202   -0.5206 H   0  0  0  0  0  0  0  0  0  0  0  0
   -2.0301   -2.9174   -0.5360 H   0  0  0  0  0  0  0  0  0  0  0  0
   -0.8921   -0.8236   -2.4833 H   0  0  0  0  0  0  0  0  0  0  0  0
   -0.0457   -2.2777   -1.9410 H   0  0  0  0  0  0  0  0  0  0  0  0
   -1.5052   -2.4193   -2.9387 H   0  0  0  0  0  0  0  0  0  0  0  0
   -0.2267   -1.7335    0.8672 N   0  0  0  0  0  0  0  0  0  0  0  0
    0.5363   -1.1590    1.9465 C   0  0  2  0  0  0  0  0  0  0  0  0
   -0.3896   -0.2074    2.6955 C   0  0  0  0  0  0  0  0  0  0  0  0
   -0.5354    0.9721    2.3812 O   0  0  0  0  0  0  0  0  0  0  0  0
    1.7700   -0.4172    1.4375 C   0  0  0  0  0  0  0  0  0  0  0  0
    2.8860   -1.2816    0.8370 C   0  0  0  0  0  0  0  0  0  0  0  0
    2.9512   -2.4492    1.3201 O   0  5  0  0  0  0  0  0  0  0  0  0
    3.6058   -0.7415   -0.0468 O   0  0  0  0  0  0  0  0  0  0  0  0
   -0.0113   -2.6869    0.5854 H   0  0  0  0  0  0  0  0  0  0  0  0
    0.8164   -1.9855    2.6094 H   0  0  0  0  0  0  0  0  0  0  0  0
    2.2055    0.1776    2.2522 H   0  0  0  0  0  0  0  0  0  0  0  0
    1.4763    0.2956    0.6559 H   0  0  0  0  0  0  0  0  0  0  0  0
   -1.0721   -0.8442    3.7226 N   0  0  0  0  0  0  0  0  0  0  0  0
   -2.0331   -0.1662    4.5612 C   0  0  2  0  0  0  0  0  0  0  0  0
   -1.9957   -0.8150    5.9386 C   0  0  0  0  0  0  0  0  0  0  0  0
   -1.5836   -1.9569    6.1312 O   0  0  0  0  0  0  0  0  0  0  0  0
   -3.4311   -0.2334    3.9664 C   0  0  0  0  0  0  0  0  0  0  0  0
   -0.9238   -1.8366    3.8806 H   0  0  0  0  0  0  0  0  0  0  0  0
   -1.7053    0.8762    4.6388 H   0  0  0  0  0  0  0  0  0  0  0  0
   -3.7766   -1.2701    3.8809 H   0  0  0  0  0  0  0  0  0  0  0  0
   -4.1533    0.3054    4.5887 H   0  0  0  0  0  0  0  0  0  0  0  0
   -3.4496    0.2069    2.9636 H   0  0  0  0  0  0  0  0  0  0  0  0
   -2.5168    0.0155    6.9209 N   0  0  0  0  0  0  0  0  0  0  0  0
   -2.6032   -0.3767    8.3082 C   0  0  0  0  0  0  0  0  0  0  0  0
   -2.8180    0.9536    6.6739 H   0  0  0  0  0  0  0  0  0  0  0  0
   -3.5878   -0.8274    8.5017 H   0  0  0  0  0  0  0  0  0  0  0  0
   -1.8142   -1.1099    8.5316 H   0  0  0  0  0  0  0  0  0  0  0  0
   -2.4731    0.5084    8.9481 H   0  0  0  0  0  0  0  0  0  0  0  0
  1  3  1  0  0  0  0
  1  7  1  0  0  0  0
  1  2  2  0  0  0  0
 30 31  1  0  0  0  0
 31 39  1  0  0  0  0
 31 32  2  0  0  0  0
  8  9  1  0  0  0  0
  9 17  1  0  0  0  0
  9 10  2  0  0  0  0
 18 19  1  0  0  0  0
 19 29  1  0  0  0  0
 19 20  2  0  0  0  0
 21 22  1  0  0  0  0
 22 23  1  0  0  0  0
 22 24  2  0  0  0  0
 30 33  1  0  0  0  0
  8 11  1  0  0  0  0
 39 40  1  0  0  0  0
 18 21  1  0  0  0  0
 29 30  1  0  0  0  0
  7  8  1  0  0  0  0
 17 18  1  0  0  0  0
  3  4  1  0  0  0  0
  3  5  1  0  0  0  0
  3  6  1  0  0  0  0
 33 36  1  0  0  0  0
 33 37  1  0  0  0  0
 33 38  1  0  0  0  0
 11 14  1  0  0  0  0
 11 15  1  0  0  0  0
 11 16  1  0  0  0  0
 40 42  1  0  0  0  0
 40 43  1  0  0  0  0
 40 44  1  0  0  0  0
 21 27  1  0  0  0  0
 21 28  1  0  0  0  0
 30 35  1  0  0  0  0
  8 13  1  0  0  0  0
 18 26  1  0  0  0  0
 39 41  1  0  0  0  0
  7 12  1  0  0  0  0
 29 34  1  0  0  0  0
 17 25  1  0  0  0  0
M  CHG  1  23  -1
M  END
$$$$

  -OEChem-05262214473D

 44 43  0     1  0  0  0  0  0999 V2000
   -4.0256   -1.8030   -2.1581 C   0  0  0  0  0  0  0  0  0  0  0  0
   -3.7513   -2.6782   -2.9709 O   0  0  0  0  0  0  0  0  0  0  0  0
   -5.3491   -1.1169   -2.2339 C   0  0  0  0  0  0  0  0  0  0  0  0
   -5.3223   -0.2211   -2.8750 H   0  0  0  0  0  0  0  0  0  0  0  0
   -6.1322   -1.7605   -2.6658 H   0  0  0  0  0  0  0  0  0  0  0  0
   -5.7568   -0.7715   -1.2704 H   0  0  0  0  0  0  0  0  0  0  0  0
   -3.2124   -1.3578   -1.1289 N   0  0  0  0  0  0  0  0  0  0  0  0
   -1.8971   -1.8843   -0.8752 C   0  0  2  0  0  0  0  0  0  0  0  0
   -1.2676   -1.0599    0.2399 C   0  0  0  0  0  0  0  0  0  0  0  0
   -1.6270    0.0833    0.5138 O   0  0  0  0  0  0  0  0  0  0  0  0
   -1.0364   -1.8506   -2.1285 C   0  0  0  0  0  0  0  0  0  0  0  0
   -3.5631   -0.6202   -0.5206 H   0  0  0  0  0  0  0  0  0  0  0  0
   -2.0301   -2.9174   -0.5360 H   0  0  0  0  0  0  0  0  0  0  0  0
   -0.8921   -0.8236   -2.4833 H   0  0  0  0  0  0  0  0  0  0  0  0
   -0.0457   -2.2777   -1.9410 H   0  0  0  0  0  0  0  0  0  0  0  0
   -1.5052   -2.4193   -2.9387 H   0  0  0  0  0  0  0  0  0  0  0  0
   -0.2267   -1.7335    0.8672 N   0  0  0  0  0  0  0  0  0  0  0  0
    0.5363   -1.1590    1.9465 C   0  0  2  0  0  0  0  0  0  0  0  0
   -0.3896   -0.2074    2.6955 C   0  0  0  0  0  0  0  0  0  0  0  0
   -0.7450    0.8782    2.2413 O   0  0  0  0  0  0  0  0  0  0  0  0
    1.7700   -0.4172    1.4375 C   0  0  0  0  0  0  0  0  0  0  0  0
    2.8860   -1.2816    0.8370 C   0  0  0  0  0  0  0  0  0  0  0  0
    2.9512   -2.4492    1.3201 O   0  5  0  0  0  0  0  0  0  0  0  0
    3.6058   -0.7415   -0.0468 O   0  0  0  0  0  0  0  0  0  0  0  0
   -0.0113   -2.6869    0.5854 H   0  0  0  0  0  0  0  0  0  0  0  0
    0.8164   -1.9855    2.6094 H   0  0  0  0  0  0  0  0  0  0  0  0
    2.2055    0.1776    2.2522 H   0  0  0  0  0  0  0  0  0  0  0  0
    1.4763    0.2956    0.6559 H   0  0  0  0  0  0  0  0  0  0  0  0
   -0.8127   -0.7368    3.9067 N   0  0  0  0  0  0  0  0  0  0  0  0
   -1.7211   -0.0421    4.7891 C   0  0  2  0  0  0  0  0  0  0  0  0
   -1.3851   -0.4421    6.2197 C   0  0  0  0  0  0  0  0  0  0  0  0
   -0.7927   -1.4810    6.5042 O   0  0  0  0  0  0  0  0  0  0  0  0
   -3.1696   -0.3673    4.4597 C   0  0  0  0  0  0  0  0  0  0  0  0
   -0.5046   -1.6651    4.1808 H   0  0  0  0  0  0  0  0  0  0  0  0
   -1.5346    1.0291    4.6555 H   0  0  0  0  0  0  0  0  0  0  0  0
   -3.3754   -1.4363    4.5879 H   0  0  0  0  0  0  0  0  0  0  0  0
   -3.8576    0.1821    5.1108 H   0  0  0  0  0  0  0  0  0  0  0  0
   -3.4012   -0.1064    3.4214 H   0  0  0  0  0  0  0  0  0  0  0  0
   -1.8626    0.4762    7.1443 N   0  0  0  0  0  0  0  0  0  0  0  0
   -1.6821    0.3149    8.5681 C   0  0  0  0  0  0  0  0  0  0  0  0
   -2.3262    1.3190    6.8178 H   0  0  0  0  0  0  0  0  0  0  0  0
   -2.5531   -0.2065    8.9919 H   0  0  0  0  0  0  0  0  0  0  0  0
   -0.7736   -0.2755    8.7578 H   0  0  0  0  0  0  0  0  0  0  0  0
   -1.5819    1.3038    9.0393 H   0  0  0  0  0  0  0  0  0  0  0  0
  1  3  1  0  0  0  0
  1  7  1  0  0  0  0
  1  2  2  0  0  0  0
 30 31  1  0  0  0  0
 31 39  1  0  0  0  0
 31 32  2  0  0  0  0
  8  9  1  0  0  0  0
  9 17  1  0  0  0  0
  9 10  2  0  0  0  0
 18 19  1  0  0  0  0
 19 29  1  0  0  0  0
 19 20  2  0  0  0  0
 21 22  1  0  0  0  0
 22 23  1  0  0  0  0
 22 24  2  0  0  0  0
 30 33  1  0  0  0  0
  8 11  1  0  0  0  0
 39 40  1  0  0  0  0
 18 21  1  0  0  0  0
 29 30  1  0  0  0  0
  7  8  1  0  0  0  0
 17 18  1  0  0  0  0
  3  4  1  0  0  0  0
  3  5  1  0  0  0  0
  3  6  1  0  0  0  0
 33 36  1  0  0  0  0
 33 37  1  0  0  0  0
 33 38  1  0  0  0  0
 11 14  1  0  0  0  0
 11 15  1  0  0  0  0
 11 16  1  0  0  0  0
 40 42  1  0  0  0  0
 40 43  1  0  0  0  0
 40 44  1  0  0  0  0
 21 27  1  0  0  0  0
 21 28  1  0  0  0  0
 30 35  1  0  0  0  0
  8 13  1  0  0  0  0
 18 26  1  0  0  0  0
 39 41  1  0  0  0  0
  7 12  1  0  0  0  0
 29 34  1  0  0  0  0
 17 25  1  0  0  0  0
M  CHG  1  23  -1
M  END
$$$$

  -OEChem-05262214473D

 44 43  0     1  0  0  0  0  0999 V2000
   -4.0256   -1.8030   -2.1581 C   0  0  0  0  0  0  0  0  0  0  0  0
   -3.7513   -2.6782   -2.9709 O   0  0  0  0  0  0  0  0  0  0  0  0
   -5.3491   -1.1169   -2.2339 C   0  0  0  0  0  0  0  0  0  0  0  0
   -5.3223   -0.2211   -2.8750 H   0  0  0  0  0  0  0  0  0  0  0  0
   -6.1322   -1.7605   -2.6658 H   0  0  0  0  0  0  0  0  0  0  0  0
   -5.7568   -0.7715   -1.2704 H   0  0  0  0  0  0  0  0  0  0  0  0
   -3.2124   -1.3578   -1.1289 N   0  0  0  0  0  0  0  0  0  0  0  0
   -1.8971   -1.8843   -0.8752 C   0  0  2  0  0  0  0  0  0  0  0  0
   -1.2676   -1.0599    0.2399 C   0  0  0  0  0  0  0  0  0  0  0  0
   -1.6270    0.0833    0.5138 O   0  0  0  0  0  0  0  0  0  0  0  0
   -1.0364   -1.8506   -2.1285 C   0  0  0  0  0  0  0  0  0  0  0  0
   -3.5631   -0.6202   -0.5206 H   0  0  0  0  0  0  0  0  0  0  0  0
   -2.0301   -2.9174   -0.5360 H   0  0  0  0  0  0  0  0  0  0  0  0
   -0.8921   -0.8236   -2.4833 H   0  0  0  0  0  0  0  0  0  0  0  0
   -0.0457   -2.2777   -1.9410 H   0  0  0  0  0  0  0  0  0  0  0  0
   -1.5052   -2.4193   -2.9387 H   0  0  0  0  0  0  0  0  0  0  0  0
   -0.2267   -1.7335    0.8672 N   0  0  0  0  0  0  0  0  0  0  0  0
    0.5363   -1.1590    1.9465 C   0  0  2  0  0  0  0  0  0  0  0  0
   -0.3896   -0.2074    2.6955 C   0  0  0  0  0  0  0  0  0  0  0  0
   -0.9583    0.7388    2.1547 O   0  0  0  0  0  0  0  0  0  0  0  0
    1.7700   -0.4172    1.4375 C   0  0  0  0  0  0  0  0  0  0  0  0
    2.8860   -1.2816    0.8370 C   0  0  0  0  0  0  0  0  0  0  0  0
    2.9512   -2.4492    1.3201 O   0  5  0  0  0  0  0  0  0  0  0  0
    3.6058   -0.7415   -0.0468 O   0  0  0  0  0  0  0  0  0  0  0  0
   -0.0113   -2.6869    0.5854 H   0  0  0  0  0  0  0  0  0  0  0  0
    0.8164   -1.9855    2.6094 H   0  0  0  0  0  0  0  0  0  0  0  0
    2.2055    0.1776    2.2522 H   0  0  0  0  0  0  0  0  0  0  0  0
    1.4763    0.2956    0.6559 H   0  0  0  0  0  0  0  0  0  0  0  0
   -0.5461   -0.5710    4.0257 N   0  0  0  0  0  0  0  0  0  0  0  0
   -1.3986    0.1534    4.9394 C   0  0  2  0  0  0  0  0  0  0  0  0
   -0.7973    0.0399    6.3340 C   0  0  0  0  0  0  0  0  0  0  0  0
   -0.0290   -0.8620    6.6619 O   0  0  0  0  0  0  0  0  0  0  0  0
   -2.8204   -0.3858    4.9150 C   0  0  0  0  0  0  0  0  0  0  0  0
   -0.0731   -1.3989    4.3761 H   0  0  0  0  0  0  0  0  0  0  0  0
   -1.3865    1.2012    4.6200 H   0  0  0  0  0  0  0  0  0  0  0  0
   -2.8526   -1.4346    5.2320 H   0  0  0  0  0  0  0  0  0  0  0  0
   -3.4719    0.1827    5.5868 H   0  0  0  0  0  0  0  0  0  0  0  0
   -3.2407   -0.3309    3.9050 H   0  0  0  0  0  0  0  0  0  0  0  0
   -1.2532    1.0396    7.1819 N   0  0  0  0  0  0  0  0  0  0  0  0
   -0.8384    1.1409    8.5616 C   0  0  0  0  0  0  0  0  0  0  0  0
   -1.8743    1.7571    6.8198 H   0  0  0  0  0  0  0  0  0  0  0  0
   -1.5535    0.6019    9.2005 H   0  0  0  0  0  0  0  0  0  0  0  0
    0.1620    0.6985    8.6771 H   0  0  0  0  0  0  0  0  0  0  0  0
   -0.8076    2.1997    8.8583 H   0  0  0  0  0  0  0  0  0  0  0  0
  1  3  1  0  0  0  0
  1  7  1  0  0  0  0
  1  2  2  0  0  0  0
 30 31  1  0  0  0  0
 31 39  1  0  0  0  0
 31 32  2  0  0  0  0
  8  9  1  0  0  0  0
  9 17  1  0  0  0  0
  9 10  2  0  0  0  0
 18 19  1  0  0  0  0
 19 29  1  0  0  0  0
 19 20  2  0  0  0  0
 21 22  1  0  0  0  0
 22 23  1  0  0  0  0
 22 24  2  0  0  0  0
 30 33  1  0  0  0  0
  8 11  1  0  0  0  0
 39 40  1  0  0  0  0
 18 21  1  0  0  0  0
 29 30  1  0  0  0  0
  7  8  1  0  0  0  0
 17 18  1  0  0  0  0
  3  4  1  0  0  0  0
  3  5  1  0  0  0  0
  3  6  1  0  0  0  0
 33 36  1  0  0  0  0
 33 37  1  0  0  0  0
 33 38  1  0  0  0  0
 11 14  1  0  0  0  0
 11 15  1  0  0  0  0
 11 16  1  0  0  0  0
 40 42  1  0  0  0  0
 40 43  1  0  0  0  0
 40 44  1  0  0  0  0
 21 27  1  0  0  0  0
 21 28  1  0  0  0  0
 30 35  1  0  0  0  0
  8 13  1  0  0  0  0
 18 26  1  0  0  0  0
 39 41  1  0  0  0  0
  7 12  1  0  0  0  0
 29 34  1  0  0  0  0
 17 25  1  0  0  0  0
M  CHG  1  23  -1
M  END
$$$$

  -OEChem-05262214473D

 44 43  0     1  0  0  0  0  0999 V2000
   -4.0256   -1.8030   -2.1581 C   0  0  0  0  0  0  0  0  0  0  0  0
   -3.7513   -2.6782   -2.9709 O   0  0  0  0  0  0  0  0  0  0  0  0
   -5.3491   -1.1169   -2.2339 C   0  0  0  0  0  0  0  0  0  0  0  0
   -5.3223   -0.2211   -2.8750 H   0  0  0  0  0  0  0  0  0  0  0  0
   -6.1322   -1.7605   -2.6658 H   0  0  0  0  0  0  0  0  0  0  0  0
   -5.7568   -0.7715   -1.2704 H   0  0  0  0  0  0  0  0  0  0  0  0
   -3.2124   -1.3578   -1.1289 N   0  0  0  0  0  0  0  0  0  0  0  0
   -1.8971   -1.8843   -0.8752 C   0  0  2  0  0  0  0  0  0  0  0  0
   -1.2676   -1.0599    0.2399 C   0  0  0  0  0  0  0  0  0  0  0  0
   -1.6270    0.0833    0.5138 O   0  0  0  0  0  0  0  0  0  0  0  0
   -1.0364   -1.8506   -2.1285 C   0  0  0  0  0  0  0  0  0  0  0  0
   -3.5631   -0.6202   -0.5206 H   0  0  0  0  0  0  0  0  0  0  0  0
   -2.0301   -2.9174   -0.5360 H   0  0  0  0  0  0  0  0  0  0  0  0
   -0.8921   -0.8236   -2.4833 H   0  0  0  0  0  0  0  0  0  0  0  0
   -0.0457   -2.2777   -1.9410 H   0  0  0  0  0  0  0  0  0  0  0  0
   -1.5052   -2.4193   -2.9387 H   0  0  0  0  0  0  0  0  0  0  0  0
   -0.2267   -1.7335    0.8672 N   0  0  0  0  0  0  0  0  0  0  0  0
    0.5363   -1.1590    1.9465 C   0  0  2  0  0  0  0  0  0  0  0  0
   -0.3896   -0.2074    2.6955 C   0  0  0  0  0  0  0  0  0  0  0  0
   -1.1605    0.5635    2.1275 O   0  0  0  0  0  0  0  0  0  0  0  0
    1.7700   -0.4172    1.4375 C   0  0  0  0  0  0  0  0  0  0  0  0
    2.8860   -1.2816    0.8370 C   0  0  0  0  0  0  0  0  0  0  0  0
    2.9512   -2.4492    1.3201 O   0  5  0  0  0  0  0  0  0  0  0  0
    3.6058   -0.7415   -0.0468 O   0  0  0  0  0  0  0  0  0  0  0  0
   -0.0113   -2.6869    0.5854 H   0  0  0  0  0  0  0  0  0  0  0  0
    0.8164   -1.9855    2.6094 H   0  0  0  0  0  0  0  0  0  0  0  0
    2.2055    0.1776    2.2522 H   0  0  0  0  0  0  0  0  0  0  0  0
    1.4763    0.2956    0.6559 H   0  0  0  0  0  0  0  0  0  0  0  0
   -0.2904   -0.3583    4.0716 N   0  0  0  0  0  0  0  0  0  0  0  0
   -1.0878    0.4068    5.0017 C   0  0  2  0  0  0  0  0  0  0  0  0
   -0.2723    0.5982    6.2737 C   0  0  0  0  0  0  0  0  0  0  0  0
    0.6554   -0.1422    6.5935 O   0  0  0  0  0  0  0  0  0  0  0  0
   -2.4071   -0.2877    5.3012 C   0  0  0  0  0  0  0  0  0  0  0  0
    0.3415   -1.0562    4.4531 H   0  0  0  0  0  0  0  0  0  0  0  0
   -1.2710    1.3806    4.5347 H   0  0  0  0  0  0  0  0  0  0  0  0
   -2.2437   -1.2652    5.7695 H   0  0  0  0  0  0  0  0  0  0  0  0
   -3.0226    0.3072    5.9841 H   0  0  0  0  0  0  0  0  0  0  0  0
   -2.9790   -0.4513    4.3815 H   0  0  0  0  0  0  0  0  0  0  0  0
   -0.7301    1.6671    7.0313 N   0  0  0  0  0  0  0  0  0  0  0  0
   -0.1296    2.0450    8.2892 C   0  0  0  0  0  0  0  0  0  0  0  0
   -1.4932    2.2381    6.6798 H   0  0  0  0  0  0  0  0  0  0  0  0
   -0.6570    1.5427    9.1135 H   0  0  0  0  0  0  0  0  0  0  0  0
    0.9288    1.7455    8.2948 H   0  0  0  0  0  0  0  0  0  0  0  0
   -0.2028    3.1351    8.4175 H   0  0  0  0  0  0  0  0  0  0  0  0
  1  3  1  0  0  0  0
  1  7  1  0  0  0  0
  1  2  2  0  0  0  0
 30 31  1  0  0  0  0
 31 39  1  0  0  0  0
 31 32  2  0  0  0  0
  8  9  1  0  0  0  0
  9 17  1  0  0  0  0
  9 10  2  0  0  0  0
 18 19  1  0  0  0  0
 19 29  1  0  0  0  0
 19 20  2  0  0  0  0
 21 22  1  0  0  0  0
 22 23  1  0  0  0  0
 22 24  2  0  0  0  0
 30 33  1  0  0  0  0
  8 11  1  0  0  0  0
 39 40  1  0  0  0  0
 18 21  1  0  0  0  0
 29 30  1  0  0  0  0
  7  8  1  0  0  0  0
 17 18  1  0  0  0  0
  3  4  1  0  0  0  0
  3  5  1  0  0  0  0
  3  6  1  0  0  0  0
 33 36  1  0  0  0  0
 33 37  1  0  0  0  0
 33 38  1  0  0  0  0
 11 14  1  0  0  0  0
 11 15  1  0  0  0  0
 11 16  1  0  0  0  0
 40 42  1  0  0  0  0
 40 43  1  0  0  0  0
 40 44  1  0  0  0  0
 21 27  1  0  0  0  0
 21 28  1  0  0  0  0
 30 35  1  0  0  0  0
  8 13  1  0  0  0  0
 18 26  1  0  0  0  0
 39 41  1  0  0  0  0
  7 12  1  0  0  0  0
 29 34  1  0  0  0  0
 17 25  1  0  0  0  0
M  CHG  1  23  -1
M  END
$$$$

  -OEChem-05262214473D

 44 43  0     1  0  0  0  0  0999 V2000
   -4.0256   -1.8030   -2.1581 C   0  0  0  0  0  0  0  0  0  0  0  0
   -3.7513   -2.6782   -2.9709 O   0  0  0  0  0  0  0  0  0  0  0  0
   -5.3491   -1.1169   -2.2339 C   0  0  0  0  0  0  0  0  0  0  0  0
   -5.3223   -0.2211   -2.8750 H   0  0  0  0  0  0  0  0  0  0  0  0
   -6.1322   -1.7605   -2.6658 H   0  0  0  0  0  0  0  0  0  0  0  0
   -5.7568   -0.7715   -1.2704 H   0  0  0  0  0  0  0  0  0  0  0  0
   -3.2124   -1.3578   -1.1289 N   0  0  0  0  0  0  0  0  0  0  0  0
   -1.8971   -1.8843   -0.8752 C   0  0  2  0  0  0  0  0  0  0  0  0
   -1.2676   -1.0599    0.2399 C   0  0  0  0  0  0  0  0  0  0  0  0
   -1.6270    0.0833    0.5138 O   0  0  0  0  0  0  0  0  0  0  0  0
   -1.0364   -1.8506   -2.1285 C   0  0  0  0  0  0  0  0  0  0  0  0
   -3.5631   -0.6202   -0.5206 H   0  0  0  0  0  0  0  0  0  0  0  0
   -2.0301   -2.9174   -0.5360 H   0  0  0  0  0  0  0  0  0  0  0  0
   -0.8921   -0.8236   -2.4833 H   0  0  0  0  0  0  0  0  0  0  0  0
   -0.0457   -2.2777   -1.9410 H   0  0  0  0  0  0  0  0  0  0  0  0
   -1.5052   -2.4193   -2.9387 H   0  0  0  0  0  0  0  0  0  0  0  0
   -0.2267   -1.7335    0.8672 N   0  0  0  0  0  0  0  0  0  0  0  0
    0.5363   -1.1590    1.9465 C   0  0  2  0  0  0  0  0  0  0  0  0
   -0.3896   -0.2074    2.6955 C   0  0  0  0  0  0  0  0  0  0  0  0
   -1.3379    0.3642    2.1614 O   0  0  0  0  0  0  0  0  0  0  0  0
    1.7700   -0.4172    1.4375 C   0  0  0  0  0  0  0  0  0  0  0  0
    2.8860   -1.2816    0.8370 C   0  0  0  0  0  0  0  0  0  0  0  0
    2.9512   -2.4492    1.3201 O   0  5  0  0  0  0  0  0  0  0  0  0
    3.6058   -0.7415   -0.0468 O   0  0  0  0  0  0  0  0  0  0  0  0
   -0.0113   -2.6869    0.5854 H   0  0  0  0  0  0  0  0  0  0  0  0
    0.8164   -1.9855    2.6094 H   0  0  0  0  0  0  0  0  0  0  0  0
    2.2055    0.1776    2.2522 H   0  0  0  0  0  0  0  0  0  0  0  0
    1.4763    0.2956    0.6559 H   0  0  0  0  0  0  0  0  0  0  0  0
   -0.0630   -0.1132    4.0411 N   0  0  0  0  0  0  0  0  0  0  0  0
   -0.8096    0.7009    4.9719 C   0  0  2  0  0  0  0  0  0  0  0  0
    0.1541    1.1947    6.0428 C   0  0  0  0  0  0  0  0  0  0  0  0
    1.2140    0.6293    6.3037 O   0  0  0  0  0  0  0  0  0  0  0  0
   -1.9580   -0.0797    5.5921 C   0  0  0  0  0  0  0  0  0  0  0  0
    0.7107   -0.6604    4.4067 H   0  0  0  0  0  0  0  0  0  0  0  0
   -1.1961    1.5552    4.4055 H   0  0  0  0  0  0  0  0  0  0  0  0
   -1.5902   -0.9397    6.1637 H   0  0  0  0  0  0  0  0  0  0  0  0
   -2.5401    0.5470    6.2758 H   0  0  0  0  0  0  0  0  0  0  0  0
   -2.6339   -0.4594    4.8184 H   0  0  0  0  0  0  0  0  0  0  0  0
   -0.3290    2.3161    6.7026 N   0  0  0  0  0  0  0  0  0  0  0  0
    0.3962    2.9657    7.7694 C   0  0  0  0  0  0  0  0  0  0  0  0
   -1.2088    2.7291    6.4075 H   0  0  0  0  0  0  0  0  0  0  0  0
    0.0752    2.5517    8.7367 H   0  0  0  0  0  0  0  0  0  0  0  0
    1.4746    2.7942    7.6370 H   0  0  0  0  0  0  0  0  0  0  0  0
    0.1912    4.0462    7.7470 H   0  0  0  0  0  0  0  0  0  0  0  0
  1  3  1  0  0  0  0
  1  7  1  0  0  0  0
  1  2  2  0  0  0  0
 30 31  1  0  0  0  0
 31 39  1  0  0  0  0
 31 32  2  0  0  0  0
  8  9  1  0  0  0  0
  9 17  1  0  0  0  0
  9 10  2  0  0  0  0
 18 19  1  0  0  0  0
 19 29  1  0  0  0  0
 19 20  2  0  0  0  0
 21 22  1  0  0  0  0
 22 23  1  0  0  0  0
 22 24  2  0  0  0  0
 30 33  1  0  0  0  0
  8 11  1  0  0  0  0
 39 40  1  0  0  0  0
 18 21  1  0  0  0  0
 29 30  1  0  0  0  0
  7  8  1  0  0  0  0
 17 18  1  0  0  0  0
  3  4  1  0  0  0  0
  3  5  1  0  0  0  0
  3  6  1  0  0  0  0
 33 36  1  0  0  0  0
 33 37  1  0  0  0  0
 33 38  1  0  0  0  0
 11 14  1  0  0  0  0
 11 15  1  0  0  0  0
 11 16  1  0  0  0  0
 40 42  1  0  0  0  0
 40 43  1  0  0  0  0
 40 44  1  0  0  0  0
 21 27  1  0  0  0  0
 21 28  1  0  0  0  0
 30 35  1  0  0  0  0
  8 13  1  0  0  0  0
 18 26  1  0  0  0  0
 39 41  1  0  0  0  0
  7 12  1  0  0  0  0
 29 34  1  0  0  0  0
 17 25  1  0  0  0  0
M  CHG  1  23  -1
M  END
$$$$

  -OEChem-05262214473D

 44 43  0     1  0  0  0  0  0999 V2000
   -4.0256   -1.8030   -2.1581 C   0  0  0  0  0  0  0  0  0  0  0  0
   -3.7513   -2.6782   -2.9709 O   0  0  0  0  0  0  0  0  0  0  0  0
   -5.3491   -1.1169   -2.2339 C   0  0  0  0  0  0  0  0  0  0  0  0
   -5.3223   -0.2211   -2.8750 H   0  0  0  0  0  0  0  0  0  0  0  0
   -6.1322   -1.7605   -2.6658 H   0  0  0  0  0  0  0  0  0  0  0  0
   -5.7568   -0.7715   -1.2704 H   0  0  0  0  0  0  0  0  0  0  0  0
   -3.2124   -1.3578   -1.1289 N   0  0  0  0  0  0  0  0  0  0  0  0
   -1.8971   -1.8843   -0.8752 C   0  0  2  0  0  0  0  0  0  0  0  0
   -1.2676   -1.0599    0.2399 C   0  0  0  0  0  0  0  0  0  0  0  0
   -1.6270    0.0833    0.5138 O   0  0  0  0  0  0  0  0  0  0  0  0
   -1.0364   -1.8506   -2.1285 C   0  0  0  0  0  0  0  0  0  0  0  0
   -3.5631   -0.6202   -0.5206 H   0  0  0  0  0  0  0  0  0  0  0  0
   -2.0301   -2.9174   -0.5360 H   0  0  0  0  0  0  0  0  0  0  0  0
   -0.8921   -0.8236   -2.4833 H   0  0  0  0  0  0  0  0  0  0  0  0
   -0.0457   -2.2777   -1.9410 H   0  0  0  0  0  0  0  0  0  0  0  0
   -1.5052   -2.4193   -2.9387 H   0  0  0  0  0  0  0  0  0  0  0  0
   -0.2267   -1.7335    0.8672 N   0  0  0  0  0  0  0  0  0  0  0  0
    0.5363   -1.1590    1.9465 C   0  0  2  0  0  0  0  0  0  0  0  0
   -0.3896   -0.2074    2.6955 C   0  0  0  0  0  0  0  0  0  0  0  0
   -1.4784    0.1544    2.2542 O   0  0  0  0  0  0  0  0  0  0  0  0
    1.7700   -0.4172    1.4375 C   0  0  0  0  0  0  0  0  0  0  0  0
    2.8860   -1.2816    0.8370 C   0  0  0  0  0  0  0  0  0  0  0  0
    2.9512   -2.4492    1.3201 O   0  5  0  0  0  0  0  0  0  0  0  0
    3.6058   -0.7415   -0.0468 O   0  0  0  0  0  0  0  0  0  0  0  0
   -0.0113   -2.6869    0.5854 H   0  0  0  0  0  0  0  0  0  0  0  0
    0.8164   -1.9855    2.6094 H   0  0  0  0  0  0  0  0  0  0  0  0
    2.2055    0.1776    2.2522 H   0  0  0  0  0  0  0  0  0  0  0  0
    1.4763    0.2956    0.6559 H   0  0  0  0  0  0  0  0  0  0  0  0
    0.1205    0.1478    3.9364 N   0  0  0  0  0  0  0  0  0  0  0  0
   -0.5832    1.0156    4.8519 C   0  0  2  0  0  0  0  0  0  0  0  0
    0.4527    1.7888    5.6572 C   0  0  0  0  0  0  0  0  0  0  0  0
    1.6085    1.4001    5.8123 O   0  0  0  0  0  0  0  0  0  0  0  0
   -1.5036    0.2241    5.7679 C   0  0  0  0  0  0  0  0  0  0  0  0
    1.0096   -0.2384    4.2400 H   0  0  0  0  0  0  0  0  0  0  0  0
   -1.1668    1.7131    4.2411 H   0  0  0  0  0  0  0  0  0  0  0  0
   -0.9368   -0.4802    6.3877 H   0  0  0  0  0  0  0  0  0  0  0  0
   -2.0575    0.8858    6.4419 H   0  0  0  0  0  0  0  0  0  0  0  0
   -2.2290   -0.3547    5.1859 H   0  0  0  0  0  0  0  0  0  0  0  0
   -0.0772    2.9424    6.2183 N   0  0  0  0  0  0  0  0  0  0  0  0
    0.7029    3.8401    7.0377 C   0  0  0  0  0  0  0  0  0  0  0  0
   -1.0406    3.1968    6.0213 H   0  0  0  0  0  0  0  0  0  0  0  0
    0.5933    3.5603    8.0958 H   0  0  0  0  0  0  0  0  0  0  0  0
    1.7622    3.7732    6.7487 H   0  0  0  0  0  0  0  0  0  0  0  0
    0.3476    4.8710    6.8925 H   0  0  0  0  0  0  0  0  0  0  0  0
  1  3  1  0  0  0  0
  1  7  1  0  0  0  0
  1  2  2  0  0  0  0
 30 31  1  0  0  0  0
 31 39  1  0  0  0  0
 31 32  2  0  0  0  0
  8  9  1  0  0  0  0
  9 17  1  0  0  0  0
  9 10  2  0  0  0  0
 18 19  1  0  0  0  0
 19 29  1  0  0  0  0
 19 20  2  0  0  0  0
 21 22  1  0  0  0  0
 22 23  1  0  0  0  0
 22 24  2  0  0  0  0
 30 33  1  0  0  0  0
  8 11  1  0  0  0  0
 39 40  1  0  0  0  0
 18 21  1  0  0  0  0
 29 30  1  0  0  0  0
  7  8  1  0  0  0  0
 17 18  1  0  0  0  0
  3  4  1  0  0  0  0
  3  5  1  0  0  0  0
  3  6  1  0  0  0  0
 33 36  1  0  0  0  0
 33 37  1  0  0  0  0
 33 38  1  0  0  0  0
 11 14  1  0  0  0  0
 11 15  1  0  0  0  0
 11 16  1  0  0  0  0
 40 42  1  0  0  0  0
 40 43  1  0  0  0  0
 40 44  1  0  0  0  0
 21 27  1  0  0  0  0
 21 28  1  0  0  0  0
 30 35  1  0  0  0  0
  8 13  1  0  0  0  0
 18 26  1  0  0  0  0
 39 41  1  0  0  0  0
  7 12  1  0  0  0  0
 29 34  1  0  0  0  0
 17 25  1  0  0  0  0
M  CHG  1  23  -1
M  END
$$$$

  -OEChem-05262214473D

 44 43  0     1  0  0  0  0  0999 V2000
   -4.0256   -1.8030   -2.1581 C   0  0  0  0  0  0  0  0  0  0  0  0
   -3.7513   -2.6782   -2.9709 O   0  0  0  0  0  0  0  0  0  0  0  0
   -5.3491   -1.1169   -2.2339 C   0  0  0  0  0  0  0  0  0  0  0  0
   -5.3223   -0.2211   -2.8750 H   0  0  0  0  0  0  0  0  0  0  0  0
   -6.1322   -1.7605   -2.6658 H   0  0  0  0  0  0  0  0  0  0  0  0
   -5.7568   -0.7715   -1.2704 H   0  0  0  0  0  0  0  0  0  0  0  0
   -3.2124   -1.3578   -1.1289 N   0  0  0  0  0  0  0  0  0  0  0  0
   -1.8971   -1.8843   -0.8752 C   0  0  2  0  0  0  0  0  0  0  0  0
   -1.2676   -1.0599    0.2399 C   0  0  0  0  0  0  0  0  0  0  0  0
   -1.6270    0.0833    0.5138 O   0  0  0  0  0  0  0  0  0  0  0  0
   -1.0364   -1.8506   -2.1285 C   0  0  0  0  0  0  0  0  0  0  0  0
   -3.5631   -0.6202   -0.5206 H   0  0  0  0  0  0  0  0  0  0  0  0
   -2.0301   -2.9174   -0.5360 H   0  0  0  0  0  0  0  0  0  0  0  0
   -0.8921   -0.8236   -2.4833 H   0  0  0  0  0  0  0  0  0  0  0  0
   -0.0457   -2.2777   -1.9410 H   0  0  0  0  0  0  0  0  0  0  0  0
   -1.5052   -2.4193   -2.9387 H   0  0  0  0  0  0  0  0  0  0  0  0
   -0.2267   -1.7335    0.8672 N   0  0  0  0  0  0  0  0  0  0  0  0
    0.5363   -1.1590    1.9465 C   0  0  2  0  0  0  0  0  0  0  0  0
   -0.4571   -0.5158    2.9074 C   0  0  0  0  0  0  0  0  0  0  0  0
   -1.6746   -0.5646    2.7448 O   0  0  0  0  0  0  0  0  0  0  0  0
    1.5419   -0.1259    1.4437 C   0  0  0  0  0  0  0  0  0  0  0  0
    2.7218   -0.6650    0.6248 C   0  0  0  0  0  0  0  0  0  0  0  0
    3.0597   -1.8473    0.9231 O   0  5  0  0  0  0  0  0  0  0  0  0
    3.2200    0.1164   -0.2308 O   0  0  0  0  0  0  0  0  0  0  0  0
   -0.0113   -2.6869    0.5854 H   0  0  0  0  0  0  0  0  0  0  0  0
    1.0411   -1.9895    2.4527 H   0  0  0  0  0  0  0  0  0  0  0  0
    1.9508    0.4360    2.2947 H   0  0  0  0  0  0  0  0  0  0  0  0
    1.0312    0.6065    0.8050 H   0  0  0  0  0  0  0  0  0  0  0  0
    0.1746    0.0732    3.9938 N   0  0  0  0  0  0  0  0  0  0  0  0
   -0.5494    0.7224    5.0618 C   0  0  2  0  0  0  0  0  0  0  0  0
    0.3216    1.8478    5.6042 C   0  0  0  0  0  0  0  0  0  0  0  0
    1.5435    1.8734    5.4725 O   0  0  0  0  0  0  0  0  0  0  0  0
   -0.9127   -0.2623    6.1623 C   0  0  0  0  0  0  0  0  0  0  0  0
    1.1863    0.0237    4.0703 H   0  0  0  0  0  0  0  0  0  0  0  0
   -1.4575    1.1443    4.6176 H   0  0  0  0  0  0  0  0  0  0  0  0
   -0.0155   -0.6955    6.6194 H   0  0  0  0  0  0  0  0  0  0  0  0
   -1.4862    0.2253    6.9576 H   0  0  0  0  0  0  0  0  0  0  0  0
   -1.5142   -1.0868    5.7646 H   0  0  0  0  0  0  0  0  0  0  0  0
   -0.4213    2.7985    6.2900 N   0  0  0  0  0  0  0  0  0  0  0  0
    0.1774    3.9580    6.9090 C   0  0  0  0  0  0  0  0  0  0  0  0
   -1.4320    2.7070    6.3332 H   0  0  0  0  0  0  0  0  0  0  0  0
    0.4149    3.7321    7.9591 H   0  0  0  0  0  0  0  0  0  0  0  0
    1.1006    4.2238    6.3734 H   0  0  0  0  0  0  0  0  0  0  0  0
   -0.5274    4.8015    6.8659 H   0  0  0  0  0  0  0  0  0  0  0  0
  1  3  1  0  0  0  0
  1  7  1  0  0  0  0
  1  2  2  0  0  0  0
 30 31  1  0  0  0  0
 31 39  1  0  0  0  0
 31 32  2  0  0  0  0
  8  9  1  0  0  0  0
  9 17  1  0  0  0  0
  9 10  2  0  0  0  0
 18 19  1  0  0  0  0
 19 29  1  0  0  0  0
 19 20  2  0  0  0  0
 21 22  1  0  0  0  0
 22 23  1  0  0  0  0
 22 24  2  0  0  0  0
 30 33  1  0  0  0  0
  8 11  1  0  0  0  0
 39 40  1  0  0  0  0
 18 21  1  0  0  0  0
 29 30  1  0  0  0  0
  7  8  1  0  0  0  0
 17 18  1  0  0  0  0
  3  4  1  0  0  0  0
  3  5  1  0  0  0  0
  3  6  1  0  0  0  0
 33 36  1  0  0  0  0
 33 37  1  0  0  0  0
 33 38  1  0  0  0  0
 11 14  1  0  0  0  0
 11 15  1  0  0  0  0
 11 16  1  0  0  0  0
 40 42  1  0  0  0  0
 40 43  1  0  0  0  0
 40 44  1  0  0  0  0
 21 27  1  0  0  0  0
 21 28  1  0  0  0  0
 30 35  1  0  0  0  0
  8 13  1  0  0  0  0
 18 26  1  0  0  0  0
 39 41  1  0  0  0  0
  7 12  1  0  0  0  0
 29 34  1  0  0  0  0
 17 25  1  0  0  0  0
M  CHG  1  23  -1
M  END
$$$$

  -OEChem-05262214473D

 44 43  0     1  0  0  0  0  0999 V2000
   -4.0256   -1.8030   -2.1581 C   0  0  0  0  0  0  0  0  0  0  0  0
   -3.7513   -2.6782   -2.9709 O   0  0  0  0  0  0  0  0  0  0  0  0
   -5.3491   -1.1169   -2.2339 C   0  0  0  0  0  0  0  0  0  0  0  0
   -5.3223   -0.2211   -2.8750 H   0  0  0  0  0  0  0  0  0  0  0  0
   -6.1322   -1.7605   -2.6658 H   0  0  0  0  0  0  0  0  0  0  0  0
   -5.7568   -0.7715   -1.2704 H   0  0  0  0  0  0  0  0  0  0  0  0
   -3.2124   -1.3578   -1.1289 N   0  0  0  0  0  0  0  0  0  0  0  0
   -1.8971   -1.8843   -0.8752 C   0  0  2  0  0  0  0  0  0  0  0  0
   -1.2676   -1.0599    0.2399 C   0  0  0  0  0  0  0  0  0  0  0  0
   -1.6270    0.0833    0.5138 O   0  0  0  0  0  0  0  0  0  0  0  0
   -1.0364   -1.8506   -2.1285 C   0  0  0  0  0  0  0  0  0  0  0  0
   -3.5631   -0.6202   -0.5206 H   0  0  0  0  0  0  0  0  0  0  0  0
   -2.0301   -2.9174   -0.5360 H   0  0  0  0  0  0  0  0  0  0  0  0
   -0.8921   -0.8236   -2.4833 H   0  0  0  0  0  0  0  0  0  0  0  0
   -0.0457   -2.2777   -1.9410 H   0  0  0  0  0  0  0  0  0  0  0  0
   -1.5052   -2.4193   -2.9387 H   0  0  0  0  0  0  0  0  0  0  0  0
   -0.2267   -1.7335    0.8672 N   0  0  0  0  0  0  0  0  0  0  0  0
    0.5363   -1.1590    1.9465 C   0  0  2  0  0  0  0  0  0  0  0  0
   -0.4571   -0.5158    2.9074 C   0  0  0  0  0  0  0  0  0  0  0  0
   -1.6578   -0.7793    2.9059 O   0  0  0  0  0  0  0  0  0  0  0  0
    1.5419   -0.1259    1.4437 C   0  0  0  0  0  0  0  0  0  0  0  0
    2.7218   -0.6650    0.6248 C   0  0  0  0  0  0  0  0  0  0  0  0
    3.0597   -1.8473    0.9231 O   0  5  0  0  0  0  0  0  0  0  0  0
    3.2200    0.1164   -0.2308 O   0  0  0  0  0  0  0  0  0  0  0  0
   -0.0113   -2.6869    0.5854 H   0  0  0  0  0  0  0  0  0  0  0  0
    1.0411   -1.9895    2.4527 H   0  0  0  0  0  0  0  0  0  0  0  0
    1.9508    0.4360    2.2947 H   0  0  0  0  0  0  0  0  0  0  0  0
    1.0312    0.6065    0.8050 H   0  0  0  0  0  0  0  0  0  0  0  0
    0.1640    0.3469    3.7996 N   0  0  0  0  0  0  0  0  0  0  0  0
   -0.5561    1.0564    4.8314 C   0  0  2  0  0  0  0  0  0  0  0  0
    0.1554    2.3807    5.0757 C   0  0  0  0  0  0  0  0  0  0  0  0
    1.3364    2.5700    4.7921 O   0  0  0  0  0  0  0  0  0  0  0  0
   -0.6376    0.2390    6.1112 C   0  0  0  0  0  0  0  0  0  0  0  0
    1.1717    0.4680    3.7578 H   0  0  0  0  0  0  0  0  0  0  0  0
   -1.5614    1.2479    4.4408 H   0  0  0  0  0  0  0  0  0  0  0  0
    0.3602    0.0371    6.5174 H   0  0  0  0  0  0  0  0  0  0  0  0
   -1.2082    0.7661    6.8829 H   0  0  0  0  0  0  0  0  0  0  0  0
   -1.1229   -0.7256    5.9273 H   0  0  0  0  0  0  0  0  0  0  0  0
   -0.6718    3.3124    5.6872 N   0  0  0  0  0  0  0  0  0  0  0  0
   -0.2259    4.6414    6.0347 C   0  0  0  0  0  0  0  0  0  0  0  0
   -1.6427    3.0756    5.8686 H   0  0  0  0  0  0  0  0  0  0  0  0
    0.1459    4.6451    7.0699 H   0  0  0  0  0  0  0  0  0  0  0  0
    0.5824    4.9466    5.3539 H   0  0  0  0  0  0  0  0  0  0  0  0
   -1.0664    5.3453    5.9447 H   0  0  0  0  0  0  0  0  0  0  0  0
  1  3  1  0  0  0  0
  1  7  1  0  0  0  0
  1  2  2  0  0  0  0
 30 31  1  0  0  0  0
 31 39  1  0  0  0  0
 31 32  2  0  0  0  0
  8  9  1  0  0  0  0
  9 17  1  0  0  0  0
  9 10  2  0  0  0  0
 18 19  1  0  0  0  0
 19 29  1  0  0  0  0
 19 20  2  0  0  0  0
 21 22  1  0  0  0  0
 22 23  1  0  0  0  0
 22 24  2  0  0  0  0
 30 33  1  0  0  0  0
  8 11  1  0  0  0  0
 39 40  1  0  0  0  0
 18 21  1  0  0  0  0
 29 30  1  0  0  0  0
  7  8  1  0  0  0  0
 17 18  1  0  0  0  0
  3  4  1  0  0  0  0
  3  5  1  0  0  0  0
  3  6  1  0  0  0  0
 33 36  1  0  0  0  0
 33 37  1  0  0  0  0
 33 38  1  0  0  0  0
 11 14  1  0  0  0  0
 11 15  1  0  0  0  0
 11 16  1  0  0  0  0
 40 42  1  0  0  0  0
 40 43  1  0  0  0  0
 40 44  1  0  0  0  0
 21 27  1  0  0  0  0
 21 28  1  0  0  0  0
 30 35  1  0  0  0  0
  8 13  1  0  0  0  0
 18 26  1  0  0  0  0
 39 41  1  0  0  0  0
  7 12  1  0  0  0  0
 29 34  1  0  0  0  0
 17 25  1  0  0  0  0
M  CHG  1  23  -1
M  END
$$$$

  -OEChem-05262214473D

 44 43  0     1  0  0  0  0  0999 V2000
   -4.0256   -1.8030   -2.1581 C   0  0  0  0  0  0  0  0  0  0  0  0
   -3.7513   -2.6782   -2.9709 O   0  0  0  0  0  0  0  0  0  0  0  0
   -5.3491   -1.1169   -2.2339 C   0  0  0  0  0  0  0  0  0  0  0  0
   -5.3223   -0.2211   -2.8750 H   0  0  0  0  0  0  0  0  0  0  0  0
   -6.1322   -1.7605   -2.6658 H   0  0  0  0  0  0  0  0  0  0  0  0
   -5.7568   -0.7715   -1.2704 H   0  0  0  0  0  0  0  0  0  0  0  0
   -3.2124   -1.3578   -1.1289 N   0  0  0  0  0  0  0  0  0  0  0  0
   -1.8971   -1.8843   -0.8752 C   0  0  2  0  0  0  0  0  0  0  0  0
   -1.2676   -1.0599    0.2399 C   0  0  0  0  0  0  0  0  0  0  0  0
   -1.6270    0.0833    0.5138 O   0  0  0  0  0  0  0  0  0  0  0  0
   -1.0364   -1.8506   -2.1285 C   0  0  0  0  0  0  0  0  0  0  0  0
   -3.5631   -0.6202   -0.5206 H   0  0  0  0  0  0  0  0  0  0  0  0
   -2.0301   -2.9174   -0.5360 H   0  0  0  0  0  0  0  0  0  0  0  0
   -0.8921   -0.8236   -2.4833 H   0  0  0  0  0  0  0  0  0  0  0  0
   -0.0457   -2.2777   -1.9410 H   0  0  0  0  0  0  0  0  0  0  0  0
   -1.5052   -2.4193   -2.9387 H   0  0  0  0  0  0  0  0  0  0  0  0
   -0.2267   -1.7335    0.8672 N   0  0  0  0  0  0  0  0  0  0  0  0
    0.5363   -1.1590    1.9465 C   0  0  2  0  0  0  0  0  0  0  0  0
   -0.4571   -0.5158    2.9074 C   0  0  0  0  0  0  0  0  0  0  0  0
   -1.5890   -0.9568    3.0960 O   0  0  0  0  0  0  0  0  0  0  0  0
    1.5419   -0.1259    1.4437 C   0  0  0  0  0  0  0  0  0  0  0  0
    2.7218   -0.6650    0.6248 C   0  0  0  0  0  0  0  0  0  0  0  0
    3.0597   -1.8473    0.9231 O   0  5  0  0  0  0  0  0  0  0  0  0
    3.2200    0.1164   -0.2308 O   0  0  0  0  0  0  0  0  0  0  0  0
   -0.0113   -2.6869    0.5854 H   0  0  0  0  0  0  0  0  0  0  0  0
    1.0411   -1.9895    2.4527 H   0  0  0  0  0  0  0  0  0  0  0  0
    1.9508    0.4360    2.2947 H   0  0  0  0  0  0  0  0  0  0  0  0
    1.0312    0.6065    0.8050 H   0  0  0  0  0  0  0  0  0  0  0  0
    0.0880    0.5769    3.5671 N   0  0  0  0  0  0  0  0  0  0  0  0
   -0.6422    1.3391    4.5531 C   0  0  2  0  0  0  0  0  0  0  0  0
   -0.1499    2.7791    4.4934 C   0  0  0  0  0  0  0  0  0  0  0  0
    0.9483    3.0943    4.0399 O   0  0  0  0  0  0  0  0  0  0  0  0
   -0.4593    0.7595    5.9471 C   0  0  0  0  0  0  0  0  0  0  0  0
    1.0510    0.8420    3.3827 H   0  0  0  0  0  0  0  0  0  0  0  0
   -1.6981    1.3012    4.2638 H   0  0  0  0  0  0  0  0  0  0  0  0
    0.5925    0.7889    6.2543 H   0  0  0  0  0  0  0  0  0  0  0  0
   -1.0362    1.3212    6.6892 H   0  0  0  0  0  0  0  0  0  0  0  0
   -0.7862   -0.2854    5.9808 H   0  0  0  0  0  0  0  0  0  0  0  0
   -1.0633    3.6662    5.0456 N   0  0  0  0  0  0  0  0  0  0  0  0
   -0.8224    5.0883    5.1189 C   0  0  0  0  0  0  0  0  0  0  0  0
   -1.9571    3.3190    5.3807 H   0  0  0  0  0  0  0  0  0  0  0  0
   -0.3599    5.3330    6.0865 H   0  0  0  0  0  0  0  0  0  0  0  0
   -0.1474    5.3883    4.3038 H   0  0  0  0  0  0  0  0  0  0  0  0
   -1.7764    5.6272    5.0219 H   0  0  0  0  0  0  0  0  0  0  0  0
  1  3  1  0  0  0  0
  1  7  1  0  0  0  0
  1  2  2  0  0  0  0
 30 31  1  0  0  0  0
 31 39  1  0  0  0  0
 31 32  2  0  0  0  0
  8  9  1  0  0  0  0
  9 17  1  0  0  0  0
  9 10  2  0  0  0  0
 18 19  1  0  0  0  0
 19 29  1  0  0  0  0
 19 20  2  0  0  0  0
 21 22  1  0  0  0  0
 22 23  1  0  0  0  0
 22 24  2  0  0  0  0
 30 33  1  0  0  0  0
  8 11  1  0  0  0  0
 39 40  1  0  0  0  0
 18 21  1  0  0  0  0
 29 30  1  0  0  0  0
  7  8  1  0  0  0  0
 17 18  1  0  0  0  0
  3  4  1  0  0  0  0
  3  5  1  0  0  0  0
  3  6  1  0  0  0  0
 33 36  1  0  0  0  0
 33 37  1  0  0  0  0
 33 38  1  0  0  0  0
 11 14  1  0  0  0  0
 11 15  1  0  0  0  0
 11 16  1  0  0  0  0
 40 42  1  0  0  0  0
 40 43  1  0  0  0  0
 40 44  1  0  0  0  0
 21 27  1  0  0  0  0
 21 28  1  0  0  0  0
 30 35  1  0  0  0  0
  8 13  1  0  0  0  0
 18 26  1  0  0  0  0
 39 41  1  0  0  0  0
  7 12  1  0  0  0  0
 29 34  1  0  0  0  0
 17 25  1  0  0  0  0
M  CHG  1  23  -1
M  END
$$$$

  -OEChem-05262214473D

 44 43  0     1  0  0  0  0  0999 V2000
   -4.0256   -1.8030   -2.1581 C   0  0  0  0  0  0  0  0  0  0  0  0
   -3.7513   -2.6782   -2.9709 O   0  0  0  0  0  0  0  0  0  0  0  0
   -5.3491   -1.1169   -2.2339 C   0  0  0  0  0  0  0  0  0  0  0  0
   -5.3223   -0.2211   -2.8750 H   0  0  0  0  0  0  0  0  0  0  0  0
   -6.1322   -1.7605   -2.6658 H   0  0  0  0  0  0  0  0  0  0  0  0
   -5.7568   -0.7715   -1.2704 H   0  0  0  0  0  0  0  0  0  0  0  0
   -3.2124   -1.3578   -1.1289 N   0  0  0  0  0  0  0  0  0  0  0  0
   -1.8971   -1.8843   -0.8752 C   0  0  2  0  0  0  0  0  0  0  0  0
   -1.2676   -1.0599    0.2399 C   0  0  0  0  0  0  0  0  0  0  0  0
   -1.6270    0.0833    0.5138 O   0  0  0  0  0  0  0  0  0  0  0  0
   -1.0364   -1.8506   -2.1285 C   0  0  0  0  0  0  0  0  0  0  0  0
   -3.5631   -0.6202   -0.5206 H   0  0  0  0  0  0  0  0  0  0  0  0
   -2.0301   -2.9174   -0.5360 H   0  0  0  0  0  0  0  0  0  0  0  0
   -0.8921   -0.8236   -2.4833 H   0  0  0  0  0  0  0  0  0  0  0  0
   -0.0457   -2.2777   -1.9410 H   0  0  0  0  0  0  0  0  0  0  0  0
   -1.5052   -2.4193   -2.9387 H   0  0  0  0  0  0  0  0  0  0  0  0
   -0.2267   -1.7335    0.8672 N   0  0  0  0  0  0  0  0  0  0  0  0
    0.5363   -1.1590    1.9465 C   0  0  2  0  0  0  0  0  0  0  0  0
   -0.4571   -0.5158    2.9074 C   0  0  0  0  0  0  0  0  0  0  0  0
   -1.4727   -1.0850    3.3019 O   0  0  0  0  0  0  0  0  0  0  0  0
    1.5419   -0.1259    1.4437 C   0  0  0  0  0  0  0  0  0  0  0  0
    2.7218   -0.6650    0.6248 C   0  0  0  0  0  0  0  0  0  0  0  0
    3.0597   -1.8473    0.9231 O   0  5  0  0  0  0  0  0  0  0  0  0
    3.2200    0.1164   -0.2308 O   0  0  0  0  0  0  0  0  0  0  0  0
   -0.0113   -2.6869    0.5854 H   0  0  0  0  0  0  0  0  0  0  0  0
    1.0411   -1.9895    2.4527 H   0  0  0  0  0  0  0  0  0  0  0  0
    1.9508    0.4360    2.2947 H   0  0  0  0  0  0  0  0  0  0  0  0
    1.0312    0.6065    0.8050 H   0  0  0  0  0  0  0  0  0  0  0  0
   -0.0484    0.7473    3.3120 N   0  0  0  0  0  0  0  0  0  0  0  0
   -0.8018    1.5512    4.2461 C   0  0  2  0  0  0  0  0  0  0  0  0
   -0.5733    3.0159    3.8971 C   0  0  0  0  0  0  0  0  0  0  0  0
    0.4058    3.4106    3.2674 O   0  0  0  0  0  0  0  0  0  0  0  0
   -0.3898    1.2637    5.6815 C   0  0  0  0  0  0  0  0  0  0  0  0
    0.8325    1.1204    2.9704 H   0  0  0  0  0  0  0  0  0  0  0  0
   -1.8580    1.3005    4.0989 H   0  0  0  0  0  0  0  0  0  0  0  0
    0.6655    1.5086    5.8481 H   0  0  0  0  0  0  0  0  0  0  0  0
   -0.9817    1.8528    6.3897 H   0  0  0  0  0  0  0  0  0  0  0  0
   -0.5269    0.2037    5.9214 H   0  0  0  0  0  0  0  0  0  0  0  0
   -1.5693    3.8358    4.4089 N   0  0  0  0  0  0  0  0  0  0  0  0
   -1.5714    5.2683    4.2241 C   0  0  0  0  0  0  0  0  0  0  0  0
   -2.3538    3.4205    4.9027 H   0  0  0  0  0  0  0  0  0  0  0  0
   -1.0681    5.7492    5.0758 H   0  0  0  0  0  0  0  0  0  0  0  0
   -1.0390    5.5187    3.2947 H   0  0  0  0  0  0  0  0  0  0  0  0
   -2.6090    5.6281    4.1606 H   0  0  0  0  0  0  0  0  0  0  0  0
  1  3  1  0  0  0  0
  1  7  1  0  0  0  0
  1  2  2  0  0  0  0
 30 31  1  0  0  0  0
 31 39  1  0  0  0  0
 31 32  2  0  0  0  0
  8  9  1  0  0  0  0
  9 17  1  0  0  0  0
  9 10  2  0  0  0  0
 18 19  1  0  0  0  0
 19 29  1  0  0  0  0
 19 20  2  0  0  0  0
 21 22  1  0  0  0  0
 22 23  1  0  0  0  0
 22 24  2  0  0  0  0
 30 33  1  0  0  0  0
  8 11  1  0  0  0  0
 39 40  1  0  0  0  0
 18 21  1  0  0  0  0
 29 30  1  0  0  0  0
  7  8  1  0  0  0  0
 17 18  1  0  0  0  0
  3  4  1  0  0  0  0
  3  5  1  0  0  0  0
  3  6  1  0  0  0  0
 33 36  1  0  0  0  0
 33 37  1  0  0  0  0
 33 38  1  0  0  0  0
 11 14  1  0  0  0  0
 11 15  1  0  0  0  0
 11 16  1  0  0  0  0
 40 42  1  0  0  0  0
 40 43  1  0  0  0  0
 40 44  1  0  0  0  0
 21 27  1  0  0  0  0
 21 28  1  0  0  0  0
 30 35  1  0  0  0  0
  8 13  1  0  0  0  0
 18 26  1  0  0  0  0
 39 41  1  0  0  0  0
  7 12  1  0  0  0  0
 29 34  1  0  0  0  0
 17 25  1  0  0  0  0
M  CHG  1  23  -1
M  END
$$$$

  -OEChem-05262214473D

 44 43  0     1  0  0  0  0  0999 V2000
   -4.0256   -1.8030   -2.1581 C   0  0  0  0  0  0  0  0  0  0  0  0
   -3.7513   -2.6782   -2.9709 O   0  0  0  0  0  0  0  0  0  0  0  0
   -5.3491   -1.1169   -2.2339 C   0  0  0  0  0  0  0  0  0  0  0  0
   -5.3223   -0.2211   -2.8750 H   0  0  0  0  0  0  0  0  0  0  0  0
   -6.1322   -1.7605   -2.6658 H   0  0  0  0  0  0  0  0  0  0  0  0
   -5.7568   -0.7715   -1.2704 H   0  0  0  0  0  0  0  0  0  0  0  0
   -3.2124   -1.3578   -1.1289 N   0  0  0  0  0  0  0  0  0  0  0  0
   -1.8971   -1.8843   -0.8752 C   0  0  2  0  0  0  0  0  0  0  0  0
   -1.2676   -1.0599    0.2399 C   0  0  0  0  0  0  0  0  0  0  0  0
   -1.6270    0.0833    0.5138 O   0  0  0  0  0  0  0  0  0  0  0  0
   -1.0364   -1.8506   -2.1285 C   0  0  0  0  0  0  0  0  0  0  0  0
   -3.5631   -0.6202   -0.5206 H   0  0  0  0  0  0  0  0  0  0  0  0
   -2.0301   -2.9174   -0.5360 H   0  0  0  0  0  0  0  0  0  0  0  0
   -0.8921   -0.8236   -2.4833 H   0  0  0  0  0  0  0  0  0  0  0  0
   -0.0457   -2.2777   -1.9410 H   0  0  0  0  0  0  0  0  0  0  0  0
   -1.5052   -2.4193   -2.9387 H   0  0  0  0  0  0  0  0  0  0  0  0
   -0.2267   -1.7335    0.8672 N   0  0  0  0  0  0  0  0  0  0  0  0
    0.5363   -1.1590    1.9465 C   0  0  2  0  0  0  0  0  0  0  0  0
   -0.4571   -0.5158    2.9074 C   0  0  0  0  0  0  0  0  0  0  0  0
   -1.3171   -1.1552    3.5098 O   0  0  0  0  0  0  0  0  0  0  0  0
    1.5419   -0.1259    1.4437 C   0  0  0  0  0  0  0  0  0  0  0  0
    2.7218   -0.6650    0.6248 C   0  0  0  0  0  0  0  0  0  0  0  0
    3.0597   -1.8473    0.9231 O   0  5  0  0  0  0  0  0  0  0  0  0
    3.2200    0.1164   -0.2308 O   0  0  0  0  0  0  0  0  0  0  0  0
   -0.0113   -2.6869    0.5854 H   0  0  0  0  0  0  0  0  0  0  0  0
    1.0411   -1.9895    2.4527 H   0  0  0  0  0  0  0  0  0  0  0  0
    1.9508    0.4360    2.2947 H   0  0  0  0  0  0  0  0  0  0  0  0
    1.0312    0.6065    0.8050 H   0  0  0  0  0  0  0  0  0  0  0  0
   -0.2358    0.8467    3.0517 N   0  0  0  0  0  0  0  0  0  0  0  0
   -1.0242    1.6782    3.9312 C   0  0  2  0  0  0  0  0  0  0  0  0
   -1.0861    3.0750    3.3275 C   0  0  0  0  0  0  0  0  0  0  0  0
   -0.2542    3.4973    2.5270 O   0  0  0  0  0  0  0  0  0  0  0  0
   -0.4340    1.7172    5.3322 C   0  0  0  0  0  0  0  0  0  0  0  0
    0.5309    1.2841    2.5491 H   0  0  0  0  0  0  0  0  0  0  0  0
   -2.0305    1.2460    3.9571 H   0  0  0  0  0  0  0  0  0  0  0  0
    0.5742    2.1472    5.3263 H   0  0  0  0  0  0  0  0  0  0  0  0
   -1.0485    2.3247    6.0048 H   0  0  0  0  0  0  0  0  0  0  0  0
   -0.3627    0.7085    5.7533 H   0  0  0  0  0  0  0  0  0  0  0  0
   -2.1552    3.8098    3.8206 N   0  0  0  0  0  0  0  0  0  0  0  0
   -2.4221    5.1689    3.4112 C   0  0  0  0  0  0  0  0  0  0  0  0
   -2.8057    3.3732    4.4672 H   0  0  0  0  0  0  0  0  0  0  0  0
   -1.9305    5.8651    4.1067 H   0  0  0  0  0  0  0  0  0  0  0  0
   -2.0318    5.3290    2.3953 H   0  0  0  0  0  0  0  0  0  0  0  0
   -3.5074    5.3478    3.4195 H   0  0  0  0  0  0  0  0  0  0  0  0
  1  3  1  0  0  0  0
  1  7  1  0  0  0  0
  1  2  2  0  0  0  0
 30 31  1  0  0  0  0
 31 39  1  0  0  0  0
 31 32  2  0  0  0  0
  8  9  1  0  0  0  0
  9 17  1  0  0  0  0
  9 10  2  0  0  0  0
 18 19  1  0  0  0  0
 19 29  1  0  0  0  0
 19 20  2  0  0  0  0
 21 22  1  0  0  0  0
 22 23  1  0  0  0  0
 22 24  2  0  0  0  0
 30 33  1  0  0  0  0
  8 11  1  0  0  0  0
 39 40  1  0  0  0  0
 18 21  1  0  0  0  0
 29 30  1  0  0  0  0
  7  8  1  0  0  0  0
 17 18  1  0  0  0  0
  3  4  1  0  0  0  0
  3  5  1  0  0  0  0
  3  6  1  0  0  0  0
 33 36  1  0  0  0  0
 33 37  1  0  0  0  0
 33 38  1  0  0  0  0
 11 14  1  0  0  0  0
 11 15  1  0  0  0  0
 11 16  1  0  0  0  0
 40 42  1  0  0  0  0
 40 43  1  0  0  0  0
 40 44  1  0  0  0  0
 21 27  1  0  0  0  0
 21 28  1  0  0  0  0
 30 35  1  0  0  0  0
  8 13  1  0  0  0  0
 18 26  1  0  0  0  0
 39 41  1  0  0  0  0
  7 12  1  0  0  0  0
 29 34  1  0  0  0  0
 17 25  1  0  0  0  0
M  CHG  1  23  -1
M  END
$$$$

  -OEChem-05262214473D

 44 43  0     1  0  0  0  0  0999 V2000
   -4.0256   -1.8030   -2.1581 C   0  0  0  0  0  0  0  0  0  0  0  0
   -3.7513   -2.6782   -2.9709 O   0  0  0  0  0  0  0  0  0  0  0  0
   -5.3491   -1.1169   -2.2339 C   0  0  0  0  0  0  0  0  0  0  0  0
   -5.3223   -0.2211   -2.8750 H   0  0  0  0  0  0  0  0  0  0  0  0
   -6.1322   -1.7605   -2.6658 H   0  0  0  0  0  0  0  0  0  0  0  0
   -5.7568   -0.7715   -1.2704 H   0  0  0  0  0  0  0  0  0  0  0  0
   -3.2124   -1.3578   -1.1289 N   0  0  0  0  0  0  0  0  0  0  0  0
   -1.8971   -1.8843   -0.8752 C   0  0  2  0  0  0  0  0  0  0  0  0
   -1.2676   -1.0599    0.2399 C   0  0  0  0  0  0  0  0  0  0  0  0
   -1.6270    0.0833    0.5138 O   0  0  0  0  0  0  0  0  0  0  0  0
   -1.0364   -1.8506   -2.1285 C   0  0  0  0  0  0  0  0  0  0  0  0
   -3.5631   -0.6202   -0.5206 H   0  0  0  0  0  0  0  0  0  0  0  0
   -2.0301   -2.9174   -0.5360 H   0  0  0  0  0  0  0  0  0  0  0  0
   -0.8921   -0.8236   -2.4833 H   0  0  0  0  0  0  0  0  0  0  0  0
   -0.0457   -2.2777   -1.9410 H   0  0  0  0  0  0  0  0  0  0  0  0
   -1.5052   -2.4193   -2.9387 H   0  0  0  0  0  0  0  0  0  0  0  0
   -0.2267   -1.7335    0.8672 N   0  0  0  0  0  0  0  0  0  0  0  0
    0.5363   -1.1590    1.9465 C   0  0  2  0  0  0  0  0  0  0  0  0
   -0.4571   -0.5158    2.9074 C   0  0  0  0  0  0  0  0  0  0  0  0
   -1.1326   -1.1624    3.7054 O   0  0  0  0  0  0  0  0  0  0  0  0
    1.5419   -0.1259    1.4437 C   0  0  0  0  0  0  0  0  0  0  0  0
    2.7218   -0.6650    0.6248 C   0  0  0  0  0  0  0  0  0  0  0  0
    3.0597   -1.8473    0.9231 O   0  5  0  0  0  0  0  0  0  0  0  0
    3.2200    0.1164   -0.2308 O   0  0  0  0  0  0  0  0  0  0  0  0
   -0.0113   -2.6869    0.5854 H   0  0  0  0  0  0  0  0  0  0  0  0
    1.0411   -1.9895    2.4527 H   0  0  0  0  0  0  0  0  0  0  0  0
    1.9508    0.4360    2.2947 H   0  0  0  0  0  0  0  0  0  0  0  0
    1.0312    0.6065    0.8050 H   0  0  0  0  0  0  0  0  0  0  0  0
   -0.4614    0.8682    2.8041 N   0  0  0  0  0  0  0  0  0  0  0  0
   -1.2941    1.7115    3.6299 C   0  0  2  0  0  0  0  0  0  0  0  0
   -1.6532    2.9524    2.8232 C   0  0  0  0  0  0  0  0  0  0  0  0
   -0.9867    3.3485    1.8693 O   0  0  0  0  0  0  0  0  0  0  0  0
   -0.5888    2.0891    4.9232 C   0  0  0  0  0  0  0  0  0  0  0  0
    0.1669    1.3219    2.1475 H   0  0  0  0  0  0  0  0  0  0  0  0
   -2.2036    1.1413    3.8482 H   0  0  0  0  0  0  0  0  0  0  0  0
    0.3249    2.6611    4.7245 H   0  0  0  0  0  0  0  0  0  0  0  0
   -1.2320    2.7047    5.5607 H   0  0  0  0  0  0  0  0  0  0  0  0
   -0.3048    1.1945    5.4878 H   0  0  0  0  0  0  0  0  0  0  0  0
   -2.7812    3.5898    3.3207 N   0  0  0  0  0  0  0  0  0  0  0  0
   -3.3163    4.7971    2.7357 C   0  0  0  0  0  0  0  0  0  0  0  0
   -3.2821    3.1803    4.1038 H   0  0  0  0  0  0  0  0  0  0  0  0
   -2.8882    5.6730    3.2452 H   0  0  0  0  0  0  0  0  0  0  0  0
   -3.0580    4.8322    1.6670 H   0  0  0  0  0  0  0  0  0  0  0  0
   -4.4104    4.8056    2.8489 H   0  0  0  0  0  0  0  0  0  0  0  0
  1  3  1  0  0  0  0
  1  7  1  0  0  0  0
  1  2  2  0  0  0  0
 30 31  1  0  0  0  0
 31 39  1  0  0  0  0
 31 32  2  0  0  0  0
  8  9  1  0  0  0  0
  9 17  1  0  0  0  0
  9 10  2  0  0  0  0
 18 19  1  0  0  0  0
 19 29  1  0  0  0  0
 19 20  2  0  0  0  0
 21 22  1  0  0  0  0
 22 23  1  0  0  0  0
 22 24  2  0  0  0  0
 30 33  1  0  0  0  0
  8 11  1  0  0  0  0
 39 40  1  0  0  0  0
 18 21  1  0  0  0  0
 29 30  1  0  0  0  0
  7  8  1  0  0  0  0
 17 18  1  0  0  0  0
  3  4  1  0  0  0  0
  3  5  1  0  0  0  0
  3  6  1  0  0  0  0
 33 36  1  0  0  0  0
 33 37  1  0  0  0  0
 33 38  1  0  0  0  0
 11 14  1  0  0  0  0
 11 15  1  0  0  0  0
 11 16  1  0  0  0  0
 40 42  1  0  0  0  0
 40 43  1  0  0  0  0
 40 44  1  0  0  0  0
 21 27  1  0  0  0  0
 21 28  1  0  0  0  0
 30 35  1  0  0  0  0
  8 13  1  0  0  0  0
 18 26  1  0  0  0  0
 39 41  1  0  0  0  0
  7 12  1  0  0  0  0
 29 34  1  0  0  0  0
 17 25  1  0  0  0  0
M  CHG  1  23  -1
M  END
$$$$

  -OEChem-05262214473D

 44 43  0     1  0  0  0  0  0999 V2000
   -4.0256   -1.8030   -2.1581 C   0  0  0  0  0  0  0  0  0  0  0  0
   -3.7513   -2.6782   -2.9709 O   0  0  0  0  0  0  0  0  0  0  0  0
   -5.3491   -1.1169   -2.2339 C   0  0  0  0  0  0  0  0  0  0  0  0
   -5.3223   -0.2211   -2.8750 H   0  0  0  0  0  0  0  0  0  0  0  0
   -6.1322   -1.7605   -2.6658 H   0  0  0  0  0  0  0  0  0  0  0  0
   -5.7568   -0.7715   -1.2704 H   0  0  0  0  0  0  0  0  0  0  0  0
   -3.2124   -1.3578   -1.1289 N   0  0  0  0  0  0  0  0  0  0  0  0
   -1.8971   -1.8843   -0.8752 C   0  0  2  0  0  0  0  0  0  0  0  0
   -1.2676   -1.0599    0.2399 C   0  0  0  0  0  0  0  0  0  0  0  0
   -1.6270    0.0833    0.5138 O   0  0  0  0  0  0  0  0  0  0  0  0
   -1.0364   -1.8506   -2.1285 C   0  0  0  0  0  0  0  0  0  0  0  0
   -3.5631   -0.6202   -0.5206 H   0  0  0  0  0  0  0  0  0  0  0  0
   -2.0301   -2.9174   -0.5360 H   0  0  0  0  0  0  0  0  0  0  0  0
   -0.8921   -0.8236   -2.4833 H   0  0  0  0  0  0  0  0  0  0  0  0
   -0.0457   -2.2777   -1.9410 H   0  0  0  0  0  0  0  0  0  0  0  0
   -1.5052   -2.4193   -2.9387 H   0  0  0  0  0  0  0  0  0  0  0  0
   -0.2267   -1.7335    0.8672 N   0  0  0  0  0  0  0  0  0  0  0  0
    0.5363   -1.1590    1.9465 C   0  0  2  0  0  0  0  0  0  0  0  0
   -0.4571   -0.5158    2.9074 C   0  0  0  0  0  0  0  0  0  0  0  0
   -0.9318   -1.1064    3.8754 O   0  0  0  0  0  0  0  0  0  0  0  0
    1.5419   -0.1259    1.4437 C   0  0  0  0  0  0  0  0  0  0  0  0
    2.7218   -0.6650    0.6248 C   0  0  0  0  0  0  0  0  0  0  0  0
    3.0597   -1.8473    0.9231 O   0  5  0  0  0  0  0  0  0  0  0  0
    3.2200    0.1164   -0.2308 O   0  0  0  0  0  0  0  0  0  0  0  0
   -0.0113   -2.6869    0.5854 H   0  0  0  0  0  0  0  0  0  0  0  0
    1.0411   -1.9895    2.4527 H   0  0  0  0  0  0  0  0  0  0  0  0
    1.9508    0.4360    2.2947 H   0  0  0  0  0  0  0  0  0  0  0  0
    1.0312    0.6065    0.8050 H   0  0  0  0  0  0  0  0  0  0  0  0
   -0.7100    0.8104    2.5858 N   0  0  0  0  0  0  0  0  0  0  0  0
   -1.5931    1.6488    3.3627 C   0  0  2  0  0  0  0  0  0  0  0  0
   -2.2361    2.6564    2.4188 C   0  0  0  0  0  0  0  0  0  0  0  0
   -1.7418    2.9743    1.3392 O   0  0  0  0  0  0  0  0  0  0  0  0
   -0.8437    2.3542    4.4823 C   0  0  0  0  0  0  0  0  0  0  0  0
   -0.2347    1.2313    1.7929 H   0  0  0  0  0  0  0  0  0  0  0  0
   -2.3657    0.9935    3.7796 H   0  0  0  0  0  0  0  0  0  0  0  0
   -0.0655    3.0153    4.0838 H   0  0  0  0  0  0  0  0  0  0  0  0
   -1.5198    2.9669    5.0877 H   0  0  0  0  0  0  0  0  0  0  0  0
   -0.3572    1.6286    5.1431 H   0  0  0  0  0  0  0  0  0  0  0  0
   -3.4046    3.1909    2.9433 N   0  0  0  0  0  0  0  0  0  0  0  0
   -4.1931    4.1781    2.2435 C   0  0  0  0  0  0  0  0  0  0  0  0
   -3.7504    2.8550    3.8374 H   0  0  0  0  0  0  0  0  0  0  0  0
   -3.8760    5.1858    2.5500 H   0  0  0  0  0  0  0  0  0  0  0  0
   -4.0477    4.0620    1.1594 H   0  0  0  0  0  0  0  0  0  0  0  0
   -5.2564    4.0382    2.4879 H   0  0  0  0  0  0  0  0  0  0  0  0
  1  3  1  0  0  0  0
  1  7  1  0  0  0  0
  1  2  2  0  0  0  0
 30 31  1  0  0  0  0
 31 39  1  0  0  0  0
 31 32  2  0  0  0  0
  8  9  1  0  0  0  0
  9 17  1  0  0  0  0
  9 10  2  0  0  0  0
 18 19  1  0  0  0  0
 19 29  1  0  0  0  0
 19 20  2  0  0  0  0
 21 22  1  0  0  0  0
 22 23  1  0  0  0  0
 22 24  2  0  0  0  0
 30 33  1  0  0  0  0
  8 11  1  0  0  0  0
 39 40  1  0  0  0  0
 18 21  1  0  0  0  0
 29 30  1  0  0  0  0
  7  8  1  0  0  0  0
 17 18  1  0  0  0  0
  3  4  1  0  0  0  0
  3  5  1  0  0  0  0
  3  6  1  0  0  0  0
 33 36  1  0  0  0  0
 33 37  1  0  0  0  0
 33 38  1  0  0  0  0
 11 14  1  0  0  0  0
 11 15  1  0  0  0  0
 11 16  1  0  0  0  0
 40 42  1  0  0  0  0
 40 43  1  0  0  0  0
 40 44  1  0  0  0  0
 21 27  1  0  0  0  0
 21 28  1  0  0  0  0
 30 35  1  0  0  0  0
  8 13  1  0  0  0  0
 18 26  1  0  0  0  0
 39 41  1  0  0  0  0
  7 12  1  0  0  0  0
 29 34  1  0  0  0  0
 17 25  1  0  0  0  0
M  CHG  1  23  -1
M  END
$$$$

  -OEChem-05262214473D

 44 43  0     1  0  0  0  0  0999 V2000
   -4.0256   -1.8030   -2.1581 C   0  0  0  0  0  0  0  0  0  0  0  0
   -3.7513   -2.6782   -2.9709 O   0  0  0  0  0  0  0  0  0  0  0  0
   -5.3491   -1.1169   -2.2339 C   0  0  0  0  0  0  0  0  0  0  0  0
   -5.3223   -0.2211   -2.8750 H   0  0  0  0  0  0  0  0  0  0  0  0
   -6.1322   -1.7605   -2.6658 H   0  0  0  0  0  0  0  0  0  0  0  0
   -5.7568   -0.7715   -1.2704 H   0  0  0  0  0  0  0  0  0  0  0  0
   -3.2124   -1.3578   -1.1289 N   0  0  0  0  0  0  0  0  0  0  0  0
   -1.8971   -1.8843   -0.8752 C   0  0  2  0  0  0  0  0  0  0  0  0
   -1.2676   -1.0599    0.2399 C   0  0  0  0  0  0  0  0  0  0  0  0
   -1.6270    0.0833    0.5138 O   0  0  0  0  0  0  0  0  0  0  0  0
   -1.0364   -1.8506   -2.1285 C   0  0  0  0  0  0  0  0  0  0  0  0
   -3.5631   -0.6202   -0.5206 H   0  0  0  0  0  0  0  0  0  0  0  0
   -2.0301   -2.9174   -0.5360 H   0  0  0  0  0  0  0  0  0  0  0  0
   -0.8921   -0.8236   -2.4833 H   0  0  0  0  0  0  0  0  0  0  0  0
   -0.0457   -2.2777   -1.9410 H   0  0  0  0  0  0  0  0  0  0  0  0
   -1.5052   -2.4193   -2.9387 H   0  0  0  0  0  0  0  0  0  0  0  0
   -0.2267   -1.7335    0.8672 N   0  0  0  0  0  0  0  0  0  0  0  0
    0.5363   -1.1590    1.9465 C   0  0  2  0  0  0  0  0  0  0  0  0
   -0.4571   -0.5158    2.9074 C   0  0  0  0  0  0  0  0  0  0  0  0
   -0.7285   -0.9908    4.0083 O   0  0  0  0  0  0  0  0  0  0  0  0
    1.5419   -0.1259    1.4437 C   0  0  0  0  0  0  0  0  0  0  0  0
    2.7218   -0.6650    0.6248 C   0  0  0  0  0  0  0  0  0  0  0  0
    3.0597   -1.8473    0.9231 O   0  5  0  0  0  0  0  0  0  0  0  0
    3.2200    0.1164   -0.2308 O   0  0  0  0  0  0  0  0  0  0  0  0
   -0.0113   -2.6869    0.5854 H   0  0  0  0  0  0  0  0  0  0  0  0
    1.0411   -1.9895    2.4527 H   0  0  0  0  0  0  0  0  0  0  0  0
    1.9508    0.4360    2.2947 H   0  0  0  0  0  0  0  0  0  0  0  0
    1.0312    0.6065    0.8050 H   0  0  0  0  0  0  0  0  0  0  0  0
   -0.9644    0.6772    2.4119 N   0  0  0  0  0  0  0  0  0  0  0  0
   -1.9009    1.4944    3.1478 C   0  0  2  0  0  0  0  0  0  0  0  0
   -2.7950    2.2071    2.1418 C   0  0  0  0  0  0  0  0  0  0  0  0
   -2.4680    2.4003    0.9726 O   0  0  0  0  0  0  0  0  0  0  0  0
   -1.1813    2.4942    4.0395 C   0  0  0  0  0  0  0  0  0  0  0  0
   -0.6465    1.0185    1.5095 H   0  0  0  0  0  0  0  0  0  0  0  0
   -2.5056    0.8127    3.7559 H   0  0  0  0  0  0  0  0  0  0  0  0
   -0.5703    3.1857    3.4479 H   0  0  0  0  0  0  0  0  0  0  0  0
   -1.8922    3.0934    4.6180 H   0  0  0  0  0  0  0  0  0  0  0  0
   -0.5162    1.9813    4.7426 H   0  0  0  0  0  0  0  0  0  0  0  0
   -3.9828    2.6402    2.7141 N   0  0  0  0  0  0  0  0  0  0  0  0
   -4.9928    3.3541    1.9683 C   0  0  0  0  0  0  0  0  0  0  0  0
   -4.1788    2.4195    3.6860 H   0  0  0  0  0  0  0  0  0  0  0  0
   -4.8266    4.4369    2.0686 H   0  0  0  0  0  0  0  0  0  0  0  0
   -4.9334    3.0710    0.9070 H   0  0  0  0  0  0  0  0  0  0  0  0
   -5.9879    3.0981    2.3609 H   0  0  0  0  0  0  0  0  0  0  0  0
  1  3  1  0  0  0  0
  1  7  1  0  0  0  0
  1  2  2  0  0  0  0
 30 31  1  0  0  0  0
 31 39  1  0  0  0  0
 31 32  2  0  0  0  0
  8  9  1  0  0  0  0
  9 17  1  0  0  0  0
  9 10  2  0  0  0  0
 18 19  1  0  0  0  0
 19 29  1  0  0  0  0
 19 20  2  0  0  0  0
 21 22  1  0  0  0  0
 22 23  1  0  0  0  0
 22 24  2  0  0  0  0
 30 33  1  0  0  0  0
  8 11  1  0  0  0  0
 39 40  1  0  0  0  0
 18 21  1  0  0  0  0
 29 30  1  0  0  0  0
  7  8  1  0  0  0  0
 17 18  1  0  0  0  0
  3  4  1  0  0  0  0
  3  5  1  0  0  0  0
  3  6  1  0  0  0  0
 33 36  1  0  0  0  0
 33 37  1  0  0  0  0
 33 38  1  0  0  0  0
 11 14  1  0  0  0  0
 11 15  1  0  0  0  0
 11 16  1  0  0  0  0
 40 42  1  0  0  0  0
 40 43  1  0  0  0  0
 40 44  1  0  0  0  0
 21 27  1  0  0  0  0
 21 28  1  0  0  0  0
 30 35  1  0  0  0  0
  8 13  1  0  0  0  0
 18 26  1  0  0  0  0
 39 41  1  0  0  0  0
  7 12  1  0  0  0  0
 29 34  1  0  0  0  0
 17 25  1  0  0  0  0
M  CHG  1  23  -1
M  END
$$$$

  -OEChem-05262214473D

 44 43  0     1  0  0  0  0  0999 V2000
   -4.0256   -1.8030   -2.1581 C   0  0  0  0  0  0  0  0  0  0  0  0
   -3.7513   -2.6782   -2.9709 O   0  0  0  0  0  0  0  0  0  0  0  0
   -5.3491   -1.1169   -2.2339 C   0  0  0  0  0  0  0  0  0  0  0  0
   -5.3223   -0.2211   -2.8750 H   0  0  0  0  0  0  0  0  0  0  0  0
   -6.1322   -1.7605   -2.6658 H   0  0  0  0  0  0  0  0  0  0  0  0
   -5.7568   -0.7715   -1.2704 H   0  0  0  0  0  0  0  0  0  0  0  0
   -3.2124   -1.3578   -1.1289 N   0  0  0  0  0  0  0  0  0  0  0  0
   -1.8971   -1.8843   -0.8752 C   0  0  2  0  0  0  0  0  0  0  0  0
   -1.2676   -1.0599    0.2399 C   0  0  0  0  0  0  0  0  0  0  0  0
   -1.6270    0.0833    0.5138 O   0  0  0  0  0  0  0  0  0  0  0  0
   -1.0364   -1.8506   -2.1285 C   0  0  0  0  0  0  0  0  0  0  0  0
   -3.5631   -0.6202   -0.5206 H   0  0  0  0  0  0  0  0  0  0  0  0
   -2.0301   -2.9174   -0.5360 H   0  0  0  0  0  0  0  0  0  0  0  0
   -0.8921   -0.8236   -2.4833 H   0  0  0  0  0  0  0  0  0  0  0  0
   -0.0457   -2.2777   -1.9410 H   0  0  0  0  0  0  0  0  0  0  0  0
   -1.5052   -2.4193   -2.9387 H   0  0  0  0  0  0  0  0  0  0  0  0
   -0.2267   -1.7335    0.8672 N   0  0  0  0  0  0  0  0  0  0  0  0
    0.5363   -1.1590    1.9465 C   0  0  2  0  0  0  0  0  0  0  0  0
   -0.4571   -0.5158    2.9074 C   0  0  0  0  0  0  0  0  0  0  0  0
   -0.5364   -0.8235    4.0949 O   0  0  0  0  0  0  0  0  0  0  0  0
    1.5419   -0.1259    1.4437 C   0  0  0  0  0  0  0  0  0  0  0  0
    2.7218   -0.6650    0.6248 C   0  0  0  0  0  0  0  0  0  0  0  0
    3.0597   -1.8473    0.9231 O   0  5  0  0  0  0  0  0  0  0  0  0
    3.2200    0.1164   -0.2308 O   0  0  0  0  0  0  0  0  0  0  0  0
   -0.0113   -2.6869    0.5854 H   0  0  0  0  0  0  0  0  0  0  0  0
    1.0411   -1.9895    2.4527 H   0  0  0  0  0  0  0  0  0  0  0  0
    1.9508    0.4360    2.2947 H   0  0  0  0  0  0  0  0  0  0  0  0
    1.0312    0.6065    0.8050 H   0  0  0  0  0  0  0  0  0  0  0  0
   -1.2074    0.4778    2.2942 N   0  0  0  0  0  0  0  0  0  0  0  0
   -2.1965    1.2588    3.0000 C   0  0  2  0  0  0  0  0  0  0  0  0
   -3.2918    1.6353    2.0109 C   0  0  0  0  0  0  0  0  0  0  0  0
   -3.1158    1.6656    0.7947 O   0  0  0  0  0  0  0  0  0  0  0  0
   -1.5786    2.4998    3.6251 C   0  0  0  0  0  0  0  0  0  0  0  0
   -1.0406    0.6980    1.3167 H   0  0  0  0  0  0  0  0  0  0  0  0
   -2.6138    0.6113    3.7789 H   0  0  0  0  0  0  0  0  0  0  0  0
   -1.1552    3.1607    2.8600 H   0  0  0  0  0  0  0  0  0  0  0  0
   -2.3238    3.0757    4.1836 H   0  0  0  0  0  0  0  0  0  0  0  0
   -0.7711    2.2284    4.3137 H   0  0  0  0  0  0  0  0  0  0  0  0
   -4.4766    1.9753    2.6487 N   0  0  0  0  0  0  0  0  0  0  0  0
   -5.6609    2.3814    1.9287 C   0  0  0  0  0  0  0  0  0  0  0  0
   -4.5381    1.9033    3.6601 H   0  0  0  0  0  0  0  0  0  0  0  0
   -5.6752    3.4772    1.8337 H   0  0  0  0  0  0  0  0  0  0  0  0
   -5.6549    1.9267    0.9271 H   0  0  0  0  0  0  0  0  0  0  0  0
   -6.5550    2.0493    2.4768 H   0  0  0  0  0  0  0  0  0  0  0  0
  1  3  1  0  0  0  0
  1  7  1  0  0  0  0
  1  2  2  0  0  0  0
 30 31  1  0  0  0  0
 31 39  1  0  0  0  0
 31 32  2  0  0  0  0
  8  9  1  0  0  0  0
  9 17  1  0  0  0  0
  9 10  2  0  0  0  0
 18 19  1  0  0  0  0
 19 29  1  0  0  0  0
 19 20  2  0  0  0  0
 21 22  1  0  0  0  0
 22 23  1  0  0  0  0
 22 24  2  0  0  0  0
 30 33  1  0  0  0  0
  8 11  1  0  0  0  0
 39 40  1  0  0  0  0
 18 21  1  0  0  0  0
 29 30  1  0  0  0  0
  7  8  1  0  0  0  0
 17 18  1  0  0  0  0
  3  4  1  0  0  0  0
  3  5  1  0  0  0  0
  3  6  1  0  0  0  0
 33 36  1  0  0  0  0
 33 37  1  0  0  0  0
 33 38  1  0  0  0  0
 11 14  1  0  0  0  0
 11 15  1  0  0  0  0
 11 16  1  0  0  0  0
 40 42  1  0  0  0  0
 40 43  1  0  0  0  0
 40 44  1  0  0  0  0
 21 27  1  0  0  0  0
 21 28  1  0  0  0  0
 30 35  1  0  0  0  0
  8 13  1  0  0  0  0
 18 26  1  0  0  0  0
 39 41  1  0  0  0  0
  7 12  1  0  0  0  0
 29 34  1  0  0  0  0
 17 25  1  0  0  0  0
M  CHG  1  23  -1
M  END
$$$$

  -OEChem-05262214473D

 44 43  0     1  0  0  0  0  0999 V2000
   -4.0256   -1.8030   -2.1581 C   0  0  0  0  0  0  0  0  0  0  0  0
   -3.7513   -2.6782   -2.9709 O   0  0  0  0  0  0  0  0  0  0  0  0
   -5.3491   -1.1169   -2.2339 C   0  0  0  0  0  0  0  0  0  0  0  0
   -5.3223   -0.2211   -2.8750 H   0  0  0  0  0  0  0  0  0  0  0  0
   -6.1322   -1.7605   -2.6658 H   0  0  0  0  0  0  0  0  0  0  0  0
   -5.7568   -0.7715   -1.2704 H   0  0  0  0  0  0  0  0  0  0  0  0
   -3.2124   -1.3578   -1.1289 N   0  0  0  0  0  0  0  0  0  0  0  0
   -1.8971   -1.8843   -0.8752 C   0  0  2  0  0  0  0  0  0  0  0  0
   -1.2676   -1.0599    0.2399 C   0  0  0  0  0  0  0  0  0  0  0  0
   -1.6270    0.0833    0.5138 O   0  0  0  0  0  0  0  0  0  0  0  0
   -1.0364   -1.8506   -2.1285 C   0  0  0  0  0  0  0  0  0  0  0  0
   -3.5631   -0.6202   -0.5206 H   0  0  0  0  0  0  0  0  0  0  0  0
   -2.0301   -2.9174   -0.5360 H   0  0  0  0  0  0  0  0  0  0  0  0
   -0.8921   -0.8236   -2.4833 H   0  0  0  0  0  0  0  0  0  0  0  0
   -0.0457   -2.2777   -1.9410 H   0  0  0  0  0  0  0  0  0  0  0  0
   -1.5052   -2.4193   -2.9387 H   0  0  0  0  0  0  0  0  0  0  0  0
   -0.2267   -1.7335    0.8672 N   0  0  0  0  0  0  0  0  0  0  0  0
    0.5363   -1.1590    1.9465 C   0  0  2  0  0  0  0  0  0  0  0  0
   -0.4571   -0.5158    2.9074 C   0  0  0  0  0  0  0  0  0  0  0  0
   -0.3687   -0.6161    4.1294 O   0  0  0  0  0  0  0  0  0  0  0  0
    1.5419   -0.1259    1.4437 C   0  0  0  0  0  0  0  0  0  0  0  0
    2.7218   -0.6650    0.6248 C   0  0  0  0  0  0  0  0  0  0  0  0
    3.0597   -1.8473    0.9231 O   0  5  0  0  0  0  0  0  0  0  0  0
    3.2200    0.1164   -0.2308 O   0  0  0  0  0  0  0  0  0  0  0  0
   -0.0113   -2.6869    0.5854 H   0  0  0  0  0  0  0  0  0  0  0  0
    1.0411   -1.9895    2.4527 H   0  0  0  0  0  0  0  0  0  0  0  0
    1.9508    0.4360    2.2947 H   0  0  0  0  0  0  0  0  0  0  0  0
    1.0312    0.6065    0.8050 H   0  0  0  0  0  0  0  0  0  0  0  0
   -1.4225    0.2256    2.2406 N   0  0  0  0  0  0  0  0  0  0  0  0
   -2.4598    0.9580    2.9291 C   0  0  2  0  0  0  0  0  0  0  0  0
   -3.6926    0.9798    2.0352 C   0  0  0  0  0  0  0  0  0  0  0  0
   -3.6412    0.8202    0.8175 O   0  0  0  0  0  0  0  0  0  0  0  0
   -2.0085    2.3704    3.2672 C   0  0  0  0  0  0  0  0  0  0  0  0
   -1.3900    0.2916    1.2275 H   0  0  0  0  0  0  0  0  0  0  0  0
   -2.6830    0.4030    3.8468 H   0  0  0  0  0  0  0  0  0  0  0  0
   -1.7802    2.9419    2.3602 H   0  0  0  0  0  0  0  0  0  0  0  0
   -2.7853    2.9149    3.8142 H   0  0  0  0  0  0  0  0  0  0  0  0
   -1.1045    2.3532    3.8855 H   0  0  0  0  0  0  0  0  0  0  0  0
   -4.8521    1.2415    2.7517 N   0  0  0  0  0  0  0  0  0  0  0  0
   -6.1519    1.3261    2.1275 C   0  0  0  0  0  0  0  0  0  0  0  0
   -4.8038    1.3418    3.7613 H   0  0  0  0  0  0  0  0  0  0  0  0
   -6.3640    2.3721    1.8614 H   0  0  0  0  0  0  0  0  0  0  0  0
   -6.1629    0.7070    1.2183 H   0  0  0  0  0  0  0  0  0  0  0  0
   -6.9189    0.9632    2.8275 H   0  0  0  0  0  0  0  0  0  0  0  0
  1  3  1  0  0  0  0
  1  7  1  0  0  0  0
  1  2  2  0  0  0  0
 30 31  1  0  0  0  0
 31 39  1  0  0  0  0
 31 32  2  0  0  0  0
  8  9  1  0  0  0  0
  9 17  1  0  0  0  0
  9 10  2  0  0  0  0
 18 19  1  0  0  0  0
 19 29  1  0  0  0  0
 19 20  2  0  0  0  0
 21 22  1  0  0  0  0
 22 23  1  0  0  0  0
 22 24  2  0  0  0  0
 30 33  1  0  0  0  0
  8 11  1  0  0  0  0
 39 40  1  0  0  0  0
 18 21  1  0  0  0  0
 29 30  1  0  0  0  0
  7  8  1  0  0  0  0
 17 18  1  0  0  0  0
  3  4  1  0  0  0  0
  3  5  1  0  0  0  0
  3  6  1  0  0  0  0
 33 36  1  0  0  0  0
 33 37  1  0  0  0  0
 33 38  1  0  0  0  0
 11 14  1  0  0  0  0
 11 15  1  0  0  0  0
 11 16  1  0  0  0  0
 40 42  1  0  0  0  0
 40 43  1  0  0  0  0
 40 44  1  0  0  0  0
 21 27  1  0  0  0  0
 21 28  1  0  0  0  0
 30 35  1  0  0  0  0
  8 13  1  0  0  0  0
 18 26  1  0  0  0  0
 39 41  1  0  0  0  0
  7 12  1  0  0  0  0
 29 34  1  0  0  0  0
 17 25  1  0  0  0  0
M  CHG  1  23  -1
M  END
$$$$

  -OEChem-05262214473D

 44 43  0     1  0  0  0  0  0999 V2000
   -4.0256   -1.8030   -2.1581 C   0  0  0  0  0  0  0  0  0  0  0  0
   -3.7513   -2.6782   -2.9709 O   0  0  0  0  0  0  0  0  0  0  0  0
   -5.3491   -1.1169   -2.2339 C   0  0  0  0  0  0  0  0  0  0  0  0
   -5.3223   -0.2211   -2.8750 H   0  0  0  0  0  0  0  0  0  0  0  0
   -6.1322   -1.7605   -2.6658 H   0  0  0  0  0  0  0  0  0  0  0  0
   -5.7568   -0.7715   -1.2704 H   0  0  0  0  0  0  0  0  0  0  0  0
   -3.2124   -1.3578   -1.1289 N   0  0  0  0  0  0  0  0  0  0  0  0
   -1.8971   -1.8843   -0.8752 C   0  0  2  0  0  0  0  0  0  0  0  0
   -1.2676   -1.0599    0.2399 C   0  0  0  0  0  0  0  0  0  0  0  0
   -1.6270    0.0833    0.5138 O   0  0  0  0  0  0  0  0  0  0  0  0
   -1.0364   -1.8506   -2.1285 C   0  0  0  0  0  0  0  0  0  0  0  0
   -3.5631   -0.6202   -0.5206 H   0  0  0  0  0  0  0  0  0  0  0  0
   -2.0301   -2.9174   -0.5360 H   0  0  0  0  0  0  0  0  0  0  0  0
   -0.8921   -0.8236   -2.4833 H   0  0  0  0  0  0  0  0  0  0  0  0
   -0.0457   -2.2777   -1.9410 H   0  0  0  0  0  0  0  0  0  0  0  0
   -1.5052   -2.4193   -2.9387 H   0  0  0  0  0  0  0  0  0  0  0  0
   -0.2267   -1.7335    0.8672 N   0  0  0  0  0  0  0  0  0  0  0  0
    0.5363   -1.1590    1.9465 C   0  0  2  0  0  0  0  0  0  0  0  0
   -0.4571   -0.5158    2.9074 C   0  0  0  0  0  0  0  0  0  0  0  0
   -0.2368   -0.3825    4.1094 O   0  0  0  0  0  0  0  0  0  0  0  0
    1.5419   -0.1259    1.4437 C   0  0  0  0  0  0  0  0  0  0  0  0
    2.7218   -0.6650    0.6248 C   0  0  0  0  0  0  0  0  0  0  0  0
    3.0597   -1.8473    0.9231 O   0  5  0  0  0  0  0  0  0  0  0  0
    3.2200    0.1164   -0.2308 O   0  0  0  0  0  0  0  0  0  0  0  0
   -0.0113   -2.6869    0.5854 H   0  0  0  0  0  0  0  0  0  0  0  0
    1.0411   -1.9895    2.4527 H   0  0  0  0  0  0  0  0  0  0  0  0
    1.9508    0.4360    2.2947 H   0  0  0  0  0  0  0  0  0  0  0  0
    1.0312    0.6065    0.8050 H   0  0  0  0  0  0  0  0  0  0  0  0
   -1.5950   -0.0621    2.2549 N   0  0  0  0  0  0  0  0  0  0  0  0
   -2.6727    0.6127    2.9402 C   0  0  2  0  0  0  0  0  0  0  0  0
   -3.9702    0.2854    2.2131 C   0  0  0  0  0  0  0  0  0  0  0  0
   -4.0082   -0.0783    1.0395 O   0  0  0  0  0  0  0  0  0  0  0  0
   -2.4417    2.1150    2.9903 C   0  0  0  0  0  0  0  0  0  0  0  0
   -1.6709   -0.1730    1.2481 H   0  0  0  0  0  0  0  0  0  0  0  0
   -2.7085    0.2019    3.9551 H   0  0  0  0  0  0  0  0  0  0  0  0
   -2.4029    2.5444    1.9826 H   0  0  0  0  0  0  0  0  0  0  0  0
   -3.2451    2.6219    3.5349 H   0  0  0  0  0  0  0  0  0  0  0  0
   -1.4936    2.3471    3.4873 H   0  0  0  0  0  0  0  0  0  0  0  0
   -5.0839    0.4887    3.0159 N   0  0  0  0  0  0  0  0  0  0  0  0
   -6.4322    0.2602    2.5512 C   0  0  0  0  0  0  0  0  0  0  0  0
   -4.9577    0.7731    3.9828 H   0  0  0  0  0  0  0  0  0  0  0  0
   -6.8460    1.1970    2.1497 H   0  0  0  0  0  0  0  0  0  0  0  0
   -6.4228   -0.5048    1.7608 H   0  0  0  0  0  0  0  0  0  0  0  0
   -7.0550   -0.0861    3.3892 H   0  0  0  0  0  0  0  0  0  0  0  0
  1  3  1  0  0  0  0
  1  7  1  0  0  0  0
  1  2  2  0  0  0  0
 30 31  1  0  0  0  0
 31 39  1  0  0  0  0
 31 32  2  0  0  0  0
  8  9  1  0  0  0  0
  9 17  1  0  0  0  0
  9 10  2  0  0  0  0
 18 19  1  0  0  0  0
 19 29  1  0  0  0  0
 19 20  2  0  0  0  0
 21 22  1  0  0  0  0
 22 23  1  0  0  0  0
 22 24  2  0  0  0  0
 30 33  1  0  0  0  0
  8 11  1  0  0  0  0
 39 40  1  0  0  0  0
 18 21  1  0  0  0  0
 29 30  1  0  0  0  0
  7  8  1  0  0  0  0
 17 18  1  0  0  0  0
  3  4  1  0  0  0  0
  3  5  1  0  0  0  0
  3  6  1  0  0  0  0
 33 36  1  0  0  0  0
 33 37  1  0  0  0  0
 33 38  1  0  0  0  0
 11 14  1  0  0  0  0
 11 15  1  0  0  0  0
 11 16  1  0  0  0  0
 40 42  1  0  0  0  0
 40 43  1  0  0  0  0
 40 44  1  0  0  0  0
 21 27  1  0  0  0  0
 21 28  1  0  0  0  0
 30 35  1  0  0  0  0
  8 13  1  0  0  0  0
 18 26  1  0  0  0  0
 39 41  1  0  0  0  0
  7 12  1  0  0  0  0
 29 34  1  0  0  0  0
 17 25  1  0  0  0  0
M  CHG  1  23  -1
M  END
$$$$

  -OEChem-05262214473D

 44 43  0     1  0  0  0  0  0999 V2000
   -4.0256   -1.8030   -2.1581 C   0  0  0  0  0  0  0  0  0  0  0  0
   -3.7513   -2.6782   -2.9709 O   0  0  0  0  0  0  0  0  0  0  0  0
   -5.3491   -1.1169   -2.2339 C   0  0  0  0  0  0  0  0  0  0  0  0
   -5.3223   -0.2211   -2.8750 H   0  0  0  0  0  0  0  0  0  0  0  0
   -6.1322   -1.7605   -2.6658 H   0  0  0  0  0  0  0  0  0  0  0  0
   -5.7568   -0.7715   -1.2704 H   0  0  0  0  0  0  0  0  0  0  0  0
   -3.2124   -1.3578   -1.1289 N   0  0  0  0  0  0  0  0  0  0  0  0
   -1.8971   -1.8843   -0.8752 C   0  0  2  0  0  0  0  0  0  0  0  0
   -1.2676   -1.0599    0.2399 C   0  0  0  0  0  0  0  0  0  0  0  0
   -1.6270    0.0833    0.5138 O   0  0  0  0  0  0  0  0  0  0  0  0
   -1.0364   -1.8506   -2.1285 C   0  0  0  0  0  0  0  0  0  0  0  0
   -3.5631   -0.6202   -0.5206 H   0  0  0  0  0  0  0  0  0  0  0  0
   -2.0301   -2.9174   -0.5360 H   0  0  0  0  0  0  0  0  0  0  0  0
   -0.8921   -0.8236   -2.4833 H   0  0  0  0  0  0  0  0  0  0  0  0
   -0.0457   -2.2777   -1.9410 H   0  0  0  0  0  0  0  0  0  0  0  0
   -1.5052   -2.4193   -2.9387 H   0  0  0  0  0  0  0  0  0  0  0  0
   -0.2267   -1.7335    0.8672 N   0  0  0  0  0  0  0  0  0  0  0  0
    0.5363   -1.1590    1.9465 C   0  0  2  0  0  0  0  0  0  0  0  0
   -0.4571   -0.5158    2.9074 C   0  0  0  0  0  0  0  0  0  0  0  0
   -0.1497   -0.1387    4.0363 O   0  0  0  0  0  0  0  0  0  0  0  0
    1.5419   -0.1259    1.4437 C   0  0  0  0  0  0  0  0  0  0  0  0
    2.7218   -0.6650    0.6248 C   0  0  0  0  0  0  0  0  0  0  0  0
    3.0597   -1.8473    0.9231 O   0  5  0  0  0  0  0  0  0  0  0  0
    3.2200    0.1164   -0.2308 O   0  0  0  0  0  0  0  0  0  0  0  0
   -0.0113   -2.6869    0.5854 H   0  0  0  0  0  0  0  0  0  0  0  0
    1.0411   -1.9895    2.4527 H   0  0  0  0  0  0  0  0  0  0  0  0
    1.9508    0.4360    2.2947 H   0  0  0  0  0  0  0  0  0  0  0  0
    1.0312    0.6065    0.8050 H   0  0  0  0  0  0  0  0  0  0  0  0
   -1.7130   -0.3658    2.3361 N   0  0  0  0  0  0  0  0  0  0  0  0
   -2.8208    0.2462    3.0324 C   0  0  2  0  0  0  0  0  0  0  0  0
   -4.1057   -0.4007    2.5323 C   0  0  0  0  0  0  0  0  0  0  0  0
   -4.1919   -0.9686    1.4455 O   0  0  0  0  0  0  0  0  0  0  0  0
   -2.8488    1.7508    2.8133 C   0  0  0  0  0  0  0  0  0  0  0  0
   -1.8643   -0.6642    1.3770 H   0  0  0  0  0  0  0  0  0  0  0  0
   -2.6884    0.0218    4.0964 H   0  0  0  0  0  0  0  0  0  0  0  0
   -2.9807    1.9951    1.7529 H   0  0  0  0  0  0  0  0  0  0  0  0
   -3.6720    2.2168    3.3647 H   0  0  0  0  0  0  0  0  0  0  0  0
   -1.9120    2.2106    3.1461 H   0  0  0  0  0  0  0  0  0  0  0  0
   -5.1562   -0.2316    3.4234 N   0  0  0  0  0  0  0  0  0  0  0  0
   -6.4828   -0.7437    3.1708 C   0  0  0  0  0  0  0  0  0  0  0  0
   -4.9894    0.2361    4.3095 H   0  0  0  0  0  0  0  0  0  0  0  0
   -7.0883    0.0319    2.6790 H   0  0  0  0  0  0  0  0  0  0  0  0
   -6.4169   -1.6262    2.5176 H   0  0  0  0  0  0  0  0  0  0  0  0
   -6.9539   -1.0271    4.1236 H   0  0  0  0  0  0  0  0  0  0  0  0
  1  3  1  0  0  0  0
  1  7  1  0  0  0  0
  1  2  2  0  0  0  0
 30 31  1  0  0  0  0
 31 39  1  0  0  0  0
 31 32  2  0  0  0  0
  8  9  1  0  0  0  0
  9 17  1  0  0  0  0
  9 10  2  0  0  0  0
 18 19  1  0  0  0  0
 19 29  1  0  0  0  0
 19 20  2  0  0  0  0
 21 22  1  0  0  0  0
 22 23  1  0  0  0  0
 22 24  2  0  0  0  0
 30 33  1  0  0  0  0
  8 11  1  0  0  0  0
 39 40  1  0  0  0  0
 18 21  1  0  0  0  0
 29 30  1  0  0  0  0
  7  8  1  0  0  0  0
 17 18  1  0  0  0  0
  3  4  1  0  0  0  0
  3  5  1  0  0  0  0
  3  6  1  0  0  0  0
 33 36  1  0  0  0  0
 33 37  1  0  0  0  0
 33 38  1  0  0  0  0
 11 14  1  0  0  0  0
 11 15  1  0  0  0  0
 11 16  1  0  0  0  0
 40 42  1  0  0  0  0
 40 43  1  0  0  0  0
 40 44  1  0  0  0  0
 21 27  1  0  0  0  0
 21 28  1  0  0  0  0
 30 35  1  0  0  0  0
  8 13  1  0  0  0  0
 18 26  1  0  0  0  0
 39 41  1  0  0  0  0
  7 12  1  0  0  0  0
 29 34  1  0  0  0  0
 17 25  1  0  0  0  0
M  CHG  1  23  -1
M  END
$$$$

  -OEChem-05262214473D

 44 43  0     1  0  0  0  0  0999 V2000
   -4.0256   -1.8030   -2.1581 C   0  0  0  0  0  0  0  0  0  0  0  0
   -3.7513   -2.6782   -2.9709 O   0  0  0  0  0  0  0  0  0  0  0  0
   -5.3491   -1.1169   -2.2339 C   0  0  0  0  0  0  0  0  0  0  0  0
   -5.3223   -0.2211   -2.8750 H   0  0  0  0  0  0  0  0  0  0  0  0
   -6.1322   -1.7605   -2.6658 H   0  0  0  0  0  0  0  0  0  0  0  0
   -5.7568   -0.7715   -1.2704 H   0  0  0  0  0  0  0  0  0  0  0  0
   -3.2124   -1.3578   -1.1289 N   0  0  0  0  0  0  0  0  0  0  0  0
   -1.8971   -1.8843   -0.8752 C   0  0  2  0  0  0  0  0  0  0  0  0
   -1.2676   -1.0599    0.2399 C   0  0  0  0  0  0  0  0  0  0  0  0
   -1.6270    0.0833    0.5138 O   0  0  0  0  0  0  0  0  0  0  0  0
   -1.0364   -1.8506   -2.1285 C   0  0  0  0  0  0  0  0  0  0  0  0
   -3.5631   -0.6202   -0.5206 H   0  0  0  0  0  0  0  0  0  0  0  0
   -2.0301   -2.9174   -0.5360 H   0  0  0  0  0  0  0  0  0  0  0  0
   -0.8921   -0.8236   -2.4833 H   0  0  0  0  0  0  0  0  0  0  0  0
   -0.0457   -2.2777   -1.9410 H   0  0  0  0  0  0  0  0  0  0  0  0
   -1.5052   -2.4193   -2.9387 H   0  0  0  0  0  0  0  0  0  0  0  0
   -0.2267   -1.7335    0.8672 N   0  0  0  0  0  0  0  0  0  0  0  0
    0.5363   -1.1590    1.9465 C   0  0  2  0  0  0  0  0  0  0  0  0
   -0.4571   -0.5158    2.9074 C   0  0  0  0  0  0  0  0  0  0  0  0
   -0.1133    0.0986    3.9151 O   0  0  0  0  0  0  0  0  0  0  0  0
    1.5419   -0.1259    1.4437 C   0  0  0  0  0  0  0  0  0  0  0  0
    2.7218   -0.6650    0.6248 C   0  0  0  0  0  0  0  0  0  0  0  0
    3.0597   -1.8473    0.9231 O   0  5  0  0  0  0  0  0  0  0  0  0
    3.2200    0.1164   -0.2308 O   0  0  0  0  0  0  0  0  0  0  0  0
   -0.0113   -2.6869    0.5854 H   0  0  0  0  0  0  0  0  0  0  0  0
    1.0411   -1.9895    2.4527 H   0  0  0  0  0  0  0  0  0  0  0  0
    1.9508    0.4360    2.2947 H   0  0  0  0  0  0  0  0  0  0  0  0
    1.0312    0.6065    0.8050 H   0  0  0  0  0  0  0  0  0  0  0  0
   -1.7687   -0.6646    2.4786 N   0  0  0  0  0  0  0  0  0  0  0  0
   -2.8940   -0.1164    3.1994 C   0  0  2  0  0  0  0  0  0  0  0  0
   -4.0897   -1.0316    2.9711 C   0  0  0  0  0  0  0  0  0  0  0  0
   -4.1797   -1.7900    2.0079 O   0  0  0  0  0  0  0  0  0  0  0  0
   -3.2019    1.3028    2.7481 C   0  0  0  0  0  0  0  0  0  0  0  0
   -1.9568   -1.1484    1.6055 H   0  0  0  0  0  0  0  0  0  0  0  0
   -2.6242   -0.1250    4.2611 H   0  0  0  0  0  0  0  0  0  0  0  0
   -3.4743    1.3315    1.6868 H   0  0  0  0  0  0  0  0  0  0  0  0
   -4.0369    1.7272    3.3153 H   0  0  0  0  0  0  0  0  0  0  0  0
   -2.3310    1.9530    2.8853 H   0  0  0  0  0  0  0  0  0  0  0  0
   -5.0640   -0.8705    3.9463 N   0  0  0  0  0  0  0  0  0  0  0  0
   -6.3003   -1.6171    3.9441 C   0  0  0  0  0  0  0  0  0  0  0  0
   -4.8968   -0.2328    4.7191 H   0  0  0  0  0  0  0  0  0  0  0  0
   -7.0746   -1.0437    3.4132 H   0  0  0  0  0  0  0  0  0  0  0  0
   -6.1456   -2.5809    3.4370 H   0  0  0  0  0  0  0  0  0  0  0  0
   -6.6225   -1.7957    4.9806 H   0  0  0  0  0  0  0  0  0  0  0  0
  1  3  1  0  0  0  0
  1  7  1  0  0  0  0
  1  2  2  0  0  0  0
 30 31  1  0  0  0  0
 31 39  1  0  0  0  0
 31 32  2  0  0  0  0
  8  9  1  0  0  0  0
  9 17  1  0  0  0  0
  9 10  2  0  0  0  0
 18 19  1  0  0  0  0
 19 29  1  0  0  0  0
 19 20  2  0  0  0  0
 21 22  1  0  0  0  0
 22 23  1  0  0  0  0
 22 24  2  0  0  0  0
 30 33  1  0  0  0  0
  8 11  1  0  0  0  0
 39 40  1  0  0  0  0
 18 21  1  0  0  0  0
 29 30  1  0  0  0  0
  7  8  1  0  0  0  0
 17 18  1  0  0  0  0
  3  4  1  0  0  0  0
  3  5  1  0  0  0  0
  3  6  1  0  0  0  0
 33 36  1  0  0  0  0
 33 37  1  0  0  0  0
 33 38  1  0  0  0  0
 11 14  1  0  0  0  0
 11 15  1  0  0  0  0
 11 16  1  0  0  0  0
 40 42  1  0  0  0  0
 40 43  1  0  0  0  0
 40 44  1  0  0  0  0
 21 27  1  0  0  0  0
 21 28  1  0  0  0  0
 30 35  1  0  0  0  0
  8 13  1  0  0  0  0
 18 26  1  0  0  0  0
 39 41  1  0  0  0  0
  7 12  1  0  0  0  0
 29 34  1  0  0  0  0
 17 25  1  0  0  0  0
M  CHG  1  23  -1
M  END
$$$$

  -OEChem-05262214473D

 44 43  0     1  0  0  0  0  0999 V2000
   -4.0256   -1.8030   -2.1581 C   0  0  0  0  0  0  0  0  0  0  0  0
   -3.7513   -2.6782   -2.9709 O   0  0  0  0  0  0  0  0  0  0  0  0
   -5.3491   -1.1169   -2.2339 C   0  0  0  0  0  0  0  0  0  0  0  0
   -5.3223   -0.2211   -2.8750 H   0  0  0  0  0  0  0  0  0  0  0  0
   -6.1322   -1.7605   -2.6658 H   0  0  0  0  0  0  0  0  0  0  0  0
   -5.7568   -0.7715   -1.2704 H   0  0  0  0  0  0  0  0  0  0  0  0
   -3.2124   -1.3578   -1.1289 N   0  0  0  0  0  0  0  0  0  0  0  0
   -1.8971   -1.8843   -0.8752 C   0  0  2  0  0  0  0  0  0  0  0  0
   -1.2676   -1.0599    0.2399 C   0  0  0  0  0  0  0  0  0  0  0  0
   -1.6270    0.0833    0.5138 O   0  0  0  0  0  0  0  0  0  0  0  0
   -1.0364   -1.8506   -2.1285 C   0  0  0  0  0  0  0  0  0  0  0  0
   -3.5631   -0.6202   -0.5206 H   0  0  0  0  0  0  0  0  0  0  0  0
   -2.0301   -2.9174   -0.5360 H   0  0  0  0  0  0  0  0  0  0  0  0
   -0.8921   -0.8236   -2.4833 H   0  0  0  0  0  0  0  0  0  0  0  0
   -0.0457   -2.2777   -1.9410 H   0  0  0  0  0  0  0  0  0  0  0  0
   -1.5052   -2.4193   -2.9387 H   0  0  0  0  0  0  0  0  0  0  0  0
   -0.2267   -1.7335    0.8672 N   0  0  0  0  0  0  0  0  0  0  0  0
    0.5363   -1.1590    1.9465 C   0  0  2  0  0  0  0  0  0  0  0  0
   -0.4571   -0.5158    2.9074 C   0  0  0  0  0  0  0  0  0  0  0  0
   -0.1301    0.3134    3.7539 O   0  0  0  0  0  0  0  0  0  0  0  0
    1.5419   -0.1259    1.4437 C   0  0  0  0  0  0  0  0  0  0  0  0
    2.7218   -0.6650    0.6248 C   0  0  0  0  0  0  0  0  0  0  0  0
    3.0597   -1.8473    0.9231 O   0  5  0  0  0  0  0  0  0  0  0  0
    3.2200    0.1164   -0.2308 O   0  0  0  0  0  0  0  0  0  0  0  0
   -0.0113   -2.6869    0.5854 H   0  0  0  0  0  0  0  0  0  0  0  0
    1.0411   -1.9895    2.4527 H   0  0  0  0  0  0  0  0  0  0  0  0
    1.9508    0.4360    2.2947 H   0  0  0  0  0  0  0  0  0  0  0  0
    1.0312    0.6065    0.8050 H   0  0  0  0  0  0  0  0  0  0  0  0
   -1.7581   -0.9384    2.6728 N   0  0  0  0  0  0  0  0  0  0  0  0
   -2.8873   -0.4504    3.4299 C   0  0  2  0  0  0  0  0  0  0  0  0
   -3.9235   -1.5645    3.4997 C   0  0  0  0  0  0  0  0  0  0  0  0
   -3.9726   -2.4867    2.6884 O   0  0  0  0  0  0  0  0  0  0  0  0
   -3.4770    0.8015    2.7993 C   0  0  0  0  0  0  0  0  0  0  0  0
   -1.9422   -1.5927    1.9179 H   0  0  0  0  0  0  0  0  0  0  0  0
   -2.5202   -0.2287    4.4379 H   0  0  0  0  0  0  0  0  0  0  0  0
   -3.8501    0.5989    1.7887 H   0  0  0  0  0  0  0  0  0  0  0  0
   -4.3148    1.1864    3.3899 H   0  0  0  0  0  0  0  0  0  0  0  0
   -2.7223    1.5917    2.7227 H   0  0  0  0  0  0  0  0  0  0  0  0
   -4.8136   -1.3843    4.5492 N   0  0  0  0  0  0  0  0  0  0  0  0
   -5.8971   -2.3005    4.8185 C   0  0  0  0  0  0  0  0  0  0  0  0
   -4.6861   -0.6014    5.1836 H   0  0  0  0  0  0  0  0  0  0  0  0
   -6.8056   -1.9567    4.3023 H   0  0  0  0  0  0  0  0  0  0  0  0
   -5.6274   -3.3037    4.4565 H   0  0  0  0  0  0  0  0  0  0  0  0
   -6.0835   -2.3394    5.9019 H   0  0  0  0  0  0  0  0  0  0  0  0
  1  3  1  0  0  0  0
  1  7  1  0  0  0  0
  1  2  2  0  0  0  0
 30 31  1  0  0  0  0
 31 39  1  0  0  0  0
 31 32  2  0  0  0  0
  8  9  1  0  0  0  0
  9 17  1  0  0  0  0
  9 10  2  0  0  0  0
 18 19  1  0  0  0  0
 19 29  1  0  0  0  0
 19 20  2  0  0  0  0
 21 22  1  0  0  0  0
 22 23  1  0  0  0  0
 22 24  2  0  0  0  0
 30 33  1  0  0  0  0
  8 11  1  0  0  0  0
 39 40  1  0  0  0  0
 18 21  1  0  0  0  0
 29 30  1  0  0  0  0
  7  8  1  0  0  0  0
 17 18  1  0  0  0  0
  3  4  1  0  0  0  0
  3  5  1  0  0  0  0
  3  6  1  0  0  0  0
 33 36  1  0  0  0  0
 33 37  1  0  0  0  0
 33 38  1  0  0  0  0
 11 14  1  0  0  0  0
 11 15  1  0  0  0  0
 11 16  1  0  0  0  0
 40 42  1  0  0  0  0
 40 43  1  0  0  0  0
 40 44  1  0  0  0  0
 21 27  1  0  0  0  0
 21 28  1  0  0  0  0
 30 35  1  0  0  0  0
  8 13  1  0  0  0  0
 18 26  1  0  0  0  0
 39 41  1  0  0  0  0
  7 12  1  0  0  0  0
 29 34  1  0  0  0  0
 17 25  1  0  0  0  0
M  CHG  1  23  -1
M  END
$$$$

  -OEChem-05262214473D

 44 43  0     1  0  0  0  0  0999 V2000
   -4.0256   -1.8030   -2.1581 C   0  0  0  0  0  0  0  0  0  0  0  0
   -3.7513   -2.6782   -2.9709 O   0  0  0  0  0  0  0  0  0  0  0  0
   -5.3491   -1.1169   -2.2339 C   0  0  0  0  0  0  0  0  0  0  0  0
   -5.3223   -0.2211   -2.8750 H   0  0  0  0  0  0  0  0  0  0  0  0
   -6.1322   -1.7605   -2.6658 H   0  0  0  0  0  0  0  0  0  0  0  0
   -5.7568   -0.7715   -1.2704 H   0  0  0  0  0  0  0  0  0  0  0  0
   -3.2124   -1.3578   -1.1289 N   0  0  0  0  0  0  0  0  0  0  0  0
   -1.8971   -1.8843   -0.8752 C   0  0  2  0  0  0  0  0  0  0  0  0
   -1.2676   -1.0599    0.2399 C   0  0  0  0  0  0  0  0  0  0  0  0
   -1.6270    0.0833    0.5138 O   0  0  0  0  0  0  0  0  0  0  0  0
   -1.0364   -1.8506   -2.1285 C   0  0  0  0  0  0  0  0  0  0  0  0
   -3.5631   -0.6202   -0.5206 H   0  0  0  0  0  0  0  0  0  0  0  0
   -2.0301   -2.9174   -0.5360 H   0  0  0  0  0  0  0  0  0  0  0  0
   -0.8921   -0.8236   -2.4833 H   0  0  0  0  0  0  0  0  0  0  0  0
   -0.0457   -2.2777   -1.9410 H   0  0  0  0  0  0  0  0  0  0  0  0
   -1.5052   -2.4193   -2.9387 H   0  0  0  0  0  0  0  0  0  0  0  0
   -0.2267   -1.7335    0.8672 N   0  0  0  0  0  0  0  0  0  0  0  0
    0.5363   -1.1590    1.9465 C   0  0  2  0  0  0  0  0  0  0  0  0
   -0.4571   -0.5158    2.9074 C   0  0  0  0  0  0  0  0  0  0  0  0
   -0.1989    0.4909    3.5639 O   0  0  0  0  0  0  0  0  0  0  0  0
    1.5419   -0.1259    1.4437 C   0  0  0  0  0  0  0  0  0  0  0  0
    2.7218   -0.6650    0.6248 C   0  0  0  0  0  0  0  0  0  0  0  0
    3.0597   -1.8473    0.9231 O   0  5  0  0  0  0  0  0  0  0  0  0
    3.2200    0.1164   -0.2308 O   0  0  0  0  0  0  0  0  0  0  0  0
   -0.0113   -2.6869    0.5854 H   0  0  0  0  0  0  0  0  0  0  0  0
    1.0411   -1.9895    2.4527 H   0  0  0  0  0  0  0  0  0  0  0  0
    1.9508    0.4360    2.2947 H   0  0  0  0  0  0  0  0  0  0  0  0
    1.0312    0.6065    0.8050 H   0  0  0  0  0  0  0  0  0  0  0  0
   -1.6821   -1.1683    2.9053 N   0  0  0  0  0  0  0  0  0  0  0  0
   -2.8012   -0.7331    3.7081 C   0  0  2  0  0  0  0  0  0  0  0  0
   -3.6182   -1.9629    4.0819 C   0  0  0  0  0  0  0  0  0  0  0  0
   -3.5845   -3.0110    3.4405 O   0  0  0  0  0  0  0  0  0  0  0  0
   -3.6553    0.2810    2.9633 C   0  0  0  0  0  0  0  0  0  0  0  0
   -1.8215   -1.9667    2.2931 H   0  0  0  0  0  0  0  0  0  0  0  0
   -2.3836   -0.2820    4.6148 H   0  0  0  0  0  0  0  0  0  0  0  0
   -4.0824   -0.1529    2.0518 H   0  0  0  0  0  0  0  0  0  0  0  0
   -4.4869    0.6313    3.5836 H   0  0  0  0  0  0  0  0  0  0  0  0
   -3.0591    1.1516    2.6692 H   0  0  0  0  0  0  0  0  0  0  0  0
   -4.4220   -1.7381    5.1908 N   0  0  0  0  0  0  0  0  0  0  0  0
   -5.3006   -2.7474    5.7343 C   0  0  0  0  0  0  0  0  0  0  0  0
   -4.3717   -0.8448    5.6716 H   0  0  0  0  0  0  0  0  0  0  0  0
   -6.2998   -2.6446    5.2858 H   0  0  0  0  0  0  0  0  0  0  0  0
   -4.8976   -3.7453    5.5066 H   0  0  0  0  0  0  0  0  0  0  0  0
   -5.3735   -2.6214    6.8246 H   0  0  0  0  0  0  0  0  0  0  0  0
  1  3  1  0  0  0  0
  1  7  1  0  0  0  0
  1  2  2  0  0  0  0
 30 31  1  0  0  0  0
 31 39  1  0  0  0  0
 31 32  2  0  0  0  0
  8  9  1  0  0  0  0
  9 17  1  0  0  0  0
  9 10  2  0  0  0  0
 18 19  1  0  0  0  0
 19 29  1  0  0  0  0
 19 20  2  0  0  0  0
 21 22  1  0  0  0  0
 22 23  1  0  0  0  0
 22 24  2  0  0  0  0
 30 33  1  0  0  0  0
  8 11  1  0  0  0  0
 39 40  1  0  0  0  0
 18 21  1  0  0  0  0
 29 30  1  0  0  0  0
  7  8  1  0  0  0  0
 17 18  1  0  0  0  0
  3  4  1  0  0  0  0
  3  5  1  0  0  0  0
  3  6  1  0  0  0  0
 33 36  1  0  0  0  0
 33 37  1  0  0  0  0
 33 38  1  0  0  0  0
 11 14  1  0  0  0  0
 11 15  1  0  0  0  0
 11 16  1  0  0  0  0
 40 42  1  0  0  0  0
 40 43  1  0  0  0  0
 40 44  1  0  0  0  0
 21 27  1  0  0  0  0
 21 28  1  0  0  0  0
 30 35  1  0  0  0  0
  8 13  1  0  0  0  0
 18 26  1  0  0  0  0
 39 41  1  0  0  0  0
  7 12  1  0  0  0  0
 29 34  1  0  0  0  0
 17 25  1  0  0  0  0
M  CHG  1  23  -1
M  END
$$$$

  -OEChem-05262214473D

 44 43  0     1  0  0  0  0  0999 V2000
   -4.0256   -1.8030   -2.1581 C   0  0  0  0  0  0  0  0  0  0  0  0
   -3.7513   -2.6782   -2.9709 O   0  0  0  0  0  0  0  0  0  0  0  0
   -5.3491   -1.1169   -2.2339 C   0  0  0  0  0  0  0  0  0  0  0  0
   -5.3223   -0.2211   -2.8750 H   0  0  0  0  0  0  0  0  0  0  0  0
   -6.1322   -1.7605   -2.6658 H   0  0  0  0  0  0  0  0  0  0  0  0
   -5.7568   -0.7715   -1.2704 H   0  0  0  0  0  0  0  0  0  0  0  0
   -3.2124   -1.3578   -1.1289 N   0  0  0  0  0  0  0  0  0  0  0  0
   -1.8971   -1.8843   -0.8752 C   0  0  2  0  0  0  0  0  0  0  0  0
   -1.2676   -1.0599    0.2399 C   0  0  0  0  0  0  0  0  0  0  0  0
   -1.6270    0.0833    0.5138 O   0  0  0  0  0  0  0  0  0  0  0  0
   -1.0364   -1.8506   -2.1285 C   0  0  0  0  0  0  0  0  0  0  0  0
   -3.5631   -0.6202   -0.5206 H   0  0  0  0  0  0  0  0  0  0  0  0
   -2.0301   -2.9174   -0.5360 H   0  0  0  0  0  0  0  0  0  0  0  0
   -0.8921   -0.8236   -2.4833 H   0  0  0  0  0  0  0  0  0  0  0  0
   -0.0457   -2.2777   -1.9410 H   0  0  0  0  0  0  0  0  0  0  0  0
   -1.5052   -2.4193   -2.9387 H   0  0  0  0  0  0  0  0  0  0  0  0
   -0.2267   -1.7335    0.8672 N   0  0  0  0  0  0  0  0  0  0  0  0
    0.5363   -1.1590    1.9465 C   0  0  2  0  0  0  0  0  0  0  0  0
   -0.4571   -0.5158    2.9074 C   0  0  0  0  0  0  0  0  0  0  0  0
   -0.3152    0.6191    3.3580 O   0  0  0  0  0  0  0  0  0  0  0  0
    1.5419   -0.1259    1.4437 C   0  0  0  0  0  0  0  0  0  0  0  0
    2.7218   -0.6650    0.6248 C   0  0  0  0  0  0  0  0  0  0  0  0
    3.0597   -1.8473    0.9231 O   0  5  0  0  0  0  0  0  0  0  0  0
    3.2200    0.1164   -0.2308 O   0  0  0  0  0  0  0  0  0  0  0  0
   -0.0113   -2.6869    0.5854 H   0  0  0  0  0  0  0  0  0  0  0  0
    1.0411   -1.9895    2.4527 H   0  0  0  0  0  0  0  0  0  0  0  0
    1.9508    0.4360    2.2947 H   0  0  0  0  0  0  0  0  0  0  0  0
    1.0312    0.6065    0.8050 H   0  0  0  0  0  0  0  0  0  0  0  0
   -1.5457   -1.3387    3.1604 N   0  0  0  0  0  0  0  0  0  0  0  0
   -2.6416   -0.9452    4.0151 C   0  0  2  0  0  0  0  0  0  0  0  0
   -3.1948   -2.1997    4.6782 C   0  0  0  0  0  0  0  0  0  0  0  0
   -3.0420   -3.3273    4.2131 O   0  0  0  0  0  0  0  0  0  0  0  0
   -3.7247   -0.2231    3.2290 C   0  0  0  0  0  0  0  0  0  0  0  0
   -1.6029   -2.2451    2.7053 H   0  0  0  0  0  0  0  0  0  0  0  0
   -2.2236   -0.2813    4.7797 H   0  0  0  0  0  0  0  0  0  0  0  0
   -4.1554   -0.8726    2.4581 H   0  0  0  0  0  0  0  0  0  0  0  0
   -4.5414    0.0996    3.8831 H   0  0  0  0  0  0  0  0  0  0  0  0
   -3.3184    0.6624    2.7285 H   0  0  0  0  0  0  0  0  0  0  0  0
   -3.9160   -1.9078    5.8274 N   0  0  0  0  0  0  0  0  0  0  0  0
   -4.5515   -2.9273    6.6291 C   0  0  0  0  0  0  0  0  0  0  0  0
   -3.9751   -0.9463    6.1496 H   0  0  0  0  0  0  0  0  0  0  0  0
   -5.5915   -3.0608    6.2965 H   0  0  0  0  0  0  0  0  0  0  0  0
   -4.0060   -3.8758    6.5158 H   0  0  0  0  0  0  0  0  0  0  0  0
   -4.5409   -2.6223    7.6859 H   0  0  0  0  0  0  0  0  0  0  0  0
  1  3  1  0  0  0  0
  1  7  1  0  0  0  0
  1  2  2  0  0  0  0
 30 31  1  0  0  0  0
 31 39  1  0  0  0  0
 31 32  2  0  0  0  0
  8  9  1  0  0  0  0
  9 17  1  0  0  0  0
  9 10  2  0  0  0  0
 18 19  1  0  0  0  0
 19 29  1  0  0  0  0
 19 20  2  0  0  0  0
 21 22  1  0  0  0  0
 22 23  1  0  0  0  0
 22 24  2  0  0  0  0
 30 33  1  0  0  0  0
  8 11  1  0  0  0  0
 39 40  1  0  0  0  0
 18 21  1  0  0  0  0
 29 30  1  0  0  0  0
  7  8  1  0  0  0  0
 17 18  1  0  0  0  0
  3  4  1  0  0  0  0
  3  5  1  0  0  0  0
  3  6  1  0  0  0  0
 33 36  1  0  0  0  0
 33 37  1  0  0  0  0
 33 38  1  0  0  0  0
 11 14  1  0  0  0  0
 11 15  1  0  0  0  0
 11 16  1  0  0  0  0
 40 42  1  0  0  0  0
 40 43  1  0  0  0  0
 40 44  1  0  0  0  0
 21 27  1  0  0  0  0
 21 28  1  0  0  0  0
 30 35  1  0  0  0  0
  8 13  1  0  0  0  0
 18 26  1  0  0  0  0
 39 41  1  0  0  0  0
  7 12  1  0  0  0  0
 29 34  1  0  0  0  0
 17 25  1  0  0  0  0
M  CHG  1  23  -1
M  END
$$$$

  -OEChem-05262214473D

 44 43  0     1  0  0  0  0  0999 V2000
   -4.0256   -1.8030   -2.1581 C   0  0  0  0  0  0  0  0  0  0  0  0
   -3.7513   -2.6782   -2.9709 O   0  0  0  0  0  0  0  0  0  0  0  0
   -5.3491   -1.1169   -2.2339 C   0  0  0  0  0  0  0  0  0  0  0  0
   -5.3223   -0.2211   -2.8750 H   0  0  0  0  0  0  0  0  0  0  0  0
   -6.1322   -1.7605   -2.6658 H   0  0  0  0  0  0  0  0  0  0  0  0
   -5.7568   -0.7715   -1.2704 H   0  0  0  0  0  0  0  0  0  0  0  0
   -3.2124   -1.3578   -1.1289 N   0  0  0  0  0  0  0  0  0  0  0  0
   -1.8971   -1.8843   -0.8752 C   0  0  2  0  0  0  0  0  0  0  0  0
   -1.2676   -1.0599    0.2399 C   0  0  0  0  0  0  0  0  0  0  0  0
   -1.6270    0.0833    0.5138 O   0  0  0  0  0  0  0  0  0  0  0  0
   -1.0364   -1.8506   -2.1285 C   0  0  0  0  0  0  0  0  0  0  0  0
   -3.5631   -0.6202   -0.5206 H   0  0  0  0  0  0  0  0  0  0  0  0
   -2.0301   -2.9174   -0.5360 H   0  0  0  0  0  0  0  0  0  0  0  0
   -0.8921   -0.8236   -2.4833 H   0  0  0  0  0  0  0  0  0  0  0  0
   -0.0457   -2.2777   -1.9410 H   0  0  0  0  0  0  0  0  0  0  0  0
   -1.5052   -2.4193   -2.9387 H   0  0  0  0  0  0  0  0  0  0  0  0
   -0.2267   -1.7335    0.8672 N   0  0  0  0  0  0  0  0  0  0  0  0
    0.5363   -1.1590    1.9465 C   0  0  2  0  0  0  0  0  0  0  0  0
   -0.4571   -0.5158    2.9074 C   0  0  0  0  0  0  0  0  0  0  0  0
   -0.4708    0.6892    3.1501 O   0  0  0  0  0  0  0  0  0  0  0  0
    1.5419   -0.1259    1.4437 C   0  0  0  0  0  0  0  0  0  0  0  0
    2.7218   -0.6650    0.6248 C   0  0  0  0  0  0  0  0  0  0  0  0
    3.0597   -1.8473    0.9231 O   0  5  0  0  0  0  0  0  0  0  0  0
    3.2200    0.1164   -0.2308 O   0  0  0  0  0  0  0  0  0  0  0  0
   -0.0113   -2.6869    0.5854 H   0  0  0  0  0  0  0  0  0  0  0  0
    1.0411   -1.9895    2.4527 H   0  0  0  0  0  0  0  0  0  0  0  0
    1.9508    0.4360    2.2947 H   0  0  0  0  0  0  0  0  0  0  0  0
    1.0312    0.6065    0.8050 H   0  0  0  0  0  0  0  0  0  0  0  0
   -1.3583   -1.4381    3.4207 N   0  0  0  0  0  0  0  0  0  0  0  0
   -2.4192   -1.0722    4.3300 C   0  0  2  0  0  0  0  0  0  0  0  0
   -2.6820   -2.2588    5.2479 C   0  0  0  0  0  0  0  0  0  0  0  0
   -2.3820   -3.4140    4.9534 O   0  0  0  0  0  0  0  0  0  0  0  0
   -3.6806   -0.6767    3.5782 C   0  0  0  0  0  0  0  0  0  0  0  0
   -1.3014   -2.4087    3.1266 H   0  0  0  0  0  0  0  0  0  0  0  0
   -2.0512   -0.2268    4.9215 H   0  0  0  0  0  0  0  0  0  0  0  0
   -4.0641   -1.5111    2.9799 H   0  0  0  0  0  0  0  0  0  0  0  0
   -4.4746   -0.3722    4.2681 H   0  0  0  0  0  0  0  0  0  0  0  0
   -3.4826    0.1576    2.8966 H   0  0  0  0  0  0  0  0  0  0  0  0
   -3.3301   -1.8817    6.4158 N   0  0  0  0  0  0  0  0  0  0  0  0
   -3.7009   -2.8280    7.4420 C   0  0  0  0  0  0  0  0  0  0  0  0
   -3.5231   -0.8990    6.5851 H   0  0  0  0  0  0  0  0  0  0  0  0
   -4.7292   -3.1767    7.2656 H   0  0  0  0  0  0  0  0  0  0  0  0
   -3.0132   -3.6861    7.4151 H   0  0  0  0  0  0  0  0  0  0  0  0
   -3.6425   -2.3420    8.4271 H   0  0  0  0  0  0  0  0  0  0  0  0
  1  3  1  0  0  0  0
  1  7  1  0  0  0  0
  1  2  2  0  0  0  0
 30 31  1  0  0  0  0
 31 39  1  0  0  0  0
 31 32  2  0  0  0  0
  8  9  1  0  0  0  0
  9 17  1  0  0  0  0
  9 10  2  0  0  0  0
 18 19  1  0  0  0  0
 19 29  1  0  0  0  0
 19 20  2  0  0  0  0
 21 22  1  0  0  0  0
 22 23  1  0  0  0  0
 22 24  2  0  0  0  0
 30 33  1  0  0  0  0
  8 11  1  0  0  0  0
 39 40  1  0  0  0  0
 18 21  1  0  0  0  0
 29 30  1  0  0  0  0
  7  8  1  0  0  0  0
 17 18  1  0  0  0  0
  3  4  1  0  0  0  0
  3  5  1  0  0  0  0
  3  6  1  0  0  0  0
 33 36  1  0  0  0  0
 33 37  1  0  0  0  0
 33 38  1  0  0  0  0
 11 14  1  0  0  0  0
 11 15  1  0  0  0  0
 11 16  1  0  0  0  0
 40 42  1  0  0  0  0
 40 43  1  0  0  0  0
 40 44  1  0  0  0  0
 21 27  1  0  0  0  0
 21 28  1  0  0  0  0
 30 35  1  0  0  0  0
  8 13  1  0  0  0  0
 18 26  1  0  0  0  0
 39 41  1  0  0  0  0
  7 12  1  0  0  0  0
 29 34  1  0  0  0  0
 17 25  1  0  0  0  0
M  CHG  1  23  -1
M  END
$$$$

  -OEChem-05262214473D

 44 43  0     1  0  0  0  0  0999 V2000
   -4.0256   -1.8030   -2.1581 C   0  0  0  0  0  0  0  0  0  0  0  0
   -3.7513   -2.6782   -2.9709 O   0  0  0  0  0  0  0  0  0  0  0  0
   -5.3491   -1.1169   -2.2339 C   0  0  0  0  0  0  0  0  0  0  0  0
   -5.3223   -0.2211   -2.8750 H   0  0  0  0  0  0  0  0  0  0  0  0
   -6.1322   -1.7605   -2.6658 H   0  0  0  0  0  0  0  0  0  0  0  0
   -5.7568   -0.7715   -1.2704 H   0  0  0  0  0  0  0  0  0  0  0  0
   -3.2124   -1.3578   -1.1289 N   0  0  0  0  0  0  0  0  0  0  0  0
   -1.8971   -1.8843   -0.8752 C   0  0  2  0  0  0  0  0  0  0  0  0
   -1.2676   -1.0599    0.2399 C   0  0  0  0  0  0  0  0  0  0  0  0
   -1.6270    0.0833    0.5138 O   0  0  0  0  0  0  0  0  0  0  0  0
   -1.0364   -1.8506   -2.1285 C   0  0  0  0  0  0  0  0  0  0  0  0
   -3.5631   -0.6202   -0.5206 H   0  0  0  0  0  0  0  0  0  0  0  0
   -2.0301   -2.9174   -0.5360 H   0  0  0  0  0  0  0  0  0  0  0  0
   -0.8921   -0.8236   -2.4833 H   0  0  0  0  0  0  0  0  0  0  0  0
   -0.0457   -2.2777   -1.9410 H   0  0  0  0  0  0  0  0  0  0  0  0
   -1.5052   -2.4193   -2.9387 H   0  0  0  0  0  0  0  0  0  0  0  0
   -0.2267   -1.7335    0.8672 N   0  0  0  0  0  0  0  0  0  0  0  0
    0.5363   -1.1590    1.9465 C   0  0  2  0  0  0  0  0  0  0  0  0
   -0.4571   -0.5158    2.9074 C   0  0  0  0  0  0  0  0  0  0  0  0
   -0.6553    0.6965    2.9545 O   0  0  0  0  0  0  0  0  0  0  0  0
    1.5419   -0.1259    1.4437 C   0  0  0  0  0  0  0  0  0  0  0  0
    2.7218   -0.6650    0.6248 C   0  0  0  0  0  0  0  0  0  0  0  0
    3.0597   -1.8473    0.9231 O   0  5  0  0  0  0  0  0  0  0  0  0
    3.2200    0.1164   -0.2308 O   0  0  0  0  0  0  0  0  0  0  0  0
   -0.0113   -2.6869    0.5854 H   0  0  0  0  0  0  0  0  0  0  0  0
    1.0411   -1.9895    2.4527 H   0  0  0  0  0  0  0  0  0  0  0  0
    1.9508    0.4360    2.2947 H   0  0  0  0  0  0  0  0  0  0  0  0
    1.0312    0.6065    0.8050 H   0  0  0  0  0  0  0  0  0  0  0  0
   -1.1326   -1.4596    3.6683 N   0  0  0  0  0  0  0  0  0  0  0  0
   -2.1493   -1.1055    4.6314 C   0  0  2  0  0  0  0  0  0  0  0  0
   -2.1149   -2.1362    5.7521 C   0  0  0  0  0  0  0  0  0  0  0  0
   -1.6495   -3.2652    5.6111 O   0  0  0  0  0  0  0  0  0  0  0  0
   -3.5257   -1.0486    3.9873 C   0  0  0  0  0  0  0  0  0  0  0  0
   -0.9374   -2.4466    3.5283 H   0  0  0  0  0  0  0  0  0  0  0  0
   -1.8781   -0.1220    5.0304 H   0  0  0  0  0  0  0  0  0  0  0  0
   -3.8148   -2.0250    3.5816 H   0  0  0  0  0  0  0  0  0  0  0  0
   -4.2911   -0.7522    4.7122 H   0  0  0  0  0  0  0  0  0  0  0  0
   -3.5404   -0.3284    3.1621 H   0  0  0  0  0  0  0  0  0  0  0  0
   -2.7041   -1.6618    6.9157 N   0  0  0  0  0  0  0  0  0  0  0  0
   -2.8067   -2.4562    8.1175 C   0  0  0  0  0  0  0  0  0  0  0  0
   -3.0468   -0.7061    6.9485 H   0  0  0  0  0  0  0  0  0  0  0  0
   -3.7715   -2.9845    8.1271 H   0  0  0  0  0  0  0  0  0  0  0  0
   -1.9870   -3.1892    8.1434 H   0  0  0  0  0  0  0  0  0  0  0  0
   -2.7395   -1.7997    8.9976 H   0  0  0  0  0  0  0  0  0  0  0  0
  1  3  1  0  0  0  0
  1  7  1  0  0  0  0
  1  2  2  0  0  0  0
 30 31  1  0  0  0  0
 31 39  1  0  0  0  0
 31 32  2  0  0  0  0
  8  9  1  0  0  0  0
  9 17  1  0  0  0  0
  9 10  2  0  0  0  0
 18 19  1  0  0  0  0
 19 29  1  0  0  0  0
 19 20  2  0  0  0  0
 21 22  1  0  0  0  0
 22 23  1  0  0  0  0
 22 24  2  0  0  0  0
 30 33  1  0  0  0  0
  8 11  1  0  0  0  0
 39 40  1  0  0  0  0
 18 21  1  0  0  0  0
 29 30  1  0  0  0  0
  7  8  1  0  0  0  0
 17 18  1  0  0  0  0
  3  4  1  0  0  0  0
  3  5  1  0  0  0  0
  3  6  1  0  0  0  0
 33 36  1  0  0  0  0
 33 37  1  0  0  0  0
 33 38  1  0  0  0  0
 11 14  1  0  0  0  0
 11 15  1  0  0  0  0
 11 16  1  0  0  0  0
 40 42  1  0  0  0  0
 40 43  1  0  0  0  0
 40 44  1  0  0  0  0
 21 27  1  0  0  0  0
 21 28  1  0  0  0  0
 30 35  1  0  0  0  0
  8 13  1  0  0  0  0
 18 26  1  0  0  0  0
 39 41  1  0  0  0  0
  7 12  1  0  0  0  0
 29 34  1  0  0  0  0
 17 25  1  0  0  0  0
M  CHG  1  23  -1
M  END
$$$$

  -OEChem-05262214473D

 44 43  0     1  0  0  0  0  0999 V2000
   -4.0256   -1.8030   -2.1581 C   0  0  0  0  0  0  0  0  0  0  0  0
   -3.7513   -2.6782   -2.9709 O   0  0  0  0  0  0  0  0  0  0  0  0
   -5.3491   -1.1169   -2.2339 C   0  0  0  0  0  0  0  0  0  0  0  0
   -5.3223   -0.2211   -2.8750 H   0  0  0  0  0  0  0  0  0  0  0  0
   -6.1322   -1.7605   -2.6658 H   0  0  0  0  0  0  0  0  0  0  0  0
   -5.7568   -0.7715   -1.2704 H   0  0  0  0  0  0  0  0  0  0  0  0
   -3.2124   -1.3578   -1.1289 N   0  0  0  0  0  0  0  0  0  0  0  0
   -1.8971   -1.8843   -0.8752 C   0  0  2  0  0  0  0  0  0  0  0  0
   -1.2676   -1.0599    0.2399 C   0  0  0  0  0  0  0  0  0  0  0  0
   -1.6270    0.0833    0.5138 O   0  0  0  0  0  0  0  0  0  0  0  0
   -1.0364   -1.8506   -2.1285 C   0  0  0  0  0  0  0  0  0  0  0  0
   -3.5631   -0.6202   -0.5206 H   0  0  0  0  0  0  0  0  0  0  0  0
   -2.0301   -2.9174   -0.5360 H   0  0  0  0  0  0  0  0  0  0  0  0
   -0.8921   -0.8236   -2.4833 H   0  0  0  0  0  0  0  0  0  0  0  0
   -0.0457   -2.2777   -1.9410 H   0  0  0  0  0  0  0  0  0  0  0  0
   -1.5052   -2.4193   -2.9387 H   0  0  0  0  0  0  0  0  0  0  0  0
   -0.2267   -1.7335    0.8672 N   0  0  0  0  0  0  0  0  0  0  0  0
    0.5363   -1.1590    1.9465 C   0  0  2  0  0  0  0  0  0  0  0  0
   -0.4571   -0.5158    2.9074 C   0  0  0  0  0  0  0  0  0  0  0  0
   -0.8561    0.6404    2.7844 O   0  0  0  0  0  0  0  0  0  0  0  0
    1.5419   -0.1259    1.4437 C   0  0  0  0  0  0  0  0  0  0  0  0
    2.7218   -0.6650    0.6248 C   0  0  0  0  0  0  0  0  0  0  0  0
    3.0597   -1.8473    0.9231 O   0  5  0  0  0  0  0  0  0  0  0  0
    3.2200    0.1164   -0.2308 O   0  0  0  0  0  0  0  0  0  0  0  0
   -0.0113   -2.6869    0.5854 H   0  0  0  0  0  0  0  0  0  0  0  0
    1.0411   -1.9895    2.4527 H   0  0  0  0  0  0  0  0  0  0  0  0
    1.9508    0.4360    2.2947 H   0  0  0  0  0  0  0  0  0  0  0  0
    1.0312    0.6065    0.8050 H   0  0  0  0  0  0  0  0  0  0  0  0
   -0.8841   -1.4019    3.8866 N   0  0  0  0  0  0  0  0  0  0  0  0
   -1.8503   -1.0428    4.8985 C   0  0  2  0  0  0  0  0  0  0  0  0
   -1.5320   -1.8402    6.1565 C   0  0  0  0  0  0  0  0  0  0  0  0
   -0.8944   -2.8910    6.1413 O   0  0  0  0  0  0  0  0  0  0  0  0
   -3.2709   -1.3137    4.4282 C   0  0  0  0  0  0  0  0  0  0  0  0
   -0.5358   -2.3560    3.8828 H   0  0  0  0  0  0  0  0  0  0  0  0
   -1.7160    0.0257    5.0990 H   0  0  0  0  0  0  0  0  0  0  0  0
   -3.4244   -2.3793    4.2223 H   0  0  0  0  0  0  0  0  0  0  0  0
   -4.0033   -1.0144    5.1852 H   0  0  0  0  0  0  0  0  0  0  0  0
   -3.4881   -0.7625    3.5068 H   0  0  0  0  0  0  0  0  0  0  0  0
   -2.0807   -1.2628    7.2931 N   0  0  0  0  0  0  0  0  0  0  0  0
   -1.9299   -1.8372    8.6096 C   0  0  0  0  0  0  0  0  0  0  0  0
   -2.5784   -0.3808    7.2149 H   0  0  0  0  0  0  0  0  0  0  0  0
   -2.7836   -2.4974    8.8223 H   0  0  0  0  0  0  0  0  0  0  0  0
   -0.9973   -2.4191    8.6511 H   0  0  0  0  0  0  0  0  0  0  0  0
   -1.8935   -1.0324    9.3586 H   0  0  0  0  0  0  0  0  0  0  0  0
  1  3  1  0  0  0  0
  1  7  1  0  0  0  0
  1  2  2  0  0  0  0
 30 31  1  0  0  0  0
 31 39  1  0  0  0  0
 31 32  2  0  0  0  0
  8  9  1  0  0  0  0
  9 17  1  0  0  0  0
  9 10  2  0  0  0  0
 18 19  1  0  0  0  0
 19 29  1  0  0  0  0
 19 20  2  0  0  0  0
 21 22  1  0  0  0  0
 22 23  1  0  0  0  0
 22 24  2  0  0  0  0
 30 33  1  0  0  0  0
  8 11  1  0  0  0  0
 39 40  1  0  0  0  0
 18 21  1  0  0  0  0
 29 30  1  0  0  0  0
  7  8  1  0  0  0  0
 17 18  1  0  0  0  0
  3  4  1  0  0  0  0
  3  5  1  0  0  0  0
  3  6  1  0  0  0  0
 33 36  1  0  0  0  0
 33 37  1  0  0  0  0
 33 38  1  0  0  0  0
 11 14  1  0  0  0  0
 11 15  1  0  0  0  0
 11 16  1  0  0  0  0
 40 42  1  0  0  0  0
 40 43  1  0  0  0  0
 40 44  1  0  0  0  0
 21 27  1  0  0  0  0
 21 28  1  0  0  0  0
 30 35  1  0  0  0  0
  8 13  1  0  0  0  0
 18 26  1  0  0  0  0
 39 41  1  0  0  0  0
  7 12  1  0  0  0  0
 29 34  1  0  0  0  0
 17 25  1  0  0  0  0
M  CHG  1  23  -1
M  END
$$$$

  -OEChem-05262214473D

 44 43  0     1  0  0  0  0  0999 V2000
   -4.0256   -1.8030   -2.1581 C   0  0  0  0  0  0  0  0  0  0  0  0
   -3.7513   -2.6782   -2.9709 O   0  0  0  0  0  0  0  0  0  0  0  0
   -5.3491   -1.1169   -2.2339 C   0  0  0  0  0  0  0  0  0  0  0  0
   -5.3223   -0.2211   -2.8750 H   0  0  0  0  0  0  0  0  0  0  0  0
   -6.1322   -1.7605   -2.6658 H   0  0  0  0  0  0  0  0  0  0  0  0
   -5.7568   -0.7715   -1.2704 H   0  0  0  0  0  0  0  0  0  0  0  0
   -3.2124   -1.3578   -1.1289 N   0  0  0  0  0  0  0  0  0  0  0  0
   -1.8971   -1.8843   -0.8752 C   0  0  2  0  0  0  0  0  0  0  0  0
   -1.2676   -1.0599    0.2399 C   0  0  0  0  0  0  0  0  0  0  0  0
   -1.6270    0.0833    0.5138 O   0  0  0  0  0  0  0  0  0  0  0  0
   -1.0364   -1.8506   -2.1285 C   0  0  0  0  0  0  0  0  0  0  0  0
   -3.5631   -0.6202   -0.5206 H   0  0  0  0  0  0  0  0  0  0  0  0
   -2.0301   -2.9174   -0.5360 H   0  0  0  0  0  0  0  0  0  0  0  0
   -0.8921   -0.8236   -2.4833 H   0  0  0  0  0  0  0  0  0  0  0  0
   -0.0457   -2.2777   -1.9410 H   0  0  0  0  0  0  0  0  0  0  0  0
   -1.5052   -2.4193   -2.9387 H   0  0  0  0  0  0  0  0  0  0  0  0
   -0.2267   -1.7335    0.8672 N   0  0  0  0  0  0  0  0  0  0  0  0
    0.5363   -1.1590    1.9465 C   0  0  2  0  0  0  0  0  0  0  0  0
   -0.4571   -0.5158    2.9074 C   0  0  0  0  0  0  0  0  0  0  0  0
   -1.0594    0.5248    2.6516 O   0  0  0  0  0  0  0  0  0  0  0  0
    1.5419   -0.1259    1.4437 C   0  0  0  0  0  0  0  0  0  0  0  0
    2.7218   -0.6650    0.6248 C   0  0  0  0  0  0  0  0  0  0  0  0
    3.0597   -1.8473    0.9231 O   0  5  0  0  0  0  0  0  0  0  0  0
    3.2200    0.1164   -0.2308 O   0  0  0  0  0  0  0  0  0  0  0  0
   -0.0113   -2.6869    0.5854 H   0  0  0  0  0  0  0  0  0  0  0  0
    1.0411   -1.9895    2.4527 H   0  0  0  0  0  0  0  0  0  0  0  0
    1.9508    0.4360    2.2947 H   0  0  0  0  0  0  0  0  0  0  0  0
    1.0312    0.6065    0.8050 H   0  0  0  0  0  0  0  0  0  0  0  0
   -0.6297   -1.2687    4.0605 N   0  0  0  0  0  0  0  0  0  0  0  0
   -1.5425   -0.8884    5.1134 C   0  0  2  0  0  0  0  0  0  0  0  0
   -0.9732   -1.3909    6.4336 C   0  0  0  0  0  0  0  0  0  0  0  0
   -0.1682   -2.3170    6.5078 O   0  0  0  0  0  0  0  0  0  0  0  0
   -2.9333   -1.4537    4.8709 C   0  0  0  0  0  0  0  0  0  0  0  0
   -0.1239   -2.1432    4.1662 H   0  0  0  0  0  0  0  0  0  0  0  0
   -1.5761    0.2065    5.1227 H   0  0  0  0  0  0  0  0  0  0  0  0
   -2.9195   -2.5497    4.8583 H   0  0  0  0  0  0  0  0  0  0  0  0
   -3.6309   -1.1410    5.6549 H   0  0  0  0  0  0  0  0  0  0  0  0
   -3.3290   -1.1151    3.9073 H   0  0  0  0  0  0  0  0  0  0  0  0
   -1.5025   -0.7121    7.5223 N   0  0  0  0  0  0  0  0  0  0  0  0
   -1.1302   -1.0132    8.8849 C   0  0  0  0  0  0  0  0  0  0  0  0
   -2.1500    0.0547    7.3663 H   0  0  0  0  0  0  0  0  0  0  0  0
   -1.8330   -1.7485    9.3037 H   0  0  0  0  0  0  0  0  0  0  0  0
   -0.1116   -1.4280    8.9034 H   0  0  0  0  0  0  0  0  0  0  0  0
   -1.1620   -0.0923    9.4856 H   0  0  0  0  0  0  0  0  0  0  0  0
  1  3  1  0  0  0  0
  1  7  1  0  0  0  0
  1  2  2  0  0  0  0
 30 31  1  0  0  0  0
 31 39  1  0  0  0  0
 31 32  2  0  0  0  0
  8  9  1  0  0  0  0
  9 17  1  0  0  0  0
  9 10  2  0  0  0  0
 18 19  1  0  0  0  0
 19 29  1  0  0  0  0
 19 20  2  0  0  0  0
 21 22  1  0  0  0  0
 22 23  1  0  0  0  0
 22 24  2  0  0  0  0
 30 33  1  0  0  0  0
  8 11  1  0  0  0  0
 39 40  1  0  0  0  0
 18 21  1  0  0  0  0
 29 30  1  0  0  0  0
  7  8  1  0  0  0  0
 17 18  1  0  0  0  0
  3  4  1  0  0  0  0
  3  5  1  0  0  0  0
  3  6  1  0  0  0  0
 33 36  1  0  0  0  0
 33 37  1  0  0  0  0
 33 38  1  0  0  0  0
 11 14  1  0  0  0  0
 11 15  1  0  0  0  0
 11 16  1  0  0  0  0
 40 42  1  0  0  0  0
 40 43  1  0  0  0  0
 40 44  1  0  0  0  0
 21 27  1  0  0  0  0
 21 28  1  0  0  0  0
 30 35  1  0  0  0  0
  8 13  1  0  0  0  0
 18 26  1  0  0  0  0
 39 41  1  0  0  0  0
  7 12  1  0  0  0  0
 29 34  1  0  0  0  0
 17 25  1  0  0  0  0
M  CHG  1  23  -1
M  END
$$$$

  -OEChem-05262214473D

 44 43  0     1  0  0  0  0  0999 V2000
   -4.0256   -1.8030   -2.1581 C   0  0  0  0  0  0  0  0  0  0  0  0
   -3.7513   -2.6782   -2.9709 O   0  0  0  0  0  0  0  0  0  0  0  0
   -5.3491   -1.1169   -2.2339 C   0  0  0  0  0  0  0  0  0  0  0  0
   -5.3223   -0.2211   -2.8750 H   0  0  0  0  0  0  0  0  0  0  0  0
   -6.1322   -1.7605   -2.6658 H   0  0  0  0  0  0  0  0  0  0  0  0
   -5.7568   -0.7715   -1.2704 H   0  0  0  0  0  0  0  0  0  0  0  0
   -3.2124   -1.3578   -1.1289 N   0  0  0  0  0  0  0  0  0  0  0  0
   -1.8971   -1.8843   -0.8752 C   0  0  2  0  0  0  0  0  0  0  0  0
   -1.2676   -1.0599    0.2399 C   0  0  0  0  0  0  0  0  0  0  0  0
   -1.6270    0.0833    0.5138 O   0  0  0  0  0  0  0  0  0  0  0  0
   -1.0364   -1.8506   -2.1285 C   0  0  0  0  0  0  0  0  0  0  0  0
   -3.5631   -0.6202   -0.5206 H   0  0  0  0  0  0  0  0  0  0  0  0
   -2.0301   -2.9174   -0.5360 H   0  0  0  0  0  0  0  0  0  0  0  0
   -0.8921   -0.8236   -2.4833 H   0  0  0  0  0  0  0  0  0  0  0  0
   -0.0457   -2.2777   -1.9410 H   0  0  0  0  0  0  0  0  0  0  0  0
   -1.5052   -2.4193   -2.9387 H   0  0  0  0  0  0  0  0  0  0  0  0
   -0.2267   -1.7335    0.8672 N   0  0  0  0  0  0  0  0  0  0  0  0
    0.5363   -1.1590    1.9465 C   0  0  2  0  0  0  0  0  0  0  0  0
   -0.4571   -0.5158    2.9074 C   0  0  0  0  0  0  0  0  0  0  0  0
   -1.2515    0.3576    2.5650 O   0  0  0  0  0  0  0  0  0  0  0  0
    1.5419   -0.1259    1.4437 C   0  0  0  0  0  0  0  0  0  0  0  0
    2.7218   -0.6650    0.6248 C   0  0  0  0  0  0  0  0  0  0  0  0
    3.0597   -1.8473    0.9231 O   0  5  0  0  0  0  0  0  0  0  0  0
    3.2200    0.1164   -0.2308 O   0  0  0  0  0  0  0  0  0  0  0  0
   -0.0113   -2.6869    0.5854 H   0  0  0  0  0  0  0  0  0  0  0  0
    1.0411   -1.9895    2.4527 H   0  0  0  0  0  0  0  0  0  0  0  0
    1.9508    0.4360    2.2947 H   0  0  0  0  0  0  0  0  0  0  0  0
    1.0312    0.6065    0.8050 H   0  0  0  0  0  0  0  0  0  0  0  0
   -0.3866   -1.0692    4.1782 N   0  0  0  0  0  0  0  0  0  0  0  0
   -1.2469   -0.6528    5.2613 C   0  0  2  0  0  0  0  0  0  0  0  0
   -0.4764   -0.8191    6.5644 C   0  0  0  0  0  0  0  0  0  0  0  0
    0.4796   -1.5823    6.6857 O   0  0  0  0  0  0  0  0  0  0  0  0
   -2.5360   -1.4592    5.2854 C   0  0  0  0  0  0  0  0  0  0  0  0
    0.2701   -1.8227    4.3590 H   0  0  0  0  0  0  0  0  0  0  0  0
   -1.4678    0.4079    5.0998 H   0  0  0  0  0  0  0  0  0  0  0  0
   -2.3347   -2.5246    5.4462 H   0  0  0  0  0  0  0  0  0  0  0  0
   -3.1992   -1.1232    6.0892 H   0  0  0  0  0  0  0  0  0  0  0  0
   -3.0741   -1.3623    4.3363 H   0  0  0  0  0  0  0  0  0  0  0  0
   -1.0088   -0.0472    7.5876 N   0  0  0  0  0  0  0  0  0  0  0  0
   -0.4621   -0.0404    8.9244 C   0  0  0  0  0  0  0  0  0  0  0  0
   -1.7908    0.5709    7.3922 H   0  0  0  0  0  0  0  0  0  0  0  0
   -0.9845   -0.7888    9.5386 H   0  0  0  0  0  0  0  0  0  0  0  0
    0.6099   -0.2837    8.8833 H   0  0  0  0  0  0  0  0  0  0  0  0
   -0.5950    0.9566    9.3697 H   0  0  0  0  0  0  0  0  0  0  0  0
  1  3  1  0  0  0  0
  1  7  1  0  0  0  0
  1  2  2  0  0  0  0
 30 31  1  0  0  0  0
 31 39  1  0  0  0  0
 31 32  2  0  0  0  0
  8  9  1  0  0  0  0
  9 17  1  0  0  0  0
  9 10  2  0  0  0  0
 18 19  1  0  0  0  0
 19 29  1  0  0  0  0
 19 20  2  0  0  0  0
 21 22  1  0  0  0  0
 22 23  1  0  0  0  0
 22 24  2  0  0  0  0
 30 33  1  0  0  0  0
  8 11  1  0  0  0  0
 39 40  1  0  0  0  0
 18 21  1  0  0  0  0
 29 30  1  0  0  0  0
  7  8  1  0  0  0  0
 17 18  1  0  0  0  0
  3  4  1  0  0  0  0
  3  5  1  0  0  0  0
  3  6  1  0  0  0  0
 33 36  1  0  0  0  0
 33 37  1  0  0  0  0
 33 38  1  0  0  0  0
 11 14  1  0  0  0  0
 11 15  1  0  0  0  0
 11 16  1  0  0  0  0
 40 42  1  0  0  0  0
 40 43  1  0  0  0  0
 40 44  1  0  0  0  0
 21 27  1  0  0  0  0
 21 28  1  0  0  0  0
 30 35  1  0  0  0  0
  8 13  1  0  0  0  0
 18 26  1  0  0  0  0
 39 41  1  0  0  0  0
  7 12  1  0  0  0  0
 29 34  1  0  0  0  0
 17 25  1  0  0  0  0
M  CHG  1  23  -1
M  END
$$$$

  -OEChem-05262214473D

 44 43  0     1  0  0  0  0  0999 V2000
   -4.0256   -1.8030   -2.1581 C   0  0  0  0  0  0  0  0  0  0  0  0
   -3.7513   -2.6782   -2.9709 O   0  0  0  0  0  0  0  0  0  0  0  0
   -5.3491   -1.1169   -2.2339 C   0  0  0  0  0  0  0  0  0  0  0  0
   -5.3223   -0.2211   -2.8750 H   0  0  0  0  0  0  0  0  0  0  0  0
   -6.1322   -1.7605   -2.6658 H   0  0  0  0  0  0  0  0  0  0  0  0
   -5.7568   -0.7715   -1.2704 H   0  0  0  0  0  0  0  0  0  0  0  0
   -3.2124   -1.3578   -1.1289 N   0  0  0  0  0  0  0  0  0  0  0  0
   -1.8971   -1.8843   -0.8752 C   0  0  2  0  0  0  0  0  0  0  0  0
   -1.2676   -1.0599    0.2399 C   0  0  0  0  0  0  0  0  0  0  0  0
   -1.6270    0.0833    0.5138 O   0  0  0  0  0  0  0  0  0  0  0  0
   -1.0364   -1.8506   -2.1285 C   0  0  0  0  0  0  0  0  0  0  0  0
   -3.5631   -0.6202   -0.5206 H   0  0  0  0  0  0  0  0  0  0  0  0
   -2.0301   -2.9174   -0.5360 H   0  0  0  0  0  0  0  0  0  0  0  0
   -0.8921   -0.8236   -2.4833 H   0  0  0  0  0  0  0  0  0  0  0  0
   -0.0457   -2.2777   -1.9410 H   0  0  0  0  0  0  0  0  0  0  0  0
   -1.5052   -2.4193   -2.9387 H   0  0  0  0  0  0  0  0  0  0  0  0
   -0.2267   -1.7335    0.8672 N   0  0  0  0  0  0  0  0  0  0  0  0
    0.5363   -1.1590    1.9465 C   0  0  2  0  0  0  0  0  0  0  0  0
   -0.4571   -0.5158    2.9074 C   0  0  0  0  0  0  0  0  0  0  0  0
   -1.4192    0.1501    2.5305 O   0  0  0  0  0  0  0  0  0  0  0  0
    1.5419   -0.1259    1.4437 C   0  0  0  0  0  0  0  0  0  0  0  0
    2.7218   -0.6650    0.6248 C   0  0  0  0  0  0  0  0  0  0  0  0
    3.0597   -1.8473    0.9231 O   0  5  0  0  0  0  0  0  0  0  0  0
    3.2200    0.1164   -0.2308 O   0  0  0  0  0  0  0  0  0  0  0  0
   -0.0113   -2.6869    0.5854 H   0  0  0  0  0  0  0  0  0  0  0  0
    1.0411   -1.9895    2.4527 H   0  0  0  0  0  0  0  0  0  0  0  0
    1.9508    0.4360    2.2947 H   0  0  0  0  0  0  0  0  0  0  0  0
    1.0312    0.6065    0.8050 H   0  0  0  0  0  0  0  0  0  0  0  0
   -0.1716   -0.8170    4.2318 N   0  0  0  0  0  0  0  0  0  0  0  0
   -0.9836   -0.3521    5.3321 C   0  0  2  0  0  0  0  0  0  0  0  0
   -0.0755   -0.1636    6.5401 C   0  0  0  0  0  0  0  0  0  0  0  0
    1.0050   -0.7369    6.6629 O   0  0  0  0  0  0  0  0  0  0  0  0
   -2.1061   -1.3299    5.6432 C   0  0  0  0  0  0  0  0  0  0  0  0
    0.6195   -1.4163    4.4482 H   0  0  0  0  0  0  0  0  0  0  0  0
   -1.3987    0.6162    5.0318 H   0  0  0  0  0  0  0  0  0  0  0  0
   -1.7096   -2.3059    5.9460 H   0  0  0  0  0  0  0  0  0  0  0  0
   -2.7378   -0.9624    6.4586 H   0  0  0  0  0  0  0  0  0  0  0  0
   -2.7408   -1.4871    4.7644 H   0  0  0  0  0  0  0  0  0  0  0  0
   -0.6332    0.6866    7.4847 N   0  0  0  0  0  0  0  0  0  0  0  0
    0.0289    1.0148    8.7256 C   0  0  0  0  0  0  0  0  0  0  0  0
   -1.5251    1.1324    7.2910 H   0  0  0  0  0  0  0  0  0  0  0  0
   -0.2957    0.3163    9.5109 H   0  0  0  0  0  0  0  0  0  0  0  0
    1.1179    0.9359    8.5921 H   0  0  0  0  0  0  0  0  0  0  0  0
   -0.2310    2.0426    9.0190 H   0  0  0  0  0  0  0  0  0  0  0  0
  1  3  1  0  0  0  0
  1  7  1  0  0  0  0
  1  2  2  0  0  0  0
 30 31  1  0  0  0  0
 31 39  1  0  0  0  0
 31 32  2  0  0  0  0
  8  9  1  0  0  0  0
  9 17  1  0  0  0  0
  9 10  2  0  0  0  0
 18 19  1  0  0  0  0
 19 29  1  0  0  0  0
 19 20  2  0  0  0  0
 21 22  1  0  0  0  0
 22 23  1  0  0  0  0
 22 24  2  0  0  0  0
 30 33  1  0  0  0  0
  8 11  1  0  0  0  0
 39 40  1  0  0  0  0
 18 21  1  0  0  0  0
 29 30  1  0  0  0  0
  7  8  1  0  0  0  0
 17 18  1  0  0  0  0
  3  4  1  0  0  0  0
  3  5  1  0  0  0  0
  3  6  1  0  0  0  0
 33 36  1  0  0  0  0
 33 37  1  0  0  0  0
 33 38  1  0  0  0  0
 11 14  1  0  0  0  0
 11 15  1  0  0  0  0
 11 16  1  0  0  0  0
 40 42  1  0  0  0  0
 40 43  1  0  0  0  0
 40 44  1  0  0  0  0
 21 27  1  0  0  0  0
 21 28  1  0  0  0  0
 30 35  1  0  0  0  0
  8 13  1  0  0  0  0
 18 26  1  0  0  0  0
 39 41  1  0  0  0  0
  7 12  1  0  0  0  0
 29 34  1  0  0  0  0
 17 25  1  0  0  0  0
M  CHG  1  23  -1
M  END
$$$$

  -OEChem-05262214473D

 44 43  0     1  0  0  0  0  0999 V2000
   -4.0256   -1.8030   -2.1581 C   0  0  0  0  0  0  0  0  0  0  0  0
   -3.7513   -2.6782   -2.9709 O   0  0  0  0  0  0  0  0  0  0  0  0
   -5.3491   -1.1169   -2.2339 C   0  0  0  0  0  0  0  0  0  0  0  0
   -5.3223   -0.2211   -2.8750 H   0  0  0  0  0  0  0  0  0  0  0  0
   -6.1322   -1.7605   -2.6658 H   0  0  0  0  0  0  0  0  0  0  0  0
   -5.7568   -0.7715   -1.2704 H   0  0  0  0  0  0  0  0  0  0  0  0
   -3.2124   -1.3578   -1.1289 N   0  0  0  0  0  0  0  0  0  0  0  0
   -1.8971   -1.8843   -0.8752 C   0  0  2  0  0  0  0  0  0  0  0  0
   -1.2676   -1.0599    0.2399 C   0  0  0  0  0  0  0  0  0  0  0  0
   -1.6270    0.0833    0.5138 O   0  0  0  0  0  0  0  0  0  0  0  0
   -1.0364   -1.8506   -2.1285 C   0  0  0  0  0  0  0  0  0  0  0  0
   -3.5631   -0.6202   -0.5206 H   0  0  0  0  0  0  0  0  0  0  0  0
   -2.0301   -2.9174   -0.5360 H   0  0  0  0  0  0  0  0  0  0  0  0
   -0.8921   -0.8236   -2.4833 H   0  0  0  0  0  0  0  0  0  0  0  0
   -0.0457   -2.2777   -1.9410 H   0  0  0  0  0  0  0  0  0  0  0  0
   -1.5052   -2.4193   -2.9387 H   0  0  0  0  0  0  0  0  0  0  0  0
   -0.2267   -1.7335    0.8672 N   0  0  0  0  0  0  0  0  0  0  0  0
    0.5363   -1.1590    1.9465 C   0  0  2  0  0  0  0  0  0  0  0  0
   -0.4571   -0.5158    2.9074 C   0  0  0  0  0  0  0  0  0  0  0  0
   -1.5511   -0.0835    2.5505 O   0  0  0  0  0  0  0  0  0  0  0  0
    1.5419   -0.1259    1.4437 C   0  0  0  0  0  0  0  0  0  0  0  0
    2.7218   -0.6650    0.6248 C   0  0  0  0  0  0  0  0  0  0  0  0
    3.0597   -1.8473    0.9231 O   0  5  0  0  0  0  0  0  0  0  0  0
    3.2200    0.1164   -0.2308 O   0  0  0  0  0  0  0  0  0  0  0  0
   -0.0113   -2.6869    0.5854 H   0  0  0  0  0  0  0  0  0  0  0  0
    1.0411   -1.9895    2.4527 H   0  0  0  0  0  0  0  0  0  0  0  0
    1.9508    0.4360    2.2947 H   0  0  0  0  0  0  0  0  0  0  0  0
    1.0312    0.6065    0.8050 H   0  0  0  0  0  0  0  0  0  0  0  0
    0.0009   -0.5293    4.2175 N   0  0  0  0  0  0  0  0  0  0  0  0
   -0.7707   -0.0067    5.3211 C   0  0  2  0  0  0  0  0  0  0  0  0
    0.2021    0.5308    6.3623 C   0  0  0  0  0  0  0  0  0  0  0  0
    1.3720    0.1616    6.4410 O   0  0  0  0  0  0  0  0  0  0  0  0
   -1.6728   -1.0744    5.9201 C   0  0  0  0  0  0  0  0  0  0  0  0
    0.9005   -0.9517    4.4276 H   0  0  0  0  0  0  0  0  0  0  0  0
   -1.3732    0.8173    4.9235 H   0  0  0  0  0  0  0  0  0  0  0  0
   -1.0869   -1.9083    6.3236 H   0  0  0  0  0  0  0  0  0  0  0  0
   -2.2779   -0.6695    6.7380 H   0  0  0  0  0  0  0  0  0  0  0  0
   -2.3516   -1.4810    5.1626 H   0  0  0  0  0  0  0  0  0  0  0  0
   -0.4014    1.4393    7.2205 N   0  0  0  0  0  0  0  0  0  0  0  0
    0.3092    2.0807    8.3020 C   0  0  0  0  0  0  0  0  0  0  0  0
   -1.3711    1.7011    7.0695 H   0  0  0  0  0  0  0  0  0  0  0  0
    0.1863    1.4914    9.2226 H   0  0  0  0  0  0  0  0  0  0  0  0
    1.3778    2.1477    8.0496 H   0  0  0  0  0  0  0  0  0  0  0  0
   -0.0949    3.0919    8.4573 H   0  0  0  0  0  0  0  0  0  0  0  0
  1  3  1  0  0  0  0
  1  7  1  0  0  0  0
  1  2  2  0  0  0  0
 30 31  1  0  0  0  0
 31 39  1  0  0  0  0
 31 32  2  0  0  0  0
  8  9  1  0  0  0  0
  9 17  1  0  0  0  0
  9 10  2  0  0  0  0
 18 19  1  0  0  0  0
 19 29  1  0  0  0  0
 19 20  2  0  0  0  0
 21 22  1  0  0  0  0
 22 23  1  0  0  0  0
 22 24  2  0  0  0  0
 30 33  1  0  0  0  0
  8 11  1  0  0  0  0
 39 40  1  0  0  0  0
 18 21  1  0  0  0  0
 29 30  1  0  0  0  0
  7  8  1  0  0  0  0
 17 18  1  0  0  0  0
  3  4  1  0  0  0  0
  3  5  1  0  0  0  0
  3  6  1  0  0  0  0
 33 36  1  0  0  0  0
 33 37  1  0  0  0  0
 33 38  1  0  0  0  0
 11 14  1  0  0  0  0
 11 15  1  0  0  0  0
 11 16  1  0  0  0  0
 40 42  1  0  0  0  0
 40 43  1  0  0  0  0
 40 44  1  0  0  0  0
 21 27  1  0  0  0  0
 21 28  1  0  0  0  0
 30 35  1  0  0  0  0
  8 13  1  0  0  0  0
 18 26  1  0  0  0  0
 39 41  1  0  0  0  0
  7 12  1  0  0  0  0
 29 34  1  0  0  0  0
 17 25  1  0  0  0  0
M  CHG  1  23  -1
M  END
$$$$

  -OEChem-05262214473D

 44 43  0     1  0  0  0  0  0999 V2000
   -4.0256   -1.8030   -2.1581 C   0  0  0  0  0  0  0  0  0  0  0  0
   -3.7513   -2.6782   -2.9709 O   0  0  0  0  0  0  0  0  0  0  0  0
   -5.3491   -1.1169   -2.2339 C   0  0  0  0  0  0  0  0  0  0  0  0
   -5.3223   -0.2211   -2.8750 H   0  0  0  0  0  0  0  0  0  0  0  0
   -6.1322   -1.7605   -2.6658 H   0  0  0  0  0  0  0  0  0  0  0  0
   -5.7568   -0.7715   -1.2704 H   0  0  0  0  0  0  0  0  0  0  0  0
   -3.2124   -1.3578   -1.1289 N   0  0  0  0  0  0  0  0  0  0  0  0
   -1.8971   -1.8843   -0.8752 C   0  0  2  0  0  0  0  0  0  0  0  0
   -1.2676   -1.0599    0.2399 C   0  0  0  0  0  0  0  0  0  0  0  0
   -1.6270    0.0833    0.5138 O   0  0  0  0  0  0  0  0  0  0  0  0
   -1.0364   -1.8506   -2.1285 C   0  0  0  0  0  0  0  0  0  0  0  0
   -3.5631   -0.6202   -0.5206 H   0  0  0  0  0  0  0  0  0  0  0  0
   -2.0301   -2.9174   -0.5360 H   0  0  0  0  0  0  0  0  0  0  0  0
   -0.8921   -0.8236   -2.4833 H   0  0  0  0  0  0  0  0  0  0  0  0
   -0.0457   -2.2777   -1.9410 H   0  0  0  0  0  0  0  0  0  0  0  0
   -1.5052   -2.4193   -2.9387 H   0  0  0  0  0  0  0  0  0  0  0  0
   -0.2267   -1.7335    0.8672 N   0  0  0  0  0  0  0  0  0  0  0  0
    0.5363   -1.1590    1.9465 C   0  0  2  0  0  0  0  0  0  0  0  0
   -0.4571   -0.5158    2.9074 C   0  0  0  0  0  0  0  0  0  0  0  0
   -1.6382   -0.3272    2.6236 O   0  0  0  0  0  0  0  0  0  0  0  0
    1.5419   -0.1259    1.4437 C   0  0  0  0  0  0  0  0  0  0  0  0
    2.7218   -0.6650    0.6248 C   0  0  0  0  0  0  0  0  0  0  0  0
    3.0597   -1.8473    0.9231 O   0  5  0  0  0  0  0  0  0  0  0  0
    3.2200    0.1164   -0.2308 O   0  0  0  0  0  0  0  0  0  0  0  0
   -0.0113   -2.6869    0.5854 H   0  0  0  0  0  0  0  0  0  0  0  0
    1.0411   -1.9895    2.4527 H   0  0  0  0  0  0  0  0  0  0  0  0
    1.9508    0.4360    2.2947 H   0  0  0  0  0  0  0  0  0  0  0  0
    1.0312    0.6065    0.8050 H   0  0  0  0  0  0  0  0  0  0  0  0
    0.1190   -0.2257    4.1363 N   0  0  0  0  0  0  0  0  0  0  0  0
   -0.6226    0.3598    5.2289 C   0  0  2  0  0  0  0  0  0  0  0  0
    0.3376    1.2169    6.0431 C   0  0  0  0  0  0  0  0  0  0  0  0
    1.5557    1.0519    6.0349 O   0  0  0  0  0  0  0  0  0  0  0  0
   -1.2658   -0.7103    6.0972 C   0  0  0  0  0  0  0  0  0  0  0  0
    1.0938   -0.4605    4.2987 H   0  0  0  0  0  0  0  0  0  0  0  0
   -1.3933    0.9974    4.7822 H   0  0  0  0  0  0  0  0  0  0  0  0
   -0.5091   -1.3591    6.5533 H   0  0  0  0  0  0  0  0  0  0  0  0
   -1.8510   -0.2644    6.9081 H   0  0  0  0  0  0  0  0  0  0  0  0
   -1.9333   -1.3445    5.5038 H   0  0  0  0  0  0  0  0  0  0  0  0
   -0.3291    2.1597    6.8130 N   0  0  0  0  0  0  0  0  0  0  0  0
    0.3599    3.0846    7.6824 C   0  0  0  0  0  0  0  0  0  0  0  0
   -1.3394    2.2381    6.7428 H   0  0  0  0  0  0  0  0  0  0  0  0
    0.4287    2.6565    8.6933 H   0  0  0  0  0  0  0  0  0  0  0  0
    1.3719    3.2692    7.2929 H   0  0  0  0  0  0  0  0  0  0  0  0
   -0.1960    4.0329    7.7230 H   0  0  0  0  0  0  0  0  0  0  0  0
  1  3  1  0  0  0  0
  1  7  1  0  0  0  0
  1  2  2  0  0  0  0
 30 31  1  0  0  0  0
 31 39  1  0  0  0  0
 31 32  2  0  0  0  0
  8  9  1  0  0  0  0
  9 17  1  0  0  0  0
  9 10  2  0  0  0  0
 18 19  1  0  0  0  0
 19 29  1  0  0  0  0
 19 20  2  0  0  0  0
 21 22  1  0  0  0  0
 22 23  1  0  0  0  0
 22 24  2  0  0  0  0
 30 33  1  0  0  0  0
  8 11  1  0  0  0  0
 39 40  1  0  0  0  0
 18 21  1  0  0  0  0
 29 30  1  0  0  0  0
  7  8  1  0  0  0  0
 17 18  1  0  0  0  0
  3  4  1  0  0  0  0
  3  5  1  0  0  0  0
  3  6  1  0  0  0  0
 33 36  1  0  0  0  0
 33 37  1  0  0  0  0
 33 38  1  0  0  0  0
 11 14  1  0  0  0  0
 11 15  1  0  0  0  0
 11 16  1  0  0  0  0
 40 42  1  0  0  0  0
 40 43  1  0  0  0  0
 40 44  1  0  0  0  0
 21 27  1  0  0  0  0
 21 28  1  0  0  0  0
 30 35  1  0  0  0  0
  8 13  1  0  0  0  0
 18 26  1  0  0  0  0
 39 41  1  0  0  0  0
  7 12  1  0  0  0  0
 29 34  1  0  0  0  0
 17 25  1  0  0  0  0
M  CHG  1  23  -1
M  END
$$$$

  -OEChem-05262214473D

 44 43  0     1  0  0  0  0  0999 V2000
   -4.0256   -1.8030   -2.1581 C   0  0  0  0  0  0  0  0  0  0  0  0
   -3.7513   -2.6782   -2.9709 O   0  0  0  0  0  0  0  0  0  0  0  0
   -5.3491   -1.1169   -2.2339 C   0  0  0  0  0  0  0  0  0  0  0  0
   -5.3223   -0.2211   -2.8750 H   0  0  0  0  0  0  0  0  0  0  0  0
   -6.1322   -1.7605   -2.6658 H   0  0  0  0  0  0  0  0  0  0  0  0
   -5.7568   -0.7715   -1.2704 H   0  0  0  0  0  0  0  0  0  0  0  0
   -3.2124   -1.3578   -1.1289 N   0  0  0  0  0  0  0  0  0  0  0  0
   -1.8971   -1.8843   -0.8752 C   0  0  2  0  0  0  0  0  0  0  0  0
   -1.2676   -1.0599    0.2399 C   0  0  0  0  0  0  0  0  0  0  0  0
   -1.6270    0.0833    0.5138 O   0  0  0  0  0  0  0  0  0  0  0  0
   -1.0364   -1.8506   -2.1285 C   0  0  0  0  0  0  0  0  0  0  0  0
   -3.5631   -0.6202   -0.5206 H   0  0  0  0  0  0  0  0  0  0  0  0
   -2.0301   -2.9174   -0.5360 H   0  0  0  0  0  0  0  0  0  0  0  0
   -0.8921   -0.8236   -2.4833 H   0  0  0  0  0  0  0  0  0  0  0  0
   -0.0457   -2.2777   -1.9410 H   0  0  0  0  0  0  0  0  0  0  0  0
   -1.5052   -2.4193   -2.9387 H   0  0  0  0  0  0  0  0  0  0  0  0
   -0.2267   -1.7335    0.8672 N   0  0  0  0  0  0  0  0  0  0  0  0
    0.5363   -1.1590    1.9465 C   0  0  2  0  0  0  0  0  0  0  0  0
   -0.4406   -0.8558    3.0767 C   0  0  0  0  0  0  0  0  0  0  0  0
   -1.6382   -1.1273    3.0186 O   0  0  0  0  0  0  0  0  0  0  0  0
    1.2658    0.1105    1.5131 C   0  0  0  0  0  0  0  0  0  0  0  0
    2.4217   -0.0722    0.5213 C   0  0  0  0  0  0  0  0  0  0  0  0
    3.0068   -1.1905    0.6108 O   0  5  0  0  0  0  0  0  0  0  0  0
    2.6621    0.8954   -0.2511 O   0  0  0  0  0  0  0  0  0  0  0  0
   -0.0113   -2.6869    0.5854 H   0  0  0  0  0  0  0  0  0  0  0  0
    1.2428   -1.9285    2.2776 H   0  0  0  0  0  0  0  0  0  0  0  0
    1.6590    0.6305    2.3974 H   0  0  0  0  0  0  0  0  0  0  0  0
    0.5563    0.8002    1.0376 H   0  0  0  0  0  0  0  0  0  0  0  0
    0.1924   -0.2945    4.1769 N   0  0  0  0  0  0  0  0  0  0  0  0
   -0.5104    0.0551    5.3895 C   0  0  2  0  0  0  0  0  0  0  0  0
    0.1925    1.2546    6.0113 C   0  0  0  0  0  0  0  0  0  0  0  0
    1.3643    1.5417    5.7758 O   0  0  0  0  0  0  0  0  0  0  0  0
   -0.5526   -1.1140    6.3612 C   0  0  0  0  0  0  0  0  0  0  0  0
    1.1974   -0.1489    4.1543 H   0  0  0  0  0  0  0  0  0  0  0  0
   -1.5268    0.3387    5.0954 H   0  0  0  0  0  0  0  0  0  0  0  0
    0.4568   -1.4124    6.6672 H   0  0  0  0  0  0  0  0  0  0  0  0
   -1.1102   -0.8566    7.2677 H   0  0  0  0  0  0  0  0  0  0  0  0
   -1.0319   -1.9854    5.9019 H   0  0  0  0  0  0  0  0  0  0  0  0
   -0.6296    1.9417    6.8934 N   0  0  0  0  0  0  0  0  0  0  0  0
   -0.1898    3.1097    7.6201 C   0  0  0  0  0  0  0  0  0  0  0  0
   -1.5934    1.6441    7.0131 H   0  0  0  0  0  0  0  0  0  0  0  0
    0.2066    2.8049    8.5999 H   0  0  0  0  0  0  0  0  0  0  0  0
    0.5987    3.6215    7.0488 H   0  0  0  0  0  0  0  0  0  0  0  0
   -1.0397    3.7929    7.7650 H   0  0  0  0  0  0  0  0  0  0  0  0
  1  3  1  0  0  0  0
  1  7  1  0  0  0  0
  1  2  2  0  0  0  0
 30 31  1  0  0  0  0
 31 39  1  0  0  0  0
 31 32  2  0  0  0  0
  8  9  1  0  0  0  0
  9 17  1  0  0  0  0
  9 10  2  0  0  0  0
 18 19  1  0  0  0  0
 19 29  1  0  0  0  0
 19 20  2  0  0  0  0
 21 22  1  0  0  0  0
 22 23  1  0  0  0  0
 22 24  2  0  0  0  0
 30 33  1  0  0  0  0
  8 11  1  0  0  0  0
 39 40  1  0  0  0  0
 18 21  1  0  0  0  0
 29 30  1  0  0  0  0
  7  8  1  0  0  0  0
 17 18  1  0  0  0  0
  3  4  1  0  0  0  0
  3  5  1  0  0  0  0
  3  6  1  0  0  0  0
 33 36  1  0  0  0  0
 33 37  1  0  0  0  0
 33 38  1  0  0  0  0
 11 14  1  0  0  0  0
 11 15  1  0  0  0  0
 11 16  1  0  0  0  0
 40 42  1  0  0  0  0
 40 43  1  0  0  0  0
 40 44  1  0  0  0  0
 21 27  1  0  0  0  0
 21 28  1  0  0  0  0
 30 35  1  0  0  0  0
  8 13  1  0  0  0  0
 18 26  1  0  0  0  0
 39 41  1  0  0  0  0
  7 12  1  0  0  0  0
 29 34  1  0  0  0  0
 17 25  1  0  0  0  0
M  CHG  1  23  -1
M  END
$$$$

  -OEChem-05262214473D

 44 43  0     1  0  0  0  0  0999 V2000
   -4.0256   -1.8030   -2.1581 C   0  0  0  0  0  0  0  0  0  0  0  0
   -3.7513   -2.6782   -2.9709 O   0  0  0  0  0  0  0  0  0  0  0  0
   -5.3491   -1.1169   -2.2339 C   0  0  0  0  0  0  0  0  0  0  0  0
   -5.3223   -0.2211   -2.8750 H   0  0  0  0  0  0  0  0  0  0  0  0
   -6.1322   -1.7605   -2.6658 H   0  0  0  0  0  0  0  0  0  0  0  0
   -5.7568   -0.7715   -1.2704 H   0  0  0  0  0  0  0  0  0  0  0  0
   -3.2124   -1.3578   -1.1289 N   0  0  0  0  0  0  0  0  0  0  0  0
   -1.8971   -1.8843   -0.8752 C   0  0  2  0  0  0  0  0  0  0  0  0
   -1.2676   -1.0599    0.2399 C   0  0  0  0  0  0  0  0  0  0  0  0
   -1.6270    0.0833    0.5138 O   0  0  0  0  0  0  0  0  0  0  0  0
   -1.0364   -1.8506   -2.1285 C   0  0  0  0  0  0  0  0  0  0  0  0
   -3.5631   -0.6202   -0.5206 H   0  0  0  0  0  0  0  0  0  0  0  0
   -2.0301   -2.9174   -0.5360 H   0  0  0  0  0  0  0  0  0  0  0  0
   -0.8921   -0.8236   -2.4833 H   0  0  0  0  0  0  0  0  0  0  0  0
   -0.0457   -2.2777   -1.9410 H   0  0  0  0  0  0  0  0  0  0  0  0
   -1.5052   -2.4193   -2.9387 H   0  0  0  0  0  0  0  0  0  0  0  0
   -0.2267   -1.7335    0.8672 N   0  0  0  0  0  0  0  0  0  0  0  0
    0.5363   -1.1590    1.9465 C   0  0  2  0  0  0  0  0  0  0  0  0
   -0.4406   -0.8558    3.0767 C   0  0  0  0  0  0  0  0  0  0  0  0
   -1.5629   -1.3530    3.1442 O   0  0  0  0  0  0  0  0  0  0  0  0
    1.2658    0.1105    1.5131 C   0  0  0  0  0  0  0  0  0  0  0  0
    2.4217   -0.0722    0.5213 C   0  0  0  0  0  0  0  0  0  0  0  0
    3.0068   -1.1905    0.6108 O   0  5  0  0  0  0  0  0  0  0  0  0
    2.6621    0.8954   -0.2511 O   0  0  0  0  0  0  0  0  0  0  0  0
   -0.0113   -2.6869    0.5854 H   0  0  0  0  0  0  0  0  0  0  0  0
    1.2428   -1.9285    2.2776 H   0  0  0  0  0  0  0  0  0  0  0  0
    1.6590    0.6305    2.3974 H   0  0  0  0  0  0  0  0  0  0  0  0
    0.5563    0.8002    1.0376 H   0  0  0  0  0  0  0  0  0  0  0  0
    0.1083   -0.0061    4.0269 N   0  0  0  0  0  0  0  0  0  0  0  0
   -0.6061    0.4074    5.2122 C   0  0  2  0  0  0  0  0  0  0  0  0
   -0.1308    1.8057    5.5840 C   0  0  0  0  0  0  0  0  0  0  0  0
    0.9528    2.2630    5.2266 O   0  0  0  0  0  0  0  0  0  0  0  0
   -0.3838   -0.5653    6.3599 C   0  0  0  0  0  0  0  0  0  0  0  0
    1.0638    0.3193    3.9132 H   0  0  0  0  0  0  0  0  0  0  0  0
   -1.6682    0.4408    4.9458 H   0  0  0  0  0  0  0  0  0  0  0  0
    0.6747   -0.6123    6.6409 H   0  0  0  0  0  0  0  0  0  0  0  0
   -0.9487   -0.2659    7.2488 H   0  0  0  0  0  0  0  0  0  0  0  0
   -0.6986   -1.5765    6.0803 H   0  0  0  0  0  0  0  0  0  0  0  0
   -1.0402    2.4669    6.3977 N   0  0  0  0  0  0  0  0  0  0  0  0
   -0.8127    3.8034    6.8956 C   0  0  0  0  0  0  0  0  0  0  0  0
   -1.9220    2.0188    6.6286 H   0  0  0  0  0  0  0  0  0  0  0  0
   -0.3299    3.7504    7.8826 H   0  0  0  0  0  0  0  0  0  0  0  0
   -0.1606    4.3487    6.1974 H   0  0  0  0  0  0  0  0  0  0  0  0
   -1.7745    4.3296    6.9859 H   0  0  0  0  0  0  0  0  0  0  0  0
  1  3  1  0  0  0  0
  1  7  1  0  0  0  0
  1  2  2  0  0  0  0
 30 31  1  0  0  0  0
 31 39  1  0  0  0  0
 31 32  2  0  0  0  0
  8  9  1  0  0  0  0
  9 17  1  0  0  0  0
  9 10  2  0  0  0  0
 18 19  1  0  0  0  0
 19 29  1  0  0  0  0
 19 20  2  0  0  0  0
 21 22  1  0  0  0  0
 22 23  1  0  0  0  0
 22 24  2  0  0  0  0
 30 33  1  0  0  0  0
  8 11  1  0  0  0  0
 39 40  1  0  0  0  0
 18 21  1  0  0  0  0
 29 30  1  0  0  0  0
  7  8  1  0  0  0  0
 17 18  1  0  0  0  0
  3  4  1  0  0  0  0
  3  5  1  0  0  0  0
  3  6  1  0  0  0  0
 33 36  1  0  0  0  0
 33 37  1  0  0  0  0
 33 38  1  0  0  0  0
 11 14  1  0  0  0  0
 11 15  1  0  0  0  0
 11 16  1  0  0  0  0
 40 42  1  0  0  0  0
 40 43  1  0  0  0  0
 40 44  1  0  0  0  0
 21 27  1  0  0  0  0
 21 28  1  0  0  0  0
 30 35  1  0  0  0  0
  8 13  1  0  0  0  0
 18 26  1  0  0  0  0
 39 41  1  0  0  0  0
  7 12  1  0  0  0  0
 29 34  1  0  0  0  0
 17 25  1  0  0  0  0
M  CHG  1  23  -1
M  END
$$$$

  -OEChem-05262214473D

 44 43  0     1  0  0  0  0  0999 V2000
   -4.0256   -1.8030   -2.1581 C   0  0  0  0  0  0  0  0  0  0  0  0
   -3.7513   -2.6782   -2.9709 O   0  0  0  0  0  0  0  0  0  0  0  0
   -5.3491   -1.1169   -2.2339 C   0  0  0  0  0  0  0  0  0  0  0  0
   -5.3223   -0.2211   -2.8750 H   0  0  0  0  0  0  0  0  0  0  0  0
   -6.1322   -1.7605   -2.6658 H   0  0  0  0  0  0  0  0  0  0  0  0
   -5.7568   -0.7715   -1.2704 H   0  0  0  0  0  0  0  0  0  0  0  0
   -3.2124   -1.3578   -1.1289 N   0  0  0  0  0  0  0  0  0  0  0  0
   -1.8971   -1.8843   -0.8752 C   0  0  2  0  0  0  0  0  0  0  0  0
   -1.2676   -1.0599    0.2399 C   0  0  0  0  0  0  0  0  0  0  0  0
   -1.6270    0.0833    0.5138 O   0  0  0  0  0  0  0  0  0  0  0  0
   -1.0364   -1.8506   -2.1285 C   0  0  0  0  0  0  0  0  0  0  0  0
   -3.5631   -0.6202   -0.5206 H   0  0  0  0  0  0  0  0  0  0  0  0
   -2.0301   -2.9174   -0.5360 H   0  0  0  0  0  0  0  0  0  0  0  0
   -0.8921   -0.8236   -2.4833 H   0  0  0  0  0  0  0  0  0  0  0  0
   -0.0457   -2.2777   -1.9410 H   0  0  0  0  0  0  0  0  0  0  0  0
   -1.5052   -2.4193   -2.9387 H   0  0  0  0  0  0  0  0  0  0  0  0
   -0.2267   -1.7335    0.8672 N   0  0  0  0  0  0  0  0  0  0  0  0
    0.5363   -1.1590    1.9465 C   0  0  2  0  0  0  0  0  0  0  0  0
   -0.4406   -0.8558    3.0767 C   0  0  0  0  0  0  0  0  0  0  0  0
   -1.4404   -1.5357    3.2991 O   0  0  0  0  0  0  0  0  0  0  0  0
    1.2658    0.1105    1.5131 C   0  0  0  0  0  0  0  0  0  0  0  0
    2.4217   -0.0722    0.5213 C   0  0  0  0  0  0  0  0  0  0  0  0
    3.0068   -1.1905    0.6108 O   0  5  0  0  0  0  0  0  0  0  0  0
    2.6621    0.8954   -0.2511 O   0  0  0  0  0  0  0  0  0  0  0  0
   -0.0113   -2.6869    0.5854 H   0  0  0  0  0  0  0  0  0  0  0  0
    1.2428   -1.9285    2.2776 H   0  0  0  0  0  0  0  0  0  0  0  0
    1.6590    0.6305    2.3974 H   0  0  0  0  0  0  0  0  0  0  0  0
    0.5563    0.8002    1.0376 H   0  0  0  0  0  0  0  0  0  0  0  0
   -0.0359    0.2314    3.8385 N   0  0  0  0  0  0  0  0  0  0  0  0
   -0.7753    0.7000    4.9875 C   0  0  2  0  0  0  0  0  0  0  0  0
   -0.5709    2.2052    5.0965 C   0  0  0  0  0  0  0  0  0  0  0  0
    0.3887    2.7897    4.5977 O   0  0  0  0  0  0  0  0  0  0  0  0
   -0.3261   -0.0031    6.2589 C   0  0  0  0  0  0  0  0  0  0  0  0
    0.8325    0.7060    3.6095 H   0  0  0  0  0  0  0  0  0  0  0  0
   -1.8320    0.4876    4.7916 H   0  0  0  0  0  0  0  0  0  0  0  0
    0.7302    0.1980    6.4715 H   0  0  0  0  0  0  0  0  0  0  0  0
   -0.9071    0.3325    7.1243 H   0  0  0  0  0  0  0  0  0  0  0  0
   -0.4460   -1.0880    6.1676 H   0  0  0  0  0  0  0  0  0  0  0  0
   -1.5630    2.8133    5.8528 N   0  0  0  0  0  0  0  0  0  0  0  0
   -1.5848    4.2338    6.1128 C   0  0  0  0  0  0  0  0  0  0  0  0
   -2.3310    2.2539    6.2120 H   0  0  0  0  0  0  0  0  0  0  0  0
   -1.0665    4.4417    7.0605 H   0  0  0  0  0  0  0  0  0  0  0  0
   -1.0775    4.7642    5.2935 H   0  0  0  0  0  0  0  0  0  0  0  0
   -2.6274    4.5777    6.1821 H   0  0  0  0  0  0  0  0  0  0  0  0
  1  3  1  0  0  0  0
  1  7  1  0  0  0  0
  1  2  2  0  0  0  0
 30 31  1  0  0  0  0
 31 39  1  0  0  0  0
 31 32  2  0  0  0  0
  8  9  1  0  0  0  0
  9 17  1  0  0  0  0
  9 10  2  0  0  0  0
 18 19  1  0  0  0  0
 19 29  1  0  0  0  0
 19 20  2  0  0  0  0
 21 22  1  0  0  0  0
 22 23  1  0  0  0  0
 22 24  2  0  0  0  0
 30 33  1  0  0  0  0
  8 11  1  0  0  0  0
 39 40  1  0  0  0  0
 18 21  1  0  0  0  0
 29 30  1  0  0  0  0
  7  8  1  0  0  0  0
 17 18  1  0  0  0  0
  3  4  1  0  0  0  0
  3  5  1  0  0  0  0
  3  6  1  0  0  0  0
 33 36  1  0  0  0  0
 33 37  1  0  0  0  0
 33 38  1  0  0  0  0
 11 14  1  0  0  0  0
 11 15  1  0  0  0  0
 11 16  1  0  0  0  0
 40 42  1  0  0  0  0
 40 43  1  0  0  0  0
 40 44  1  0  0  0  0
 21 27  1  0  0  0  0
 21 28  1  0  0  0  0
 30 35  1  0  0  0  0
  8 13  1  0  0  0  0
 18 26  1  0  0  0  0
 39 41  1  0  0  0  0
  7 12  1  0  0  0  0
 29 34  1  0  0  0  0
 17 25  1  0  0  0  0
M  CHG  1  23  -1
M  END
$$$$

  -OEChem-05262214473D

 44 43  0     1  0  0  0  0  0999 V2000
   -4.0256   -1.8030   -2.1581 C   0  0  0  0  0  0  0  0  0  0  0  0
   -3.7513   -2.6782   -2.9709 O   0  0  0  0  0  0  0  0  0  0  0  0
   -5.3491   -1.1169   -2.2339 C   0  0  0  0  0  0  0  0  0  0  0  0
   -5.3223   -0.2211   -2.8750 H   0  0  0  0  0  0  0  0  0  0  0  0
   -6.1322   -1.7605   -2.6658 H   0  0  0  0  0  0  0  0  0  0  0  0
   -5.7568   -0.7715   -1.2704 H   0  0  0  0  0  0  0  0  0  0  0  0
   -3.2124   -1.3578   -1.1289 N   0  0  0  0  0  0  0  0  0  0  0  0
   -1.8971   -1.8843   -0.8752 C   0  0  2  0  0  0  0  0  0  0  0  0
   -1.2676   -1.0599    0.2399 C   0  0  0  0  0  0  0  0  0  0  0  0
   -1.6270    0.0833    0.5138 O   0  0  0  0  0  0  0  0  0  0  0  0
   -1.0364   -1.8506   -2.1285 C   0  0  0  0  0  0  0  0  0  0  0  0
   -3.5631   -0.6202   -0.5206 H   0  0  0  0  0  0  0  0  0  0  0  0
   -2.0301   -2.9174   -0.5360 H   0  0  0  0  0  0  0  0  0  0  0  0
   -0.8921   -0.8236   -2.4833 H   0  0  0  0  0  0  0  0  0  0  0  0
   -0.0457   -2.2777   -1.9410 H   0  0  0  0  0  0  0  0  0  0  0  0
   -1.5052   -2.4193   -2.9387 H   0  0  0  0  0  0  0  0  0  0  0  0
   -0.2267   -1.7335    0.8672 N   0  0  0  0  0  0  0  0  0  0  0  0
    0.5363   -1.1590    1.9465 C   0  0  2  0  0  0  0  0  0  0  0  0
   -0.4406   -0.8558    3.0767 C   0  0  0  0  0  0  0  0  0  0  0  0
   -1.2791   -1.6629    3.4727 O   0  0  0  0  0  0  0  0  0  0  0  0
    1.2658    0.1105    1.5131 C   0  0  0  0  0  0  0  0  0  0  0  0
    2.4217   -0.0722    0.5213 C   0  0  0  0  0  0  0  0  0  0  0  0
    3.0068   -1.1905    0.6108 O   0  5  0  0  0  0  0  0  0  0  0  0
    2.6621    0.8954   -0.2511 O   0  0  0  0  0  0  0  0  0  0  0  0
   -0.0113   -2.6869    0.5854 H   0  0  0  0  0  0  0  0  0  0  0  0
    1.2428   -1.9285    2.2776 H   0  0  0  0  0  0  0  0  0  0  0  0
    1.6590    0.6305    2.3974 H   0  0  0  0  0  0  0  0  0  0  0  0
    0.5563    0.8002    1.0376 H   0  0  0  0  0  0  0  0  0  0  0  0
   -0.2305    0.4019    3.6246 N   0  0  0  0  0  0  0  0  0  0  0  0
   -1.0065    0.9128    4.7306 C   0  0  2  0  0  0  0  0  0  0  0  0
   -1.0977    2.4258    4.5819 C   0  0  0  0  0  0  0  0  0  0  0  0
   -0.2897    3.0858    3.9319 O   0  0  0  0  0  0  0  0  0  0  0  0
   -0.3835    0.5343    6.0652 C   0  0  0  0  0  0  0  0  0  0  0  0
    0.5193    0.9847    3.2640 H   0  0  0  0  0  0  0  0  0  0  0  0
   -2.0072    0.4757    4.6434 H   0  0  0  0  0  0  0  0  0  0  0  0
    0.6197    0.9633    6.1707 H   0  0  0  0  0  0  0  0  0  0  0  0
   -0.9881    0.8978    6.9026 H   0  0  0  0  0  0  0  0  0  0  0  0
   -0.2913   -0.5532    6.1578 H   0  0  0  0  0  0  0  0  0  0  0  0
   -2.1625    2.9571    5.2961 N   0  0  0  0  0  0  0  0  0  0  0  0
   -2.4535    4.3715    5.3250 C   0  0  0  0  0  0  0  0  0  0  0  0
   -2.7927    2.3333    5.7917 H   0  0  0  0  0  0  0  0  0  0  0  0
   -1.9529    4.8317    6.1896 H   0  0  0  0  0  0  0  0  0  0  0  0
   -2.0894    4.8396    4.3986 H   0  0  0  0  0  0  0  0  0  0  0  0
   -3.5402    4.5205    5.4085 H   0  0  0  0  0  0  0  0  0  0  0  0
  1  3  1  0  0  0  0
  1  7  1  0  0  0  0
  1  2  2  0  0  0  0
 30 31  1  0  0  0  0
 31 39  1  0  0  0  0
 31 32  2  0  0  0  0
  8  9  1  0  0  0  0
  9 17  1  0  0  0  0
  9 10  2  0  0  0  0
 18 19  1  0  0  0  0
 19 29  1  0  0  0  0
 19 20  2  0  0  0  0
 21 22  1  0  0  0  0
 22 23  1  0  0  0  0
 22 24  2  0  0  0  0
 30 33  1  0  0  0  0
  8 11  1  0  0  0  0
 39 40  1  0  0  0  0
 18 21  1  0  0  0  0
 29 30  1  0  0  0  0
  7  8  1  0  0  0  0
 17 18  1  0  0  0  0
  3  4  1  0  0  0  0
  3  5  1  0  0  0  0
  3  6  1  0  0  0  0
 33 36  1  0  0  0  0
 33 37  1  0  0  0  0
 33 38  1  0  0  0  0
 11 14  1  0  0  0  0
 11 15  1  0  0  0  0
 11 16  1  0  0  0  0
 40 42  1  0  0  0  0
 40 43  1  0  0  0  0
 40 44  1  0  0  0  0
 21 27  1  0  0  0  0
 21 28  1  0  0  0  0
 30 35  1  0  0  0  0
  8 13  1  0  0  0  0
 18 26  1  0  0  0  0
 39 41  1  0  0  0  0
  7 12  1  0  0  0  0
 29 34  1  0  0  0  0
 17 25  1  0  0  0  0
M  CHG  1  23  -1
M  END
$$$$

  -OEChem-05262214473D

 44 43  0     1  0  0  0  0  0999 V2000
   -4.0256   -1.8030   -2.1581 C   0  0  0  0  0  0  0  0  0  0  0  0
   -3.7513   -2.6782   -2.9709 O   0  0  0  0  0  0  0  0  0  0  0  0
   -5.3491   -1.1169   -2.2339 C   0  0  0  0  0  0  0  0  0  0  0  0
   -5.3223   -0.2211   -2.8750 H   0  0  0  0  0  0  0  0  0  0  0  0
   -6.1322   -1.7605   -2.6658 H   0  0  0  0  0  0  0  0  0  0  0  0
   -5.7568   -0.7715   -1.2704 H   0  0  0  0  0  0  0  0  0  0  0  0
   -3.2124   -1.3578   -1.1289 N   0  0  0  0  0  0  0  0  0  0  0  0
   -1.8971   -1.8843   -0.8752 C   0  0  2  0  0  0  0  0  0  0  0  0
   -1.2676   -1.0599    0.2399 C   0  0  0  0  0  0  0  0  0  0  0  0
   -1.6270    0.0833    0.5138 O   0  0  0  0  0  0  0  0  0  0  0  0
   -1.0364   -1.8506   -2.1285 C   0  0  0  0  0  0  0  0  0  0  0  0
   -3.5631   -0.6202   -0.5206 H   0  0  0  0  0  0  0  0  0  0  0  0
   -2.0301   -2.9174   -0.5360 H   0  0  0  0  0  0  0  0  0  0  0  0
   -0.8921   -0.8236   -2.4833 H   0  0  0  0  0  0  0  0  0  0  0  0
   -0.0457   -2.2777   -1.9410 H   0  0  0  0  0  0  0  0  0  0  0  0
   -1.5052   -2.4193   -2.9387 H   0  0  0  0  0  0  0  0  0  0  0  0
   -0.2267   -1.7335    0.8672 N   0  0  0  0  0  0  0  0  0  0  0  0
    0.5363   -1.1590    1.9465 C   0  0  2  0  0  0  0  0  0  0  0  0
   -0.4406   -0.8558    3.0767 C   0  0  0  0  0  0  0  0  0  0  0  0
   -1.0899   -1.7261    3.6531 O   0  0  0  0  0  0  0  0  0  0  0  0
    1.2658    0.1105    1.5131 C   0  0  0  0  0  0  0  0  0  0  0  0
    2.4217   -0.0722    0.5213 C   0  0  0  0  0  0  0  0  0  0  0  0
    3.0068   -1.1905    0.6108 O   0  5  0  0  0  0  0  0  0  0  0  0
    2.6621    0.8954   -0.2511 O   0  0  0  0  0  0  0  0  0  0  0  0
   -0.0113   -2.6869    0.5854 H   0  0  0  0  0  0  0  0  0  0  0  0
    1.2428   -1.9285    2.2776 H   0  0  0  0  0  0  0  0  0  0  0  0
    1.6590    0.6305    2.3974 H   0  0  0  0  0  0  0  0  0  0  0  0
    0.5563    0.8002    1.0376 H   0  0  0  0  0  0  0  0  0  0  0  0
   -0.4622    0.4938    3.3996 N   0  0  0  0  0  0  0  0  0  0  0  0
   -1.2839    1.0314    4.4590 C   0  0  2  0  0  0  0  0  0  0  0  0
   -1.6754    2.4524    4.0755 C   0  0  0  0  0  0  0  0  0  0  0  0
   -1.0361    3.1313    3.2746 O   0  0  0  0  0  0  0  0  0  0  0  0
   -0.5520    1.0103    5.7919 C   0  0  0  0  0  0  0  0  0  0  0  0
    0.1454    1.1365    2.9001 H   0  0  0  0  0  0  0  0  0  0  0  0
   -2.1818    0.4061    4.5112 H   0  0  0  0  0  0  0  0  0  0  0  0
    0.3506    1.6313    5.7589 H   0  0  0  0  0  0  0  0  0  0  0  0
   -1.1862    1.3916    6.5989 H   0  0  0  0  0  0  0  0  0  0  0  0
   -0.2450   -0.0086    6.0518 H   0  0  0  0  0  0  0  0  0  0  0  0
   -2.7979    2.8886    4.7652 N   0  0  0  0  0  0  0  0  0  0  0  0
   -3.3596    4.2071    4.5859 C   0  0  0  0  0  0  0  0  0  0  0  0
   -3.2755    2.2518    5.3962 H   0  0  0  0  0  0  0  0  0  0  0  0
   -2.9289    4.8939    5.3294 H   0  0  0  0  0  0  0  0  0  0  0  0
   -3.1273    4.5699    3.5738 H   0  0  0  0  0  0  0  0  0  0  0  0
   -4.4507    4.1617    4.7177 H   0  0  0  0  0  0  0  0  0  0  0  0
  1  3  1  0  0  0  0
  1  7  1  0  0  0  0
  1  2  2  0  0  0  0
 30 31  1  0  0  0  0
 31 39  1  0  0  0  0
 31 32  2  0  0  0  0
  8  9  1  0  0  0  0
  9 17  1  0  0  0  0
  9 10  2  0  0  0  0
 18 19  1  0  0  0  0
 19 29  1  0  0  0  0
 19 20  2  0  0  0  0
 21 22  1  0  0  0  0
 22 23  1  0  0  0  0
 22 24  2  0  0  0  0
 30 33  1  0  0  0  0
  8 11  1  0  0  0  0
 39 40  1  0  0  0  0
 18 21  1  0  0  0  0
 29 30  1  0  0  0  0
  7  8  1  0  0  0  0
 17 18  1  0  0  0  0
  3  4  1  0  0  0  0
  3  5  1  0  0  0  0
  3  6  1  0  0  0  0
 33 36  1  0  0  0  0
 33 37  1  0  0  0  0
 33 38  1  0  0  0  0
 11 14  1  0  0  0  0
 11 15  1  0  0  0  0
 11 16  1  0  0  0  0
 40 42  1  0  0  0  0
 40 43  1  0  0  0  0
 40 44  1  0  0  0  0
 21 27  1  0  0  0  0
 21 28  1  0  0  0  0
 30 35  1  0  0  0  0
  8 13  1  0  0  0  0
 18 26  1  0  0  0  0
 39 41  1  0  0  0  0
  7 12  1  0  0  0  0
 29 34  1  0  0  0  0
 17 25  1  0  0  0  0
M  CHG  1  23  -1
M  END
$$$$

  -OEChem-05262214473D

 44 43  0     1  0  0  0  0  0999 V2000
   -4.0256   -1.8030   -2.1581 C   0  0  0  0  0  0  0  0  0  0  0  0
   -3.7513   -2.6782   -2.9709 O   0  0  0  0  0  0  0  0  0  0  0  0
   -5.3491   -1.1169   -2.2339 C   0  0  0  0  0  0  0  0  0  0  0  0
   -5.3223   -0.2211   -2.8750 H   0  0  0  0  0  0  0  0  0  0  0  0
   -6.1322   -1.7605   -2.6658 H   0  0  0  0  0  0  0  0  0  0  0  0
   -5.7568   -0.7715   -1.2704 H   0  0  0  0  0  0  0  0  0  0  0  0
   -3.2124   -1.3578   -1.1289 N   0  0  0  0  0  0  0  0  0  0  0  0
   -1.8971   -1.8843   -0.8752 C   0  0  2  0  0  0  0  0  0  0  0  0
   -1.2676   -1.0599    0.2399 C   0  0  0  0  0  0  0  0  0  0  0  0
   -1.6270    0.0833    0.5138 O   0  0  0  0  0  0  0  0  0  0  0  0
   -1.0364   -1.8506   -2.1285 C   0  0  0  0  0  0  0  0  0  0  0  0
   -3.5631   -0.6202   -0.5206 H   0  0  0  0  0  0  0  0  0  0  0  0
   -2.0301   -2.9174   -0.5360 H   0  0  0  0  0  0  0  0  0  0  0  0
   -0.8921   -0.8236   -2.4833 H   0  0  0  0  0  0  0  0  0  0  0  0
   -0.0457   -2.2777   -1.9410 H   0  0  0  0  0  0  0  0  0  0  0  0
   -1.5052   -2.4193   -2.9387 H   0  0  0  0  0  0  0  0  0  0  0  0
   -0.2267   -1.7335    0.8672 N   0  0  0  0  0  0  0  0  0  0  0  0
    0.5363   -1.1590    1.9465 C   0  0  2  0  0  0  0  0  0  0  0  0
   -0.4406   -0.8558    3.0767 C   0  0  0  0  0  0  0  0  0  0  0  0
   -0.8858   -1.7209    3.8282 O   0  0  0  0  0  0  0  0  0  0  0  0
    1.2658    0.1105    1.5131 C   0  0  0  0  0  0  0  0  0  0  0  0
    2.4217   -0.0722    0.5213 C   0  0  0  0  0  0  0  0  0  0  0  0
    3.0068   -1.1905    0.6108 O   0  5  0  0  0  0  0  0  0  0  0  0
    2.6621    0.8954   -0.2511 O   0  0  0  0  0  0  0  0  0  0  0  0
   -0.0113   -2.6869    0.5854 H   0  0  0  0  0  0  0  0  0  0  0  0
    1.2428   -1.9285    2.2776 H   0  0  0  0  0  0  0  0  0  0  0  0
    1.6590    0.6305    2.3974 H   0  0  0  0  0  0  0  0  0  0  0  0
    0.5563    0.8002    1.0376 H   0  0  0  0  0  0  0  0  0  0  0  0
   -0.7153    0.5008    3.1791 N   0  0  0  0  0  0  0  0  0  0  0  0
   -1.5885    1.0477    4.1913 C   0  0  2  0  0  0  0  0  0  0  0  0
   -2.2645    2.2832    3.6116 C   0  0  0  0  0  0  0  0  0  0  0  0
   -1.7996    2.9229    2.6705 O   0  0  0  0  0  0  0  0  0  0  0  0
   -0.8201    1.3923    5.4576 C   0  0  0  0  0  0  0  0  0  0  0  0
   -0.2636    1.1511    2.5427 H   0  0  0  0  0  0  0  0  0  0  0  0
   -2.3438    0.2833    4.4040 H   0  0  0  0  0  0  0  0  0  0  0  0
   -0.0587    2.1567    5.2642 H   0  0  0  0  0  0  0  0  0  0  0  0
   -1.4880    1.7801    6.2339 H   0  0  0  0  0  0  0  0  0  0  0  0
   -0.3102    0.5088    5.8566 H   0  0  0  0  0  0  0  0  0  0  0  0
   -3.4258    2.6125    4.2966 N   0  0  0  0  0  0  0  0  0  0  0  0
   -4.2413    3.7518    3.9460 C   0  0  0  0  0  0  0  0  0  0  0  0
   -3.7466    2.0148    5.0526 H   0  0  0  0  0  0  0  0  0  0  0  0
   -3.9278    4.6240    4.5384 H   0  0  0  0  0  0  0  0  0  0  0  0
   -4.1206    3.9734    2.8753 H   0  0  0  0  0  0  0  0  0  0  0  0
   -5.2970    3.5258    4.1569 H   0  0  0  0  0  0  0  0  0  0  0  0
  1  3  1  0  0  0  0
  1  7  1  0  0  0  0
  1  2  2  0  0  0  0
 30 31  1  0  0  0  0
 31 39  1  0  0  0  0
 31 32  2  0  0  0  0
  8  9  1  0  0  0  0
  9 17  1  0  0  0  0
  9 10  2  0  0  0  0
 18 19  1  0  0  0  0
 19 29  1  0  0  0  0
 19 20  2  0  0  0  0
 21 22  1  0  0  0  0
 22 23  1  0  0  0  0
 22 24  2  0  0  0  0
 30 33  1  0  0  0  0
  8 11  1  0  0  0  0
 39 40  1  0  0  0  0
 18 21  1  0  0  0  0
 29 30  1  0  0  0  0
  7  8  1  0  0  0  0
 17 18  1  0  0  0  0
  3  4  1  0  0  0  0
  3  5  1  0  0  0  0
  3  6  1  0  0  0  0
 33 36  1  0  0  0  0
 33 37  1  0  0  0  0
 33 38  1  0  0  0  0
 11 14  1  0  0  0  0
 11 15  1  0  0  0  0
 11 16  1  0  0  0  0
 40 42  1  0  0  0  0
 40 43  1  0  0  0  0
 40 44  1  0  0  0  0
 21 27  1  0  0  0  0
 21 28  1  0  0  0  0
 30 35  1  0  0  0  0
  8 13  1  0  0  0  0
 18 26  1  0  0  0  0
 39 41  1  0  0  0  0
  7 12  1  0  0  0  0
 29 34  1  0  0  0  0
 17 25  1  0  0  0  0
M  CHG  1  23  -1
M  END
$$$$

  -OEChem-05262214473D

 44 43  0     1  0  0  0  0  0999 V2000
   -4.0256   -1.8030   -2.1581 C   0  0  0  0  0  0  0  0  0  0  0  0
   -3.7513   -2.6782   -2.9709 O   0  0  0  0  0  0  0  0  0  0  0  0
   -5.3491   -1.1169   -2.2339 C   0  0  0  0  0  0  0  0  0  0  0  0
   -5.3223   -0.2211   -2.8750 H   0  0  0  0  0  0  0  0  0  0  0  0
   -6.1322   -1.7605   -2.6658 H   0  0  0  0  0  0  0  0  0  0  0  0
   -5.7568   -0.7715   -1.2704 H   0  0  0  0  0  0  0  0  0  0  0  0
   -3.2124   -1.3578   -1.1289 N   0  0  0  0  0  0  0  0  0  0  0  0
   -1.8971   -1.8843   -0.8752 C   0  0  2  0  0  0  0  0  0  0  0  0
   -1.2676   -1.0599    0.2399 C   0  0  0  0  0  0  0  0  0  0  0  0
   -1.6270    0.0833    0.5138 O   0  0  0  0  0  0  0  0  0  0  0  0
   -1.0364   -1.8506   -2.1285 C   0  0  0  0  0  0  0  0  0  0  0  0
   -3.5631   -0.6202   -0.5206 H   0  0  0  0  0  0  0  0  0  0  0  0
   -2.0301   -2.9174   -0.5360 H   0  0  0  0  0  0  0  0  0  0  0  0
   -0.8921   -0.8236   -2.4833 H   0  0  0  0  0  0  0  0  0  0  0  0
   -0.0457   -2.2777   -1.9410 H   0  0  0  0  0  0  0  0  0  0  0  0
   -1.5052   -2.4193   -2.9387 H   0  0  0  0  0  0  0  0  0  0  0  0
   -0.2267   -1.7335    0.8672 N   0  0  0  0  0  0  0  0  0  0  0  0
    0.5363   -1.1590    1.9465 C   0  0  2  0  0  0  0  0  0  0  0  0
   -0.4406   -0.8558    3.0767 C   0  0  0  0  0  0  0  0  0  0  0  0
   -0.6805   -1.6477    3.9859 O   0  0  0  0  0  0  0  0  0  0  0  0
    1.2658    0.1105    1.5131 C   0  0  0  0  0  0  0  0  0  0  0  0
    2.4217   -0.0722    0.5213 C   0  0  0  0  0  0  0  0  0  0  0  0
    3.0068   -1.1905    0.6108 O   0  5  0  0  0  0  0  0  0  0  0  0
    2.6621    0.8954   -0.2511 O   0  0  0  0  0  0  0  0  0  0  0  0
   -0.0113   -2.6869    0.5854 H   0  0  0  0  0  0  0  0  0  0  0  0
    1.2428   -1.9285    2.2776 H   0  0  0  0  0  0  0  0  0  0  0  0
    1.6590    0.6305    2.3974 H   0  0  0  0  0  0  0  0  0  0  0  0
    0.5563    0.8002    1.0376 H   0  0  0  0  0  0  0  0  0  0  0  0
   -0.9724    0.4224    2.9779 N   0  0  0  0  0  0  0  0  0  0  0  0
   -1.8997    0.9606    3.9457 C   0  0  2  0  0  0  0  0  0  0  0  0
   -2.8251    1.9298    3.2219 C   0  0  0  0  0  0  0  0  0  0  0  0
   -2.5282    2.4750    2.1609 O   0  0  0  0  0  0  0  0  0  0  0  0
   -1.1697    1.6544    5.0852 C   0  0  0  0  0  0  0  0  0  0  0  0
   -0.6798    1.0273    2.2161 H   0  0  0  0  0  0  0  0  0  0  0  0
   -2.4823    0.1159    4.3292 H   0  0  0  0  0  0  0  0  0  0  0  0
   -0.5804    2.5036    4.7202 H   0  0  0  0  0  0  0  0  0  0  0  0
   -1.8729    2.0369    5.8323 H   0  0  0  0  0  0  0  0  0  0  0  0
   -0.4825    0.9637    5.5857 H   0  0  0  0  0  0  0  0  0  0  0  0
   -4.0035    2.1476    3.9220 N   0  0  0  0  0  0  0  0  0  0  0  0
   -5.0385    3.0368    3.4487 C   0  0  0  0  0  0  0  0  0  0  0  0
   -4.1738    1.6385    4.7843 H   0  0  0  0  0  0  0  0  0  0  0  0
   -4.8816    4.0405    3.8705 H   0  0  0  0  0  0  0  0  0  0  0  0
   -5.0015    3.0908    2.3506 H   0  0  0  0  0  0  0  0  0  0  0  0
   -6.0212    2.6562    3.7642 H   0  0  0  0  0  0  0  0  0  0  0  0
  1  3  1  0  0  0  0
  1  7  1  0  0  0  0
  1  2  2  0  0  0  0
 30 31  1  0  0  0  0
 31 39  1  0  0  0  0
 31 32  2  0  0  0  0
  8  9  1  0  0  0  0
  9 17  1  0  0  0  0
  9 10  2  0  0  0  0
 18 19  1  0  0  0  0
 19 29  1  0  0  0  0
 19 20  2  0  0  0  0
 21 22  1  0  0  0  0
 22 23  1  0  0  0  0
 22 24  2  0  0  0  0
 30 33  1  0  0  0  0
  8 11  1  0  0  0  0
 39 40  1  0  0  0  0
 18 21  1  0  0  0  0
 29 30  1  0  0  0  0
  7  8  1  0  0  0  0
 17 18  1  0  0  0  0
  3  4  1  0  0  0  0
  3  5  1  0  0  0  0
  3  6  1  0  0  0  0
 33 36  1  0  0  0  0
 33 37  1  0  0  0  0
 33 38  1  0  0  0  0
 11 14  1  0  0  0  0
 11 15  1  0  0  0  0
 11 16  1  0  0  0  0
 40 42  1  0  0  0  0
 40 43  1  0  0  0  0
 40 44  1  0  0  0  0
 21 27  1  0  0  0  0
 21 28  1  0  0  0  0
 30 35  1  0  0  0  0
  8 13  1  0  0  0  0
 18 26  1  0  0  0  0
 39 41  1  0  0  0  0
  7 12  1  0  0  0  0
 29 34  1  0  0  0  0
 17 25  1  0  0  0  0
M  CHG  1  23  -1
M  END
$$$$

  -OEChem-05262214473D

 44 43  0     1  0  0  0  0  0999 V2000
   -4.0256   -1.8030   -2.1581 C   0  0  0  0  0  0  0  0  0  0  0  0
   -3.7513   -2.6782   -2.9709 O   0  0  0  0  0  0  0  0  0  0  0  0
   -5.3491   -1.1169   -2.2339 C   0  0  0  0  0  0  0  0  0  0  0  0
   -5.3223   -0.2211   -2.8750 H   0  0  0  0  0  0  0  0  0  0  0  0
   -6.1322   -1.7605   -2.6658 H   0  0  0  0  0  0  0  0  0  0  0  0
   -5.7568   -0.7715   -1.2704 H   0  0  0  0  0  0  0  0  0  0  0  0
   -3.2124   -1.3578   -1.1289 N   0  0  0  0  0  0  0  0  0  0  0  0
   -1.8971   -1.8843   -0.8752 C   0  0  2  0  0  0  0  0  0  0  0  0
   -1.2676   -1.0599    0.2399 C   0  0  0  0  0  0  0  0  0  0  0  0
   -1.6270    0.0833    0.5138 O   0  0  0  0  0  0  0  0  0  0  0  0
   -1.0364   -1.8506   -2.1285 C   0  0  0  0  0  0  0  0  0  0  0  0
   -3.5631   -0.6202   -0.5206 H   0  0  0  0  0  0  0  0  0  0  0  0
   -2.0301   -2.9174   -0.5360 H   0  0  0  0  0  0  0  0  0  0  0  0
   -0.8921   -0.8236   -2.4833 H   0  0  0  0  0  0  0  0  0  0  0  0
   -0.0457   -2.2777   -1.9410 H   0  0  0  0  0  0  0  0  0  0  0  0
   -1.5052   -2.4193   -2.9387 H   0  0  0  0  0  0  0  0  0  0  0  0
   -0.2267   -1.7335    0.8672 N   0  0  0  0  0  0  0  0  0  0  0  0
    0.5363   -1.1590    1.9465 C   0  0  2  0  0  0  0  0  0  0  0  0
   -0.4406   -0.8558    3.0767 C   0  0  0  0  0  0  0  0  0  0  0  0
   -0.4883   -1.5114    4.1156 O   0  0  0  0  0  0  0  0  0  0  0  0
    1.2658    0.1105    1.5131 C   0  0  0  0  0  0  0  0  0  0  0  0
    2.4217   -0.0722    0.5213 C   0  0  0  0  0  0  0  0  0  0  0  0
    3.0068   -1.1905    0.6108 O   0  5  0  0  0  0  0  0  0  0  0  0
    2.6621    0.8954   -0.2511 O   0  0  0  0  0  0  0  0  0  0  0  0
   -0.0113   -2.6869    0.5854 H   0  0  0  0  0  0  0  0  0  0  0  0
    1.2428   -1.9285    2.2776 H   0  0  0  0  0  0  0  0  0  0  0  0
    1.6590    0.6305    2.3974 H   0  0  0  0  0  0  0  0  0  0  0  0
    0.5563    0.8002    1.0376 H   0  0  0  0  0  0  0  0  0  0  0  0
   -1.2160    0.2639    2.8098 N   0  0  0  0  0  0  0  0  0  0  0  0
   -2.1962    0.7760    3.7389 C   0  0  2  0  0  0  0  0  0  0  0  0
   -3.3187    1.4162    2.9330 C   0  0  0  0  0  0  0  0  0  0  0  0
   -3.1722    1.8179    1.7805 O   0  0  0  0  0  0  0  0  0  0  0  0
   -1.5768    1.7788    4.6999 C   0  0  0  0  0  0  0  0  0  0  0  0
   -1.0749    0.7738    1.9426 H   0  0  0  0  0  0  0  0  0  0  0  0
   -2.5878   -0.0848    4.2918 H   0  0  0  0  0  0  0  0  0  0  0  0
   -1.1788    2.6483    4.1641 H   0  0  0  0  0  0  0  0  0  0  0  0
   -2.3145    2.1445    5.4217 H   0  0  0  0  0  0  0  0  0  0  0  0
   -0.7502    1.3251    5.2573 H   0  0  0  0  0  0  0  0  0  0  0  0
   -4.4915    1.5255    3.6670 N   0  0  0  0  0  0  0  0  0  0  0  0
   -5.6970    2.1106    3.1280 C   0  0  0  0  0  0  0  0  0  0  0  0
   -4.5281    1.1485    4.6095 H   0  0  0  0  0  0  0  0  0  0  0  0
   -5.7252    3.1830    3.3713 H   0  0  0  0  0  0  0  0  0  0  0  0
   -5.7100    1.9821    2.0356 H   0  0  0  0  0  0  0  0  0  0  0  0
   -6.5741    1.6120    3.5664 H   0  0  0  0  0  0  0  0  0  0  0  0
  1  3  1  0  0  0  0
  1  7  1  0  0  0  0
  1  2  2  0  0  0  0
 30 31  1  0  0  0  0
 31 39  1  0  0  0  0
 31 32  2  0  0  0  0
  8  9  1  0  0  0  0
  9 17  1  0  0  0  0
  9 10  2  0  0  0  0
 18 19  1  0  0  0  0
 19 29  1  0  0  0  0
 19 20  2  0  0  0  0
 21 22  1  0  0  0  0
 22 23  1  0  0  0  0
 22 24  2  0  0  0  0
 30 33  1  0  0  0  0
  8 11  1  0  0  0  0
 39 40  1  0  0  0  0
 18 21  1  0  0  0  0
 29 30  1  0  0  0  0
  7  8  1  0  0  0  0
 17 18  1  0  0  0  0
  3  4  1  0  0  0  0
  3  5  1  0  0  0  0
  3  6  1  0  0  0  0
 33 36  1  0  0  0  0
 33 37  1  0  0  0  0
 33 38  1  0  0  0  0
 11 14  1  0  0  0  0
 11 15  1  0  0  0  0
 11 16  1  0  0  0  0
 40 42  1  0  0  0  0
 40 43  1  0  0  0  0
 40 44  1  0  0  0  0
 21 27  1  0  0  0  0
 21 28  1  0  0  0  0
 30 35  1  0  0  0  0
  8 13  1  0  0  0  0
 18 26  1  0  0  0  0
 39 41  1  0  0  0  0
  7 12  1  0  0  0  0
 29 34  1  0  0  0  0
 17 25  1  0  0  0  0
M  CHG  1  23  -1
M  END
$$$$

  -OEChem-05262214473D

 44 43  0     1  0  0  0  0  0999 V2000
   -4.0256   -1.8030   -2.1581 C   0  0  0  0  0  0  0  0  0  0  0  0
   -3.7513   -2.6782   -2.9709 O   0  0  0  0  0  0  0  0  0  0  0  0
   -5.3491   -1.1169   -2.2339 C   0  0  0  0  0  0  0  0  0  0  0  0
   -5.3223   -0.2211   -2.8750 H   0  0  0  0  0  0  0  0  0  0  0  0
   -6.1322   -1.7605   -2.6658 H   0  0  0  0  0  0  0  0  0  0  0  0
   -5.7568   -0.7715   -1.2704 H   0  0  0  0  0  0  0  0  0  0  0  0
   -3.2124   -1.3578   -1.1289 N   0  0  0  0  0  0  0  0  0  0  0  0
   -1.8971   -1.8843   -0.8752 C   0  0  2  0  0  0  0  0  0  0  0  0
   -1.2676   -1.0599    0.2399 C   0  0  0  0  0  0  0  0  0  0  0  0
   -1.6270    0.0833    0.5138 O   0  0  0  0  0  0  0  0  0  0  0  0
   -1.0364   -1.8506   -2.1285 C   0  0  0  0  0  0  0  0  0  0  0  0
   -3.5631   -0.6202   -0.5206 H   0  0  0  0  0  0  0  0  0  0  0  0
   -2.0301   -2.9174   -0.5360 H   0  0  0  0  0  0  0  0  0  0  0  0
   -0.8921   -0.8236   -2.4833 H   0  0  0  0  0  0  0  0  0  0  0  0
   -0.0457   -2.2777   -1.9410 H   0  0  0  0  0  0  0  0  0  0  0  0
   -1.5052   -2.4193   -2.9387 H   0  0  0  0  0  0  0  0  0  0  0  0
   -0.2267   -1.7335    0.8672 N   0  0  0  0  0  0  0  0  0  0  0  0
    0.5363   -1.1590    1.9465 C   0  0  2  0  0  0  0  0  0  0  0  0
   -0.4406   -0.8558    3.0767 C   0  0  0  0  0  0  0  0  0  0  0  0
   -0.3220   -1.3213    4.2083 O   0  0  0  0  0  0  0  0  0  0  0  0
    1.2658    0.1105    1.5131 C   0  0  0  0  0  0  0  0  0  0  0  0
    2.4217   -0.0722    0.5213 C   0  0  0  0  0  0  0  0  0  0  0  0
    3.0068   -1.1905    0.6108 O   0  5  0  0  0  0  0  0  0  0  0  0
    2.6621    0.8954   -0.2511 O   0  0  0  0  0  0  0  0  0  0  0  0
   -0.0113   -2.6869    0.5854 H   0  0  0  0  0  0  0  0  0  0  0  0
    1.2428   -1.9285    2.2776 H   0  0  0  0  0  0  0  0  0  0  0  0
    1.6590    0.6305    2.3974 H   0  0  0  0  0  0  0  0  0  0  0  0
    0.5563    0.8002    1.0376 H   0  0  0  0  0  0  0  0  0  0  0  0
   -1.4296    0.0362    2.6862 N   0  0  0  0  0  0  0  0  0  0  0  0
   -2.4578    0.5065    3.5851 C   0  0  2  0  0  0  0  0  0  0  0  0
   -3.7119    0.7775    2.7645 C   0  0  0  0  0  0  0  0  0  0  0  0
   -3.6878    0.9966    1.5552 O   0  0  0  0  0  0  0  0  0  0  0  0
   -2.0137    1.7569    4.3281 C   0  0  0  0  0  0  0  0  0  0  0  0
   -1.4220    0.4077    1.7408 H   0  0  0  0  0  0  0  0  0  0  0  0
   -2.6532   -0.3051    4.2945 H   0  0  0  0  0  0  0  0  0  0  0  0
   -1.8133    2.5810    3.6338 H   0  0  0  0  0  0  0  0  0  0  0  0
   -2.7830    2.0956    5.0299 H   0  0  0  0  0  0  0  0  0  0  0  0
   -1.0950    1.5683    4.8941 H   0  0  0  0  0  0  0  0  0  0  0  0
   -4.8567    0.7887    3.5491 N   0  0  0  0  0  0  0  0  0  0  0  0
   -6.1717    1.0364    3.0058 C   0  0  0  0  0  0  0  0  0  0  0  0
   -4.7852    0.5782    4.5402 H   0  0  0  0  0  0  0  0  0  0  0  0
   -6.4013    2.1100    3.0748 H   0  0  0  0  0  0  0  0  0  0  0  0
   -6.1979    0.7230    1.9517 H   0  0  0  0  0  0  0  0  0  0  0  0
   -6.9179    0.4646    3.5769 H   0  0  0  0  0  0  0  0  0  0  0  0
  1  3  1  0  0  0  0
  1  7  1  0  0  0  0
  1  2  2  0  0  0  0
 30 31  1  0  0  0  0
 31 39  1  0  0  0  0
 31 32  2  0  0  0  0
  8  9  1  0  0  0  0
  9 17  1  0  0  0  0
  9 10  2  0  0  0  0
 18 19  1  0  0  0  0
 19 29  1  0  0  0  0
 19 20  2  0  0  0  0
 21 22  1  0  0  0  0
 22 23  1  0  0  0  0
 22 24  2  0  0  0  0
 30 33  1  0  0  0  0
  8 11  1  0  0  0  0
 39 40  1  0  0  0  0
 18 21  1  0  0  0  0
 29 30  1  0  0  0  0
  7  8  1  0  0  0  0
 17 18  1  0  0  0  0
  3  4  1  0  0  0  0
  3  5  1  0  0  0  0
  3  6  1  0  0  0  0
 33 36  1  0  0  0  0
 33 37  1  0  0  0  0
 33 38  1  0  0  0  0
 11 14  1  0  0  0  0
 11 15  1  0  0  0  0
 11 16  1  0  0  0  0
 40 42  1  0  0  0  0
 40 43  1  0  0  0  0
 40 44  1  0  0  0  0
 21 27  1  0  0  0  0
 21 28  1  0  0  0  0
 30 35  1  0  0  0  0
  8 13  1  0  0  0  0
 18 26  1  0  0  0  0
 39 41  1  0  0  0  0
  7 12  1  0  0  0  0
 29 34  1  0  0  0  0
 17 25  1  0  0  0  0
M  CHG  1  23  -1
M  END
$$$$

  -OEChem-05262214473D

 44 43  0     1  0  0  0  0  0999 V2000
   -4.0256   -1.8030   -2.1581 C   0  0  0  0  0  0  0  0  0  0  0  0
   -3.7513   -2.6782   -2.9709 O   0  0  0  0  0  0  0  0  0  0  0  0
   -5.3491   -1.1169   -2.2339 C   0  0  0  0  0  0  0  0  0  0  0  0
   -5.3223   -0.2211   -2.8750 H   0  0  0  0  0  0  0  0  0  0  0  0
   -6.1322   -1.7605   -2.6658 H   0  0  0  0  0  0  0  0  0  0  0  0
   -5.7568   -0.7715   -1.2704 H   0  0  0  0  0  0  0  0  0  0  0  0
   -3.2124   -1.3578   -1.1289 N   0  0  0  0  0  0  0  0  0  0  0  0
   -1.8971   -1.8843   -0.8752 C   0  0  2  0  0  0  0  0  0  0  0  0
   -1.2676   -1.0599    0.2399 C   0  0  0  0  0  0  0  0  0  0  0  0
   -1.6270    0.0833    0.5138 O   0  0  0  0  0  0  0  0  0  0  0  0
   -1.0364   -1.8506   -2.1285 C   0  0  0  0  0  0  0  0  0  0  0  0
   -3.5631   -0.6202   -0.5206 H   0  0  0  0  0  0  0  0  0  0  0  0
   -2.0301   -2.9174   -0.5360 H   0  0  0  0  0  0  0  0  0  0  0  0
   -0.8921   -0.8236   -2.4833 H   0  0  0  0  0  0  0  0  0  0  0  0
   -0.0457   -2.2777   -1.9410 H   0  0  0  0  0  0  0  0  0  0  0  0
   -1.5052   -2.4193   -2.9387 H   0  0  0  0  0  0  0  0  0  0  0  0
   -0.2267   -1.7335    0.8672 N   0  0  0  0  0  0  0  0  0  0  0  0
    0.5363   -1.1590    1.9465 C   0  0  2  0  0  0  0  0  0  0  0  0
   -0.4406   -0.8558    3.0767 C   0  0  0  0  0  0  0  0  0  0  0  0
   -0.1931   -1.0904    4.2578 O   0  0  0  0  0  0  0  0  0  0  0  0
    1.2658    0.1105    1.5131 C   0  0  0  0  0  0  0  0  0  0  0  0
    2.4217   -0.0722    0.5213 C   0  0  0  0  0  0  0  0  0  0  0  0
    3.0068   -1.1905    0.6108 O   0  5  0  0  0  0  0  0  0  0  0  0
    2.6621    0.8954   -0.2511 O   0  0  0  0  0  0  0  0  0  0  0  0
   -0.0113   -2.6869    0.5854 H   0  0  0  0  0  0  0  0  0  0  0  0
    1.2428   -1.9285    2.2776 H   0  0  0  0  0  0  0  0  0  0  0  0
    1.6590    0.6305    2.3974 H   0  0  0  0  0  0  0  0  0  0  0  0
    0.5563    0.8002    1.0376 H   0  0  0  0  0  0  0  0  0  0  0  0
   -1.5986   -0.2452    2.6157 N   0  0  0  0  0  0  0  0  0  0  0  0
   -2.6667    0.1705    3.4947 C   0  0  2  0  0  0  0  0  0  0  0  0
   -3.9777    0.0572    2.7279 C   0  0  0  0  0  0  0  0  0  0  0  0
   -4.0398    0.0669    1.5003 O   0  0  0  0  0  0  0  0  0  0  0  0
   -2.4507    1.5902    3.9951 C   0  0  0  0  0  0  0  0  0  0  0  0
   -1.6974   -0.0460    1.6245 H   0  0  0  0  0  0  0  0  0  0  0  0
   -2.6739   -0.5299    4.3369 H   0  0  0  0  0  0  0  0  0  0  0  0
   -2.4405    2.3063    3.1653 H   0  0  0  0  0  0  0  0  0  0  0  0
   -3.2462    1.8935    4.6837 H   0  0  0  0  0  0  0  0  0  0  0  0
   -1.4935    1.6768    4.5206 H   0  0  0  0  0  0  0  0  0  0  0  0
   -5.0740   -0.0126    3.5761 N   0  0  0  0  0  0  0  0  0  0  0  0
   -6.4305   -0.1125    3.0903 C   0  0  0  0  0  0  0  0  0  0  0  0
   -4.9278   -0.0335    4.5811 H   0  0  0  0  0  0  0  0  0  0  0  0
   -6.8637    0.8946    3.0011 H   0  0  0  0  0  0  0  0  0  0  0  0
   -6.4318   -0.6007    2.1046 H   0  0  0  0  0  0  0  0  0  0  0  0
   -7.0294   -0.7080    3.7952 H   0  0  0  0  0  0  0  0  0  0  0  0
  1  3  1  0  0  0  0
  1  7  1  0  0  0  0
  1  2  2  0  0  0  0
 30 31  1  0  0  0  0
 31 39  1  0  0  0  0
 31 32  2  0  0  0  0
  8  9  1  0  0  0  0
  9 17  1  0  0  0  0
  9 10  2  0  0  0  0
 18 19  1  0  0  0  0
 19 29  1  0  0  0  0
 19 20  2  0  0  0  0
 21 22  1  0  0  0  0
 22 23  1  0  0  0  0
 22 24  2  0  0  0  0
 30 33  1  0  0  0  0
  8 11  1  0  0  0  0
 39 40  1  0  0  0  0
 18 21  1  0  0  0  0
 29 30  1  0  0  0  0
  7  8  1  0  0  0  0
 17 18  1  0  0  0  0
  3  4  1  0  0  0  0
  3  5  1  0  0  0  0
  3  6  1  0  0  0  0
 33 36  1  0  0  0  0
 33 37  1  0  0  0  0
 33 38  1  0  0  0  0
 11 14  1  0  0  0  0
 11 15  1  0  0  0  0
 11 16  1  0  0  0  0
 40 42  1  0  0  0  0
 40 43  1  0  0  0  0
 40 44  1  0  0  0  0
 21 27  1  0  0  0  0
 21 28  1  0  0  0  0
 30 35  1  0  0  0  0
  8 13  1  0  0  0  0
 18 26  1  0  0  0  0
 39 41  1  0  0  0  0
  7 12  1  0  0  0  0
 29 34  1  0  0  0  0
 17 25  1  0  0  0  0
M  CHG  1  23  -1
M  END
$$$$

  -OEChem-05262214473D

 44 43  0     1  0  0  0  0  0999 V2000
   -4.0256   -1.8030   -2.1581 C   0  0  0  0  0  0  0  0  0  0  0  0
   -3.7513   -2.6782   -2.9709 O   0  0  0  0  0  0  0  0  0  0  0  0
   -5.3491   -1.1169   -2.2339 C   0  0  0  0  0  0  0  0  0  0  0  0
   -5.3223   -0.2211   -2.8750 H   0  0  0  0  0  0  0  0  0  0  0  0
   -6.1322   -1.7605   -2.6658 H   0  0  0  0  0  0  0  0  0  0  0  0
   -5.7568   -0.7715   -1.2704 H   0  0  0  0  0  0  0  0  0  0  0  0
   -3.2124   -1.3578   -1.1289 N   0  0  0  0  0  0  0  0  0  0  0  0
   -1.8971   -1.8843   -0.8752 C   0  0  2  0  0  0  0  0  0  0  0  0
   -1.2676   -1.0599    0.2399 C   0  0  0  0  0  0  0  0  0  0  0  0
   -1.6270    0.0833    0.5138 O   0  0  0  0  0  0  0  0  0  0  0  0
   -1.0364   -1.8506   -2.1285 C   0  0  0  0  0  0  0  0  0  0  0  0
   -3.5631   -0.6202   -0.5206 H   0  0  0  0  0  0  0  0  0  0  0  0
   -2.0301   -2.9174   -0.5360 H   0  0  0  0  0  0  0  0  0  0  0  0
   -0.8921   -0.8236   -2.4833 H   0  0  0  0  0  0  0  0  0  0  0  0
   -0.0457   -2.2777   -1.9410 H   0  0  0  0  0  0  0  0  0  0  0  0
   -1.5052   -2.4193   -2.9387 H   0  0  0  0  0  0  0  0  0  0  0  0
   -0.2267   -1.7335    0.8672 N   0  0  0  0  0  0  0  0  0  0  0  0
    0.5363   -1.1590    1.9465 C   0  0  2  0  0  0  0  0  0  0  0  0
   -0.4406   -0.8558    3.0767 C   0  0  0  0  0  0  0  0  0  0  0  0
   -0.1104   -0.8345    4.2607 O   0  0  0  0  0  0  0  0  0  0  0  0
    1.2658    0.1105    1.5131 C   0  0  0  0  0  0  0  0  0  0  0  0
    2.4217   -0.0722    0.5213 C   0  0  0  0  0  0  0  0  0  0  0  0
    3.0068   -1.1905    0.6108 O   0  5  0  0  0  0  0  0  0  0  0  0
    2.6621    0.8954   -0.2511 O   0  0  0  0  0  0  0  0  0  0  0  0
   -0.0113   -2.6869    0.5854 H   0  0  0  0  0  0  0  0  0  0  0  0
    1.2428   -1.9285    2.2776 H   0  0  0  0  0  0  0  0  0  0  0  0
    1.6590    0.6305    2.3974 H   0  0  0  0  0  0  0  0  0  0  0  0
    0.5563    0.8002    1.0376 H   0  0  0  0  0  0  0  0  0  0  0  0
   -1.7114   -0.5611    2.6029 N   0  0  0  0  0  0  0  0  0  0  0  0
   -2.8087   -0.2092    3.4738 C   0  0  2  0  0  0  0  0  0  0  0  0
   -4.0982   -0.6957    2.8258 C   0  0  0  0  0  0  0  0  0  0  0  0
   -4.2043   -0.9077    1.6196 O   0  0  0  0  0  0  0  0  0  0  0  0
   -2.8579    1.2901    3.7236 C   0  0  0  0  0  0  0  0  0  0  0  0
   -1.8823   -0.5564    1.6016 H   0  0  0  0  0  0  0  0  0  0  0  0
   -2.6485   -0.7441    4.4163 H   0  0  0  0  0  0  0  0  0  0  0  0
   -3.0178    1.8428    2.7907 H   0  0  0  0  0  0  0  0  0  0  0  0
   -3.6727    1.5520    4.4067 H   0  0  0  0  0  0  0  0  0  0  0  0
   -1.9184    1.6432    4.1623 H   0  0  0  0  0  0  0  0  0  0  0  0
   -5.1289   -0.8239    3.7464 N   0  0  0  0  0  0  0  0  0  0  0  0
   -6.4556   -1.2580    3.3759 C   0  0  0  0  0  0  0  0  0  0  0  0
   -4.9460   -0.6449    4.7293 H   0  0  0  0  0  0  0  0  0  0  0  0
   -7.0809   -0.3803    3.1554 H   0  0  0  0  0  0  0  0  0  0  0  0
   -6.3959   -1.8989    2.4839 H   0  0  0  0  0  0  0  0  0  0  0  0
   -6.9007   -1.8258    4.2062 H   0  0  0  0  0  0  0  0  0  0  0  0
  1  3  1  0  0  0  0
  1  7  1  0  0  0  0
  1  2  2  0  0  0  0
 30 31  1  0  0  0  0
 31 39  1  0  0  0  0
 31 32  2  0  0  0  0
  8  9  1  0  0  0  0
  9 17  1  0  0  0  0
  9 10  2  0  0  0  0
 18 19  1  0  0  0  0
 19 29  1  0  0  0  0
 19 20  2  0  0  0  0
 21 22  1  0  0  0  0
 22 23  1  0  0  0  0
 22 24  2  0  0  0  0
 30 33  1  0  0  0  0
  8 11  1  0  0  0  0
 39 40  1  0  0  0  0
 18 21  1  0  0  0  0
 29 30  1  0  0  0  0
  7  8  1  0  0  0  0
 17 18  1  0  0  0  0
  3  4  1  0  0  0  0
  3  5  1  0  0  0  0
  3  6  1  0  0  0  0
 33 36  1  0  0  0  0
 33 37  1  0  0  0  0
 33 38  1  0  0  0  0
 11 14  1  0  0  0  0
 11 15  1  0  0  0  0
 11 16  1  0  0  0  0
 40 42  1  0  0  0  0
 40 43  1  0  0  0  0
 40 44  1  0  0  0  0
 21 27  1  0  0  0  0
 21 28  1  0  0  0  0
 30 35  1  0  0  0  0
  8 13  1  0  0  0  0
 18 26  1  0  0  0  0
 39 41  1  0  0  0  0
  7 12  1  0  0  0  0
 29 34  1  0  0  0  0
 17 25  1  0  0  0  0
M  CHG  1  23  -1
M  END
$$$$

  -OEChem-05262214473D

 44 43  0     1  0  0  0  0  0999 V2000
   -4.0256   -1.8030   -2.1581 C   0  0  0  0  0  0  0  0  0  0  0  0
   -3.7513   -2.6782   -2.9709 O   0  0  0  0  0  0  0  0  0  0  0  0
   -5.3491   -1.1169   -2.2339 C   0  0  0  0  0  0  0  0  0  0  0  0
   -5.3223   -0.2211   -2.8750 H   0  0  0  0  0  0  0  0  0  0  0  0
   -6.1322   -1.7605   -2.6658 H   0  0  0  0  0  0  0  0  0  0  0  0
   -5.7568   -0.7715   -1.2704 H   0  0  0  0  0  0  0  0  0  0  0  0
   -3.2124   -1.3578   -1.1289 N   0  0  0  0  0  0  0  0  0  0  0  0
   -1.8971   -1.8843   -0.8752 C   0  0  2  0  0  0  0  0  0  0  0  0
   -1.2676   -1.0599    0.2399 C   0  0  0  0  0  0  0  0  0  0  0  0
   -1.6270    0.0833    0.5138 O   0  0  0  0  0  0  0  0  0  0  0  0
   -1.0364   -1.8506   -2.1285 C   0  0  0  0  0  0  0  0  0  0  0  0
   -3.5631   -0.6202   -0.5206 H   0  0  0  0  0  0  0  0  0  0  0  0
   -2.0301   -2.9174   -0.5360 H   0  0  0  0  0  0  0  0  0  0  0  0
   -0.8921   -0.8236   -2.4833 H   0  0  0  0  0  0  0  0  0  0  0  0
   -0.0457   -2.2777   -1.9410 H   0  0  0  0  0  0  0  0  0  0  0  0
   -1.5052   -2.4193   -2.9387 H   0  0  0  0  0  0  0  0  0  0  0  0
   -0.2267   -1.7335    0.8672 N   0  0  0  0  0  0  0  0  0  0  0  0
    0.5363   -1.1590    1.9465 C   0  0  2  0  0  0  0  0  0  0  0  0
   -0.4406   -0.8558    3.0767 C   0  0  0  0  0  0  0  0  0  0  0  0
   -0.0794   -0.5709    4.2167 O   0  0  0  0  0  0  0  0  0  0  0  0
    1.2658    0.1105    1.5131 C   0  0  0  0  0  0  0  0  0  0  0  0
    2.4217   -0.0722    0.5213 C   0  0  0  0  0  0  0  0  0  0  0  0
    3.0068   -1.1905    0.6108 O   0  5  0  0  0  0  0  0  0  0  0  0
    2.6621    0.8954   -0.2511 O   0  0  0  0  0  0  0  0  0  0  0  0
   -0.0113   -2.6869    0.5854 H   0  0  0  0  0  0  0  0  0  0  0  0
    1.2428   -1.9285    2.2776 H   0  0  0  0  0  0  0  0  0  0  0  0
    1.6590    0.6305    2.3974 H   0  0  0  0  0  0  0  0  0  0  0  0
    0.5563    0.8002    1.0376 H   0  0  0  0  0  0  0  0  0  0  0  0
   -1.7605   -0.8901    2.6487 N   0  0  0  0  0  0  0  0  0  0  0  0
   -2.8740   -0.6066    3.5240 C   0  0  2  0  0  0  0  0  0  0  0  0
   -4.0650   -1.4298    3.0514 C   0  0  0  0  0  0  0  0  0  0  0  0
   -4.1699   -1.8610    1.9050 O   0  0  0  0  0  0  0  0  0  0  0  0
   -3.2077    0.8770    3.5321 C   0  0  0  0  0  0  0  0  0  0  0  0
   -1.9642   -1.0887    1.6736 H   0  0  0  0  0  0  0  0  0  0  0  0
   -2.5788   -0.9329    4.5272 H   0  0  0  0  0  0  0  0  0  0  0  0
   -3.5057    1.2223    2.5354 H   0  0  0  0  0  0  0  0  0  0  0  0
   -4.0334    1.0943    4.2177 H   0  0  0  0  0  0  0  0  0  0  0  0
   -2.3408    1.4697    3.8437 H   0  0  0  0  0  0  0  0  0  0  0  0
   -5.0173   -1.5898    4.0482 N   0  0  0  0  0  0  0  0  0  0  0  0
   -6.2454   -2.3218    3.8430 C   0  0  0  0  0  0  0  0  0  0  0  0
   -4.8386   -1.2144    4.9749 H   0  0  0  0  0  0  0  0  0  0  0  0
   -7.0381   -1.6278    3.5270 H   0  0  0  0  0  0  0  0  0  0  0  0
   -6.0925   -3.0830    3.0637 H   0  0  0  0  0  0  0  0  0  0  0  0
   -6.5408   -2.8127    4.7820 H   0  0  0  0  0  0  0  0  0  0  0  0
  1  3  1  0  0  0  0
  1  7  1  0  0  0  0
  1  2  2  0  0  0  0
 30 31  1  0  0  0  0
 31 39  1  0  0  0  0
 31 32  2  0  0  0  0
  8  9  1  0  0  0  0
  9 17  1  0  0  0  0
  9 10  2  0  0  0  0
 18 19  1  0  0  0  0
 19 29  1  0  0  0  0
 19 20  2  0  0  0  0
 21 22  1  0  0  0  0
 22 23  1  0  0  0  0
 22 24  2  0  0  0  0
 30 33  1  0  0  0  0
  8 11  1  0  0  0  0
 39 40  1  0  0  0  0
 18 21  1  0  0  0  0
 29 30  1  0  0  0  0
  7  8  1  0  0  0  0
 17 18  1  0  0  0  0
  3  4  1  0  0  0  0
  3  5  1  0  0  0  0
  3  6  1  0  0  0  0
 33 36  1  0  0  0  0
 33 37  1  0  0  0  0
 33 38  1  0  0  0  0
 11 14  1  0  0  0  0
 11 15  1  0  0  0  0
 11 16  1  0  0  0  0
 40 42  1  0  0  0  0
 40 43  1  0  0  0  0
 40 44  1  0  0  0  0
 21 27  1  0  0  0  0
 21 28  1  0  0  0  0
 30 35  1  0  0  0  0
  8 13  1  0  0  0  0
 18 26  1  0  0  0  0
 39 41  1  0  0  0  0
  7 12  1  0  0  0  0
 29 34  1  0  0  0  0
 17 25  1  0  0  0  0
M  CHG  1  23  -1
M  END
$$$$

  -OEChem-05262214473D

 44 43  0     1  0  0  0  0  0999 V2000
   -4.0256   -1.8030   -2.1581 C   0  0  0  0  0  0  0  0  0  0  0  0
   -3.7513   -2.6782   -2.9709 O   0  0  0  0  0  0  0  0  0  0  0  0
   -5.3491   -1.1169   -2.2339 C   0  0  0  0  0  0  0  0  0  0  0  0
   -5.3223   -0.2211   -2.8750 H   0  0  0  0  0  0  0  0  0  0  0  0
   -6.1322   -1.7605   -2.6658 H   0  0  0  0  0  0  0  0  0  0  0  0
   -5.7568   -0.7715   -1.2704 H   0  0  0  0  0  0  0  0  0  0  0  0
   -3.2124   -1.3578   -1.1289 N   0  0  0  0  0  0  0  0  0  0  0  0
   -1.8971   -1.8843   -0.8752 C   0  0  2  0  0  0  0  0  0  0  0  0
   -1.2676   -1.0599    0.2399 C   0  0  0  0  0  0  0  0  0  0  0  0
   -1.6270    0.0833    0.5138 O   0  0  0  0  0  0  0  0  0  0  0  0
   -1.0364   -1.8506   -2.1285 C   0  0  0  0  0  0  0  0  0  0  0  0
   -3.5631   -0.6202   -0.5206 H   0  0  0  0  0  0  0  0  0  0  0  0
   -2.0301   -2.9174   -0.5360 H   0  0  0  0  0  0  0  0  0  0  0  0
   -0.8921   -0.8236   -2.4833 H   0  0  0  0  0  0  0  0  0  0  0  0
   -0.0457   -2.2777   -1.9410 H   0  0  0  0  0  0  0  0  0  0  0  0
   -1.5052   -2.4193   -2.9387 H   0  0  0  0  0  0  0  0  0  0  0  0
   -0.2267   -1.7335    0.8672 N   0  0  0  0  0  0  0  0  0  0  0  0
    0.5363   -1.1590    1.9465 C   0  0  2  0  0  0  0  0  0  0  0  0
   -0.4406   -0.8558    3.0767 C   0  0  0  0  0  0  0  0  0  0  0  0
   -0.1023   -0.3177    4.1289 O   0  0  0  0  0  0  0  0  0  0  0  0
    1.2658    0.1105    1.5131 C   0  0  0  0  0  0  0  0  0  0  0  0
    2.4217   -0.0722    0.5213 C   0  0  0  0  0  0  0  0  0  0  0  0
    3.0068   -1.1905    0.6108 O   0  5  0  0  0  0  0  0  0  0  0  0
    2.6621    0.8954   -0.2511 O   0  0  0  0  0  0  0  0  0  0  0  0
   -0.0113   -2.6869    0.5854 H   0  0  0  0  0  0  0  0  0  0  0  0
    1.2428   -1.9285    2.2776 H   0  0  0  0  0  0  0  0  0  0  0  0
    1.6590    0.6305    2.3974 H   0  0  0  0  0  0  0  0  0  0  0  0
    0.5563    0.8002    1.0376 H   0  0  0  0  0  0  0  0  0  0  0  0
   -1.7423   -1.2096    2.7501 N   0  0  0  0  0  0  0  0  0  0  0  0
   -2.8583   -0.9948    3.6417 C   0  0  2  0  0  0  0  0  0  0  0  0
   -3.8805   -2.0952    3.3893 C   0  0  0  0  0  0  0  0  0  0  0  0
   -3.9391   -2.7278    2.3370 O   0  0  0  0  0  0  0  0  0  0  0  0
   -3.4761    0.3792    3.4337 C   0  0  0  0  0  0  0  0  0  0  0  0
   -1.9374   -1.6066    1.8357 H   0  0  0  0  0  0  0  0  0  0  0  0
   -2.4696   -1.0836    4.6620 H   0  0  0  0  0  0  0  0  0  0  0  0
   -3.8711    0.4869    2.4169 H   0  0  0  0  0  0  0  0  0  0  0  0
   -4.3037    0.5516    4.1297 H   0  0  0  0  0  0  0  0  0  0  0  0
   -2.7320    1.1683    3.5865 H   0  0  0  0  0  0  0  0  0  0  0  0
   -4.7471   -2.2582    4.4610 N   0  0  0  0  0  0  0  0  0  0  0  0
   -5.8141   -3.2316    4.4598 C   0  0  0  0  0  0  0  0  0  0  0  0
   -4.6129   -1.7031    5.3011 H   0  0  0  0  0  0  0  0  0  0  0  0
   -6.7383   -2.7630    4.0907 H   0  0  0  0  0  0  0  0  0  0  0  0
   -5.5424   -4.0724    3.8046 H   0  0  0  0  0  0  0  0  0  0  0  0
   -5.9741   -3.6013    5.4834 H   0  0  0  0  0  0  0  0  0  0  0  0
  1  3  1  0  0  0  0
  1  7  1  0  0  0  0
  1  2  2  0  0  0  0
 30 31  1  0  0  0  0
 31 39  1  0  0  0  0
 31 32  2  0  0  0  0
  8  9  1  0  0  0  0
  9 17  1  0  0  0  0
  9 10  2  0  0  0  0
 18 19  1  0  0  0  0
 19 29  1  0  0  0  0
 19 20  2  0  0  0  0
 21 22  1  0  0  0  0
 22 23  1  0  0  0  0
 22 24  2  0  0  0  0
 30 33  1  0  0  0  0
  8 11  1  0  0  0  0
 39 40  1  0  0  0  0
 18 21  1  0  0  0  0
 29 30  1  0  0  0  0
  7  8  1  0  0  0  0
 17 18  1  0  0  0  0
  3  4  1  0  0  0  0
  3  5  1  0  0  0  0
  3  6  1  0  0  0  0
 33 36  1  0  0  0  0
 33 37  1  0  0  0  0
 33 38  1  0  0  0  0
 11 14  1  0  0  0  0
 11 15  1  0  0  0  0
 11 16  1  0  0  0  0
 40 42  1  0  0  0  0
 40 43  1  0  0  0  0
 40 44  1  0  0  0  0
 21 27  1  0  0  0  0
 21 28  1  0  0  0  0
 30 35  1  0  0  0  0
  8 13  1  0  0  0  0
 18 26  1  0  0  0  0
 39 41  1  0  0  0  0
  7 12  1  0  0  0  0
 29 34  1  0  0  0  0
 17 25  1  0  0  0  0
M  CHG  1  23  -1
M  END
$$$$

  -OEChem-05262214473D

 44 43  0     1  0  0  0  0  0999 V2000
   -4.0256   -1.8030   -2.1581 C   0  0  0  0  0  0  0  0  0  0  0  0
   -3.7513   -2.6782   -2.9709 O   0  0  0  0  0  0  0  0  0  0  0  0
   -5.3491   -1.1169   -2.2339 C   0  0  0  0  0  0  0  0  0  0  0  0
   -5.3223   -0.2211   -2.8750 H   0  0  0  0  0  0  0  0  0  0  0  0
   -6.1322   -1.7605   -2.6658 H   0  0  0  0  0  0  0  0  0  0  0  0
   -5.7568   -0.7715   -1.2704 H   0  0  0  0  0  0  0  0  0  0  0  0
   -3.2124   -1.3578   -1.1289 N   0  0  0  0  0  0  0  0  0  0  0  0
   -1.8971   -1.8843   -0.8752 C   0  0  2  0  0  0  0  0  0  0  0  0
   -1.2676   -1.0599    0.2399 C   0  0  0  0  0  0  0  0  0  0  0  0
   -1.6270    0.0833    0.5138 O   0  0  0  0  0  0  0  0  0  0  0  0
   -1.0364   -1.8506   -2.1285 C   0  0  0  0  0  0  0  0  0  0  0  0
   -3.5631   -0.6202   -0.5206 H   0  0  0  0  0  0  0  0  0  0  0  0
   -2.0301   -2.9174   -0.5360 H   0  0  0  0  0  0  0  0  0  0  0  0
   -0.8921   -0.8236   -2.4833 H   0  0  0  0  0  0  0  0  0  0  0  0
   -0.0457   -2.2777   -1.9410 H   0  0  0  0  0  0  0  0  0  0  0  0
   -1.5052   -2.4193   -2.9387 H   0  0  0  0  0  0  0  0  0  0  0  0
   -0.2267   -1.7335    0.8672 N   0  0  0  0  0  0  0  0  0  0  0  0
    0.5363   -1.1590    1.9465 C   0  0  2  0  0  0  0  0  0  0  0  0
   -0.4406   -0.8558    3.0767 C   0  0  0  0  0  0  0  0  0  0  0  0
   -0.1776   -0.0920    4.0034 O   0  0  0  0  0  0  0  0  0  0  0  0
    1.2658    0.1105    1.5131 C   0  0  0  0  0  0  0  0  0  0  0  0
    2.4217   -0.0722    0.5213 C   0  0  0  0  0  0  0  0  0  0  0  0
    3.0068   -1.1905    0.6108 O   0  5  0  0  0  0  0  0  0  0  0  0
    2.6621    0.8954   -0.2511 O   0  0  0  0  0  0  0  0  0  0  0  0
   -0.0113   -2.6869    0.5854 H   0  0  0  0  0  0  0  0  0  0  0  0
    1.2428   -1.9285    2.2776 H   0  0  0  0  0  0  0  0  0  0  0  0
    1.6590    0.6305    2.3974 H   0  0  0  0  0  0  0  0  0  0  0  0
    0.5563    0.8002    1.0376 H   0  0  0  0  0  0  0  0  0  0  0  0
   -1.6583   -1.4980    2.9001 N   0  0  0  0  0  0  0  0  0  0  0  0
   -2.7625   -1.3471    3.8190 C   0  0  2  0  0  0  0  0  0  0  0  0
   -3.5572   -2.6463    3.8166 C   0  0  0  0  0  0  0  0  0  0  0  0
   -3.5276   -3.4491    2.8861 O   0  0  0  0  0  0  0  0  0  0  0  0
   -3.6449   -0.1696    3.4349 C   0  0  0  0  0  0  0  0  0  0  0  0
   -1.8038   -2.0748    2.0768 H   0  0  0  0  0  0  0  0  0  0  0  0
   -2.3282   -1.1857    4.8116 H   0  0  0  0  0  0  0  0  0  0  0  0
   -4.0890   -0.3132    2.4432 H   0  0  0  0  0  0  0  0  0  0  0  0
   -4.4652   -0.0391    4.1485 H   0  0  0  0  0  0  0  0  0  0  0  0
   -3.0652    0.7594    3.4081 H   0  0  0  0  0  0  0  0  0  0  0  0
   -4.3366   -2.7834    4.9568 N   0  0  0  0  0  0  0  0  0  0  0  0
   -5.1911   -3.9253    5.1843 C   0  0  0  0  0  0  0  0  0  0  0  0
   -4.2844   -2.0778    5.6856 H   0  0  0  0  0  0  0  0  0  0  0  0
   -6.2018   -3.7085    4.8080 H   0  0  0  0  0  0  0  0  0  0  0  0
   -4.7831   -4.7996    4.6560 H   0  0  0  0  0  0  0  0  0  0  0  0
   -5.2393   -4.1380    6.2625 H   0  0  0  0  0  0  0  0  0  0  0  0
  1  3  1  0  0  0  0
  1  7  1  0  0  0  0
  1  2  2  0  0  0  0
 30 31  1  0  0  0  0
 31 39  1  0  0  0  0
 31 32  2  0  0  0  0
  8  9  1  0  0  0  0
  9 17  1  0  0  0  0
  9 10  2  0  0  0  0
 18 19  1  0  0  0  0
 19 29  1  0  0  0  0
 19 20  2  0  0  0  0
 21 22  1  0  0  0  0
 22 23  1  0  0  0  0
 22 24  2  0  0  0  0
 30 33  1  0  0  0  0
  8 11  1  0  0  0  0
 39 40  1  0  0  0  0
 18 21  1  0  0  0  0
 29 30  1  0  0  0  0
  7  8  1  0  0  0  0
 17 18  1  0  0  0  0
  3  4  1  0  0  0  0
  3  5  1  0  0  0  0
  3  6  1  0  0  0  0
 33 36  1  0  0  0  0
 33 37  1  0  0  0  0
 33 38  1  0  0  0  0
 11 14  1  0  0  0  0
 11 15  1  0  0  0  0
 11 16  1  0  0  0  0
 40 42  1  0  0  0  0
 40 43  1  0  0  0  0
 40 44  1  0  0  0  0
 21 27  1  0  0  0  0
 21 28  1  0  0  0  0
 30 35  1  0  0  0  0
  8 13  1  0  0  0  0
 18 26  1  0  0  0  0
 39 41  1  0  0  0  0
  7 12  1  0  0  0  0
 29 34  1  0  0  0  0
 17 25  1  0  0  0  0
M  CHG  1  23  -1
M  END
$$$$

  -OEChem-05262214473D

 44 43  0     1  0  0  0  0  0999 V2000
   -4.0256   -1.8030   -2.1581 C   0  0  0  0  0  0  0  0  0  0  0  0
   -3.7513   -2.6782   -2.9709 O   0  0  0  0  0  0  0  0  0  0  0  0
   -5.3491   -1.1169   -2.2339 C   0  0  0  0  0  0  0  0  0  0  0  0
   -5.3223   -0.2211   -2.8750 H   0  0  0  0  0  0  0  0  0  0  0  0
   -6.1322   -1.7605   -2.6658 H   0  0  0  0  0  0  0  0  0  0  0  0
   -5.7568   -0.7715   -1.2704 H   0  0  0  0  0  0  0  0  0  0  0  0
   -3.2124   -1.3578   -1.1289 N   0  0  0  0  0  0  0  0  0  0  0  0
   -1.8971   -1.8843   -0.8752 C   0  0  2  0  0  0  0  0  0  0  0  0
   -1.2676   -1.0599    0.2399 C   0  0  0  0  0  0  0  0  0  0  0  0
   -1.6270    0.0833    0.5138 O   0  0  0  0  0  0  0  0  0  0  0  0
   -1.0364   -1.8506   -2.1285 C   0  0  0  0  0  0  0  0  0  0  0  0
   -3.5631   -0.6202   -0.5206 H   0  0  0  0  0  0  0  0  0  0  0  0
   -2.0301   -2.9174   -0.5360 H   0  0  0  0  0  0  0  0  0  0  0  0
   -0.8921   -0.8236   -2.4833 H   0  0  0  0  0  0  0  0  0  0  0  0
   -0.0457   -2.2777   -1.9410 H   0  0  0  0  0  0  0  0  0  0  0  0
   -1.5052   -2.4193   -2.9387 H   0  0  0  0  0  0  0  0  0  0  0  0
   -0.2267   -1.7335    0.8672 N   0  0  0  0  0  0  0  0  0  0  0  0
    0.5363   -1.1590    1.9465 C   0  0  2  0  0  0  0  0  0  0  0  0
   -0.4406   -0.8558    3.0767 C   0  0  0  0  0  0  0  0  0  0  0  0
   -0.3001    0.0907    3.8485 O   0  0  0  0  0  0  0  0  0  0  0  0
    1.2658    0.1105    1.5131 C   0  0  0  0  0  0  0  0  0  0  0  0
    2.4217   -0.0722    0.5213 C   0  0  0  0  0  0  0  0  0  0  0  0
    3.0068   -1.1905    0.6108 O   0  5  0  0  0  0  0  0  0  0  0  0
    2.6621    0.8954   -0.2511 O   0  0  0  0  0  0  0  0  0  0  0  0
   -0.0113   -2.6869    0.5854 H   0  0  0  0  0  0  0  0  0  0  0  0
    1.2428   -1.9285    2.2776 H   0  0  0  0  0  0  0  0  0  0  0  0
    1.6590    0.6305    2.3974 H   0  0  0  0  0  0  0  0  0  0  0  0
    0.5563    0.8002    1.0376 H   0  0  0  0  0  0  0  0  0  0  0  0
   -1.5140   -1.7356    3.0885 N   0  0  0  0  0  0  0  0  0  0  0  0
   -2.5933   -1.6397    4.0437 C   0  0  2  0  0  0  0  0  0  0  0  0
   -3.1171   -3.0458    4.3042 C   0  0  0  0  0  0  0  0  0  0  0  0
   -2.9635   -3.9758    3.5151 O   0  0  0  0  0  0  0  0  0  0  0  0
   -3.7026   -0.7318    3.5359 C   0  0  0  0  0  0  0  0  0  0  0  0
   -1.5725   -2.4615    2.3804 H   0  0  0  0  0  0  0  0  0  0  0  0
   -2.1643   -1.2325    4.9658 H   0  0  0  0  0  0  0  0  0  0  0  0
   -4.1446   -1.1235    2.6125 H   0  0  0  0  0  0  0  0  0  0  0  0
   -4.5068   -0.6374    4.2731 H   0  0  0  0  0  0  0  0  0  0  0  0
   -3.3178    0.2709    3.3208 H   0  0  0  0  0  0  0  0  0  0  0  0
   -3.8138   -3.1298    5.5016 N   0  0  0  0  0  0  0  0  0  0  0  0
   -4.4190   -4.3557    5.9672 C   0  0  0  0  0  0  0  0  0  0  0  0
   -3.8753   -2.3129    6.1022 H   0  0  0  0  0  0  0  0  0  0  0  0
   -5.4652   -4.3998    5.6301 H   0  0  0  0  0  0  0  0  0  0  0  0
   -3.8662   -5.2151    5.5600 H   0  0  0  0  0  0  0  0  0  0  0  0
   -4.3864   -4.3862    7.0663 H   0  0  0  0  0  0  0  0  0  0  0  0
  1  3  1  0  0  0  0
  1  7  1  0  0  0  0
  1  2  2  0  0  0  0
 30 31  1  0  0  0  0
 31 39  1  0  0  0  0
 31 32  2  0  0  0  0
  8  9  1  0  0  0  0
  9 17  1  0  0  0  0
  9 10  2  0  0  0  0
 18 19  1  0  0  0  0
 19 29  1  0  0  0  0
 19 20  2  0  0  0  0
 21 22  1  0  0  0  0
 22 23  1  0  0  0  0
 22 24  2  0  0  0  0
 30 33  1  0  0  0  0
  8 11  1  0  0  0  0
 39 40  1  0  0  0  0
 18 21  1  0  0  0  0
 29 30  1  0  0  0  0
  7  8  1  0  0  0  0
 17 18  1  0  0  0  0
  3  4  1  0  0  0  0
  3  5  1  0  0  0  0
  3  6  1  0  0  0  0
 33 36  1  0  0  0  0
 33 37  1  0  0  0  0
 33 38  1  0  0  0  0
 11 14  1  0  0  0  0
 11 15  1  0  0  0  0
 11 16  1  0  0  0  0
 40 42  1  0  0  0  0
 40 43  1  0  0  0  0
 40 44  1  0  0  0  0
 21 27  1  0  0  0  0
 21 28  1  0  0  0  0
 30 35  1  0  0  0  0
  8 13  1  0  0  0  0
 18 26  1  0  0  0  0
 39 41  1  0  0  0  0
  7 12  1  0  0  0  0
 29 34  1  0  0  0  0
 17 25  1  0  0  0  0
M  CHG  1  23  -1
M  END
$$$$

  -OEChem-05262214473D

 44 43  0     1  0  0  0  0  0999 V2000
   -4.0256   -1.8030   -2.1581 C   0  0  0  0  0  0  0  0  0  0  0  0
   -3.7513   -2.6782   -2.9709 O   0  0  0  0  0  0  0  0  0  0  0  0
   -5.3491   -1.1169   -2.2339 C   0  0  0  0  0  0  0  0  0  0  0  0
   -5.3223   -0.2211   -2.8750 H   0  0  0  0  0  0  0  0  0  0  0  0
   -6.1322   -1.7605   -2.6658 H   0  0  0  0  0  0  0  0  0  0  0  0
   -5.7568   -0.7715   -1.2704 H   0  0  0  0  0  0  0  0  0  0  0  0
   -3.2124   -1.3578   -1.1289 N   0  0  0  0  0  0  0  0  0  0  0  0
   -1.8971   -1.8843   -0.8752 C   0  0  2  0  0  0  0  0  0  0  0  0
   -1.2676   -1.0599    0.2399 C   0  0  0  0  0  0  0  0  0  0  0  0
   -1.6270    0.0833    0.5138 O   0  0  0  0  0  0  0  0  0  0  0  0
   -1.0364   -1.8506   -2.1285 C   0  0  0  0  0  0  0  0  0  0  0  0
   -3.5631   -0.6202   -0.5206 H   0  0  0  0  0  0  0  0  0  0  0  0
   -2.0301   -2.9174   -0.5360 H   0  0  0  0  0  0  0  0  0  0  0  0
   -0.8921   -0.8236   -2.4833 H   0  0  0  0  0  0  0  0  0  0  0  0
   -0.0457   -2.2777   -1.9410 H   0  0  0  0  0  0  0  0  0  0  0  0
   -1.5052   -2.4193   -2.9387 H   0  0  0  0  0  0  0  0  0  0  0  0
   -0.2267   -1.7335    0.8672 N   0  0  0  0  0  0  0  0  0  0  0  0
    0.5363   -1.1590    1.9465 C   0  0  2  0  0  0  0  0  0  0  0  0
   -0.4406   -0.8558    3.0767 C   0  0  0  0  0  0  0  0  0  0  0  0
   -0.4614    0.2179    3.6749 O   0  0  0  0  0  0  0  0  0  0  0  0
    1.2658    0.1105    1.5131 C   0  0  0  0  0  0  0  0  0  0  0  0
    2.4217   -0.0722    0.5213 C   0  0  0  0  0  0  0  0  0  0  0  0
    3.0068   -1.1905    0.6108 O   0  5  0  0  0  0  0  0  0  0  0  0
    2.6621    0.8954   -0.2511 O   0  0  0  0  0  0  0  0  0  0  0  0
   -0.0113   -2.6869    0.5854 H   0  0  0  0  0  0  0  0  0  0  0  0
    1.2428   -1.9285    2.2776 H   0  0  0  0  0  0  0  0  0  0  0  0
    1.6590    0.6305    2.3974 H   0  0  0  0  0  0  0  0  0  0  0  0
    0.5563    0.8002    1.0376 H   0  0  0  0  0  0  0  0  0  0  0  0
   -1.3194   -1.9061    3.3025 N   0  0  0  0  0  0  0  0  0  0  0  0
   -2.3621   -1.8525    4.3006 C   0  0  2  0  0  0  0  0  0  0  0  0
   -2.5903   -3.2664    4.8187 C   0  0  0  0  0  0  0  0  0  0  0  0
   -2.2851   -4.2719    4.1809 O   0  0  0  0  0  0  0  0  0  0  0  0
   -3.6453   -1.2692    3.7296 C   0  0  0  0  0  0  0  0  0  0  0  0
   -1.2592   -2.7402    2.7260 H   0  0  0  0  0  0  0  0  0  0  0  0
   -1.9892   -1.2206    5.1140 H   0  0  0  0  0  0  0  0  0  0  0  0
   -4.0340   -1.8888    2.9133 H   0  0  0  0  0  0  0  0  0  0  0  0
   -4.4258   -1.2028    4.4947 H   0  0  0  0  0  0  0  0  0  0  0  0
   -3.4725   -0.2638    3.3305 H   0  0  0  0  0  0  0  0  0  0  0  0
   -3.2142   -3.2736    6.0584 N   0  0  0  0  0  0  0  0  0  0  0  0
   -3.5503   -4.4934    6.7550 C   0  0  0  0  0  0  0  0  0  0  0  0
   -3.4137   -2.3924    6.5225 H   0  0  0  0  0  0  0  0  0  0  0  0
   -4.5787   -4.7898    6.5010 H   0  0  0  0  0  0  0  0  0  0  0  0
   -2.8543   -5.2905    6.4548 H   0  0  0  0  0  0  0  0  0  0  0  0
   -3.4736   -4.3289    7.8399 H   0  0  0  0  0  0  0  0  0  0  0  0
  1  3  1  0  0  0  0
  1  7  1  0  0  0  0
  1  2  2  0  0  0  0
 30 31  1  0  0  0  0
 31 39  1  0  0  0  0
 31 32  2  0  0  0  0
  8  9  1  0  0  0  0
  9 17  1  0  0  0  0
  9 10  2  0  0  0  0
 18 19  1  0  0  0  0
 19 29  1  0  0  0  0
 19 20  2  0  0  0  0
 21 22  1  0  0  0  0
 22 23  1  0  0  0  0
 22 24  2  0  0  0  0
 30 33  1  0  0  0  0
  8 11  1  0  0  0  0
 39 40  1  0  0  0  0
 18 21  1  0  0  0  0
 29 30  1  0  0  0  0
  7  8  1  0  0  0  0
 17 18  1  0  0  0  0
  3  4  1  0  0  0  0
  3  5  1  0  0  0  0
  3  6  1  0  0  0  0
 33 36  1  0  0  0  0
 33 37  1  0  0  0  0
 33 38  1  0  0  0  0
 11 14  1  0  0  0  0
 11 15  1  0  0  0  0
 11 16  1  0  0  0  0
 40 42  1  0  0  0  0
 40 43  1  0  0  0  0
 40 44  1  0  0  0  0
 21 27  1  0  0  0  0
 21 28  1  0  0  0  0
 30 35  1  0  0  0  0
  8 13  1  0  0  0  0
 18 26  1  0  0  0  0
 39 41  1  0  0  0  0
  7 12  1  0  0  0  0
 29 34  1  0  0  0  0
 17 25  1  0  0  0  0
M  CHG  1  23  -1
M  END
$$$$

  -OEChem-05262214473D

 44 43  0     1  0  0  0  0  0999 V2000
   -4.0256   -1.8030   -2.1581 C   0  0  0  0  0  0  0  0  0  0  0  0
   -3.7513   -2.6782   -2.9709 O   0  0  0  0  0  0  0  0  0  0  0  0
   -5.3491   -1.1169   -2.2339 C   0  0  0  0  0  0  0  0  0  0  0  0
   -5.3223   -0.2211   -2.8750 H   0  0  0  0  0  0  0  0  0  0  0  0
   -6.1322   -1.7605   -2.6658 H   0  0  0  0  0  0  0  0  0  0  0  0
   -5.7568   -0.7715   -1.2704 H   0  0  0  0  0  0  0  0  0  0  0  0
   -3.2124   -1.3578   -1.1289 N   0  0  0  0  0  0  0  0  0  0  0  0
   -1.8971   -1.8843   -0.8752 C   0  0  2  0  0  0  0  0  0  0  0  0
   -1.2676   -1.0599    0.2399 C   0  0  0  0  0  0  0  0  0  0  0  0
   -1.6270    0.0833    0.5138 O   0  0  0  0  0  0  0  0  0  0  0  0
   -1.0364   -1.8506   -2.1285 C   0  0  0  0  0  0  0  0  0  0  0  0
   -3.5631   -0.6202   -0.5206 H   0  0  0  0  0  0  0  0  0  0  0  0
   -2.0301   -2.9174   -0.5360 H   0  0  0  0  0  0  0  0  0  0  0  0
   -0.8921   -0.8236   -2.4833 H   0  0  0  0  0  0  0  0  0  0  0  0
   -0.0457   -2.2777   -1.9410 H   0  0  0  0  0  0  0  0  0  0  0  0
   -1.5052   -2.4193   -2.9387 H   0  0  0  0  0  0  0  0  0  0  0  0
   -0.2267   -1.7335    0.8672 N   0  0  0  0  0  0  0  0  0  0  0  0
    0.5363   -1.1590    1.9465 C   0  0  2  0  0  0  0  0  0  0  0  0
   -0.4406   -0.8558    3.0767 C   0  0  0  0  0  0  0  0  0  0  0  0
   -0.6506    0.2811    3.4944 O   0  0  0  0  0  0  0  0  0  0  0  0
    1.2658    0.1105    1.5131 C   0  0  0  0  0  0  0  0  0  0  0  0
    2.4217   -0.0722    0.5213 C   0  0  0  0  0  0  0  0  0  0  0  0
    3.0068   -1.1905    0.6108 O   0  5  0  0  0  0  0  0  0  0  0  0
    2.6621    0.8954   -0.2511 O   0  0  0  0  0  0  0  0  0  0  0  0
   -0.0113   -2.6869    0.5854 H   0  0  0  0  0  0  0  0  0  0  0  0
    1.2428   -1.9285    2.2776 H   0  0  0  0  0  0  0  0  0  0  0  0
    1.6590    0.6305    2.3974 H   0  0  0  0  0  0  0  0  0  0  0  0
    0.5563    0.8002    1.0376 H   0  0  0  0  0  0  0  0  0  0  0  0
   -1.0877   -1.9980    3.5274 N   0  0  0  0  0  0  0  0  0  0  0  0
   -2.0848   -1.9711    4.5722 C   0  0  2  0  0  0  0  0  0  0  0  0
   -2.0126   -3.2930    5.3252 C   0  0  0  0  0  0  0  0  0  0  0  0
   -1.5387   -4.3174    4.8382 O   0  0  0  0  0  0  0  0  0  0  0  0
   -3.4768   -1.7451    4.0029 C   0  0  0  0  0  0  0  0  0  0  0  0
   -0.8854   -2.8920    3.0898 H   0  0  0  0  0  0  0  0  0  0  0  0
   -1.8146   -1.1510    5.2462 H   0  0  0  0  0  0  0  0  0  0  0  0
   -3.7649   -2.5569    3.3251 H   0  0  0  0  0  0  0  0  0  0  0  0
   -4.2277   -1.6965    4.7984 H   0  0  0  0  0  0  0  0  0  0  0  0
   -3.5189   -0.8085    3.4366 H   0  0  0  0  0  0  0  0  0  0  0  0
   -2.5789   -3.2051    6.5892 N   0  0  0  0  0  0  0  0  0  0  0  0
   -2.6443   -4.3290    7.4940 C   0  0  0  0  0  0  0  0  0  0  0  0
   -2.9309   -2.3108    6.9180 H   0  0  0  0  0  0  0  0  0  0  0  0
   -3.6028   -4.8520    7.3612 H   0  0  0  0  0  0  0  0  0  0  0  0
   -1.8164   -5.0208    7.2796 H   0  0  0  0  0  0  0  0  0  0  0  0
   -2.5631   -3.9701    8.5307 H   0  0  0  0  0  0  0  0  0  0  0  0
  1  3  1  0  0  0  0
  1  7  1  0  0  0  0
  1  2  2  0  0  0  0
 30 31  1  0  0  0  0
 31 39  1  0  0  0  0
 31 32  2  0  0  0  0
  8  9  1  0  0  0  0
  9 17  1  0  0  0  0
  9 10  2  0  0  0  0
 18 19  1  0  0  0  0
 19 29  1  0  0  0  0
 19 20  2  0  0  0  0
 21 22  1  0  0  0  0
 22 23  1  0  0  0  0
 22 24  2  0  0  0  0
 30 33  1  0  0  0  0
  8 11  1  0  0  0  0
 39 40  1  0  0  0  0
 18 21  1  0  0  0  0
 29 30  1  0  0  0  0
  7  8  1  0  0  0  0
 17 18  1  0  0  0  0
  3  4  1  0  0  0  0
  3  5  1  0  0  0  0
  3  6  1  0  0  0  0
 33 36  1  0  0  0  0
 33 37  1  0  0  0  0
 33 38  1  0  0  0  0
 11 14  1  0  0  0  0
 11 15  1  0  0  0  0
 11 16  1  0  0  0  0
 40 42  1  0  0  0  0
 40 43  1  0  0  0  0
 40 44  1  0  0  0  0
 21 27  1  0  0  0  0
 21 28  1  0  0  0  0
 30 35  1  0  0  0  0
  8 13  1  0  0  0  0
 18 26  1  0  0  0  0
 39 41  1  0  0  0  0
  7 12  1  0  0  0  0
 29 34  1  0  0  0  0
 17 25  1  0  0  0  0
M  CHG  1  23  -1
M  END
$$$$

  -OEChem-05262214473D

 44 43  0     1  0  0  0  0  0999 V2000
   -4.0256   -1.8030   -2.1581 C   0  0  0  0  0  0  0  0  0  0  0  0
   -3.7513   -2.6782   -2.9709 O   0  0  0  0  0  0  0  0  0  0  0  0
   -5.3491   -1.1169   -2.2339 C   0  0  0  0  0  0  0  0  0  0  0  0
   -5.3223   -0.2211   -2.8750 H   0  0  0  0  0  0  0  0  0  0  0  0
   -6.1322   -1.7605   -2.6658 H   0  0  0  0  0  0  0  0  0  0  0  0
   -5.7568   -0.7715   -1.2704 H   0  0  0  0  0  0  0  0  0  0  0  0
   -3.2124   -1.3578   -1.1289 N   0  0  0  0  0  0  0  0  0  0  0  0
   -1.8971   -1.8843   -0.8752 C   0  0  2  0  0  0  0  0  0  0  0  0
   -1.2676   -1.0599    0.2399 C   0  0  0  0  0  0  0  0  0  0  0  0
   -1.6270    0.0833    0.5138 O   0  0  0  0  0  0  0  0  0  0  0  0
   -1.0364   -1.8506   -2.1285 C   0  0  0  0  0  0  0  0  0  0  0  0
   -3.5631   -0.6202   -0.5206 H   0  0  0  0  0  0  0  0  0  0  0  0
   -2.0301   -2.9174   -0.5360 H   0  0  0  0  0  0  0  0  0  0  0  0
   -0.8921   -0.8236   -2.4833 H   0  0  0  0  0  0  0  0  0  0  0  0
   -0.0457   -2.2777   -1.9410 H   0  0  0  0  0  0  0  0  0  0  0  0
   -1.5052   -2.4193   -2.9387 H   0  0  0  0  0  0  0  0  0  0  0  0
   -0.2267   -1.7335    0.8672 N   0  0  0  0  0  0  0  0  0  0  0  0
    0.5363   -1.1590    1.9465 C   0  0  2  0  0  0  0  0  0  0  0  0
   -0.4406   -0.8558    3.0767 C   0  0  0  0  0  0  0  0  0  0  0  0
   -0.8548    0.2759    3.3193 O   0  0  0  0  0  0  0  0  0  0  0  0
    1.2658    0.1105    1.5131 C   0  0  0  0  0  0  0  0  0  0  0  0
    2.4217   -0.0722    0.5213 C   0  0  0  0  0  0  0  0  0  0  0  0
    3.0068   -1.1905    0.6108 O   0  5  0  0  0  0  0  0  0  0  0  0
    2.6621    0.8954   -0.2511 O   0  0  0  0  0  0  0  0  0  0  0  0
   -0.0113   -2.6869    0.5854 H   0  0  0  0  0  0  0  0  0  0  0  0
    1.2428   -1.9285    2.2776 H   0  0  0  0  0  0  0  0  0  0  0  0
    1.6590    0.6305    2.3974 H   0  0  0  0  0  0  0  0  0  0  0  0
    0.5563    0.8002    1.0376 H   0  0  0  0  0  0  0  0  0  0  0  0
   -0.8347   -2.0049    3.7480 N   0  0  0  0  0  0  0  0  0  0  0  0
   -1.7801   -1.9874    4.8399 C   0  0  2  0  0  0  0  0  0  0  0  0
   -1.4234   -3.1238    5.7890 C   0  0  0  0  0  0  0  0  0  0  0  0
   -0.7752   -4.1090    5.4422 O   0  0  0  0  0  0  0  0  0  0  0  0
   -3.2086   -2.1272    4.3372 C   0  0  0  0  0  0  0  0  0  0  0  0
   -0.4764   -2.9066    3.4472 H   0  0  0  0  0  0  0  0  0  0  0  0
   -1.6525   -1.0282    5.3534 H   0  0  0  0  0  0  0  0  0  0  0  0
   -3.3556   -3.0823    3.8198 H   0  0  0  0  0  0  0  0  0  0  0  0
   -3.9259   -2.0851    5.1635 H   0  0  0  0  0  0  0  0  0  0  0  0
   -3.4536   -1.3259    3.6317 H   0  0  0  0  0  0  0  0  0  0  0  0
   -1.9510   -2.9290    7.0579 N   0  0  0  0  0  0  0  0  0  0  0  0
   -1.7626   -3.8737    8.1340 C   0  0  0  0  0  0  0  0  0  0  0  0
   -2.4598   -2.0738    7.2616 H   0  0  0  0  0  0  0  0  0  0  0  0
   -2.6039   -4.5821    8.1522 H   0  0  0  0  0  0  0  0  0  0  0  0
   -0.8231   -4.4243    7.9781 H   0  0  0  0  0  0  0  0  0  0  0  0
   -1.7169   -3.3342    9.0915 H   0  0  0  0  0  0  0  0  0  0  0  0
  1  3  1  0  0  0  0
  1  7  1  0  0  0  0
  1  2  2  0  0  0  0
 30 31  1  0  0  0  0
 31 39  1  0  0  0  0
 31 32  2  0  0  0  0
  8  9  1  0  0  0  0
  9 17  1  0  0  0  0
  9 10  2  0  0  0  0
 18 19  1  0  0  0  0
 19 29  1  0  0  0  0
 19 20  2  0  0  0  0
 21 22  1  0  0  0  0
 22 23  1  0  0  0  0
 22 24  2  0  0  0  0
 30 33  1  0  0  0  0
  8 11  1  0  0  0  0
 39 40  1  0  0  0  0
 18 21  1  0  0  0  0
 29 30  1  0  0  0  0
  7  8  1  0  0  0  0
 17 18  1  0  0  0  0
  3  4  1  0  0  0  0
  3  5  1  0  0  0  0
  3  6  1  0  0  0  0
 33 36  1  0  0  0  0
 33 37  1  0  0  0  0
 33 38  1  0  0  0  0
 11 14  1  0  0  0  0
 11 15  1  0  0  0  0
 11 16  1  0  0  0  0
 40 42  1  0  0  0  0
 40 43  1  0  0  0  0
 40 44  1  0  0  0  0
 21 27  1  0  0  0  0
 21 28  1  0  0  0  0
 30 35  1  0  0  0  0
  8 13  1  0  0  0  0
 18 26  1  0  0  0  0
 39 41  1  0  0  0  0
  7 12  1  0  0  0  0
 29 34  1  0  0  0  0
 17 25  1  0  0  0  0
M  CHG  1  23  -1
M  END
$$$$

  -OEChem-05262214473D

 44 43  0     1  0  0  0  0  0999 V2000
   -4.0256   -1.8030   -2.1581 C   0  0  0  0  0  0  0  0  0  0  0  0
   -3.7513   -2.6782   -2.9709 O   0  0  0  0  0  0  0  0  0  0  0  0
   -5.3491   -1.1169   -2.2339 C   0  0  0  0  0  0  0  0  0  0  0  0
   -5.3223   -0.2211   -2.8750 H   0  0  0  0  0  0  0  0  0  0  0  0
   -6.1322   -1.7605   -2.6658 H   0  0  0  0  0  0  0  0  0  0  0  0
   -5.7568   -0.7715   -1.2704 H   0  0  0  0  0  0  0  0  0  0  0  0
   -3.2124   -1.3578   -1.1289 N   0  0  0  0  0  0  0  0  0  0  0  0
   -1.8971   -1.8843   -0.8752 C   0  0  2  0  0  0  0  0  0  0  0  0
   -1.2676   -1.0599    0.2399 C   0  0  0  0  0  0  0  0  0  0  0  0
   -1.6270    0.0833    0.5138 O   0  0  0  0  0  0  0  0  0  0  0  0
   -1.0364   -1.8506   -2.1285 C   0  0  0  0  0  0  0  0  0  0  0  0
   -3.5631   -0.6202   -0.5206 H   0  0  0  0  0  0  0  0  0  0  0  0
   -2.0301   -2.9174   -0.5360 H   0  0  0  0  0  0  0  0  0  0  0  0
   -0.8921   -0.8236   -2.4833 H   0  0  0  0  0  0  0  0  0  0  0  0
   -0.0457   -2.2777   -1.9410 H   0  0  0  0  0  0  0  0  0  0  0  0
   -1.5052   -2.4193   -2.9387 H   0  0  0  0  0  0  0  0  0  0  0  0
   -0.2267   -1.7335    0.8672 N   0  0  0  0  0  0  0  0  0  0  0  0
    0.5363   -1.1590    1.9465 C   0  0  2  0  0  0  0  0  0  0  0  0
   -0.4406   -0.8558    3.0767 C   0  0  0  0  0  0  0  0  0  0  0  0
   -1.0600    0.2027    3.1616 O   0  0  0  0  0  0  0  0  0  0  0  0
    1.2658    0.1105    1.5131 C   0  0  0  0  0  0  0  0  0  0  0  0
    2.4217   -0.0722    0.5213 C   0  0  0  0  0  0  0  0  0  0  0  0
    3.0068   -1.1905    0.6108 O   0  5  0  0  0  0  0  0  0  0  0  0
    2.6621    0.8954   -0.2511 O   0  0  0  0  0  0  0  0  0  0  0  0
   -0.0113   -2.6869    0.5854 H   0  0  0  0  0  0  0  0  0  0  0  0
    1.2428   -1.9285    2.2776 H   0  0  0  0  0  0  0  0  0  0  0  0
    1.6590    0.6305    2.3974 H   0  0  0  0  0  0  0  0  0  0  0  0
    0.5563    0.8002    1.0376 H   0  0  0  0  0  0  0  0  0  0  0  0
   -0.5776   -1.9265    3.9492 N   0  0  0  0  0  0  0  0  0  0  0  0
   -1.4689   -1.9003    5.0855 C   0  0  2  0  0  0  0  0  0  0  0  0
   -0.8629   -2.7704    6.1787 C   0  0  0  0  0  0  0  0  0  0  0  0
   -0.0466   -3.6610    5.9518 O   0  0  0  0  0  0  0  0  0  0  0  0
   -2.8590   -2.3893    4.7097 C   0  0  0  0  0  0  0  0  0  0  0  0
   -0.0602   -2.7828    3.7738 H   0  0  0  0  0  0  0  0  0  0  0  0
   -1.5140   -0.8608    5.4282 H   0  0  0  0  0  0  0  0  0  0  0  0
   -2.8339   -3.4291    4.3638 H   0  0  0  0  0  0  0  0  0  0  0  0
   -3.5410   -2.3419    5.5650 H   0  0  0  0  0  0  0  0  0  0  0  0
   -3.2813   -1.7808    3.9027 H   0  0  0  0  0  0  0  0  0  0  0  0
   -1.3733   -2.4641    7.4324 N   0  0  0  0  0  0  0  0  0  0  0  0
   -0.9653   -3.1586    8.6313 C   0  0  0  0  0  0  0  0  0  0  0  0
   -2.0325   -1.6975    7.5299 H   0  0  0  0  0  0  0  0  0  0  0  0
   -1.6501   -3.9985    8.8201 H   0  0  0  0  0  0  0  0  0  0  0  0
    0.0578   -3.5416    8.5028 H   0  0  0  0  0  0  0  0  0  0  0  0
   -0.9926   -2.4646    9.4842 H   0  0  0  0  0  0  0  0  0  0  0  0
  1  3  1  0  0  0  0
  1  7  1  0  0  0  0
  1  2  2  0  0  0  0
 30 31  1  0  0  0  0
 31 39  1  0  0  0  0
 31 32  2  0  0  0  0
  8  9  1  0  0  0  0
  9 17  1  0  0  0  0
  9 10  2  0  0  0  0
 18 19  1  0  0  0  0
 19 29  1  0  0  0  0
 19 20  2  0  0  0  0
 21 22  1  0  0  0  0
 22 23  1  0  0  0  0
 22 24  2  0  0  0  0
 30 33  1  0  0  0  0
  8 11  1  0  0  0  0
 39 40  1  0  0  0  0
 18 21  1  0  0  0  0
 29 30  1  0  0  0  0
  7  8  1  0  0  0  0
 17 18  1  0  0  0  0
  3  4  1  0  0  0  0
  3  5  1  0  0  0  0
  3  6  1  0  0  0  0
 33 36  1  0  0  0  0
 33 37  1  0  0  0  0
 33 38  1  0  0  0  0
 11 14  1  0  0  0  0
 11 15  1  0  0  0  0
 11 16  1  0  0  0  0
 40 42  1  0  0  0  0
 40 43  1  0  0  0  0
 40 44  1  0  0  0  0
 21 27  1  0  0  0  0
 21 28  1  0  0  0  0
 30 35  1  0  0  0  0
  8 13  1  0  0  0  0
 18 26  1  0  0  0  0
 39 41  1  0  0  0  0
  7 12  1  0  0  0  0
 29 34  1  0  0  0  0
 17 25  1  0  0  0  0
M  CHG  1  23  -1
M  END
$$$$

  -OEChem-05262214473D

 44 43  0     1  0  0  0  0  0999 V2000
   -4.0256   -1.8030   -2.1581 C   0  0  0  0  0  0  0  0  0  0  0  0
   -3.7513   -2.6782   -2.9709 O   0  0  0  0  0  0  0  0  0  0  0  0
   -5.3491   -1.1169   -2.2339 C   0  0  0  0  0  0  0  0  0  0  0  0
   -5.3223   -0.2211   -2.8750 H   0  0  0  0  0  0  0  0  0  0  0  0
   -6.1322   -1.7605   -2.6658 H   0  0  0  0  0  0  0  0  0  0  0  0
   -5.7568   -0.7715   -1.2704 H   0  0  0  0  0  0  0  0  0  0  0  0
   -3.2124   -1.3578   -1.1289 N   0  0  0  0  0  0  0  0  0  0  0  0
   -1.8971   -1.8843   -0.8752 C   0  0  2  0  0  0  0  0  0  0  0  0
   -1.2676   -1.0599    0.2399 C   0  0  0  0  0  0  0  0  0  0  0  0
   -1.6270    0.0833    0.5138 O   0  0  0  0  0  0  0  0  0  0  0  0
   -1.0364   -1.8506   -2.1285 C   0  0  0  0  0  0  0  0  0  0  0  0
   -3.5631   -0.6202   -0.5206 H   0  0  0  0  0  0  0  0  0  0  0  0
   -2.0301   -2.9174   -0.5360 H   0  0  0  0  0  0  0  0  0  0  0  0
   -0.8921   -0.8236   -2.4833 H   0  0  0  0  0  0  0  0  0  0  0  0
   -0.0457   -2.2777   -1.9410 H   0  0  0  0  0  0  0  0  0  0  0  0
   -1.5052   -2.4193   -2.9387 H   0  0  0  0  0  0  0  0  0  0  0  0
   -0.2267   -1.7335    0.8672 N   0  0  0  0  0  0  0  0  0  0  0  0
    0.5363   -1.1590    1.9465 C   0  0  2  0  0  0  0  0  0  0  0  0
   -0.4406   -0.8558    3.0767 C   0  0  0  0  0  0  0  0  0  0  0  0
   -1.2523    0.0664    3.0320 O   0  0  0  0  0  0  0  0  0  0  0  0
    1.2658    0.1105    1.5131 C   0  0  0  0  0  0  0  0  0  0  0  0
    2.4217   -0.0722    0.5213 C   0  0  0  0  0  0  0  0  0  0  0  0
    3.0068   -1.1905    0.6108 O   0  5  0  0  0  0  0  0  0  0  0  0
    2.6621    0.8954   -0.2511 O   0  0  0  0  0  0  0  0  0  0  0  0
   -0.0113   -2.6869    0.5854 H   0  0  0  0  0  0  0  0  0  0  0  0
    1.2428   -1.9285    2.2776 H   0  0  0  0  0  0  0  0  0  0  0  0
    1.6590    0.6305    2.3974 H   0  0  0  0  0  0  0  0  0  0  0  0
    0.5563    0.8002    1.0376 H   0  0  0  0  0  0  0  0  0  0  0  0
   -0.3339   -1.7681    4.1173 N   0  0  0  0  0  0  0  0  0  0  0  0
   -1.1724   -1.7157    5.2922 C   0  0  2  0  0  0  0  0  0  0  0  0
   -0.3693   -2.2569    6.4676 C   0  0  0  0  0  0  0  0  0  0  0  0
    0.5974   -3.0040    6.3323 O   0  0  0  0  0  0  0  0  0  0  0  0
   -2.4519   -2.5136    5.0949 C   0  0  0  0  0  0  0  0  0  0  0  0
    0.3350   -2.5293    4.0473 H   0  0  0  0  0  0  0  0  0  0  0  0
   -1.4085   -0.6601    5.4655 H   0  0  0  0  0  0  0  0  0  0  0  0
   -2.2355   -3.5738    4.9199 H   0  0  0  0  0  0  0  0  0  0  0  0
   -3.0993   -2.4495    5.9757 H   0  0  0  0  0  0  0  0  0  0  0  0
   -3.0136   -2.1421    4.2310 H   0  0  0  0  0  0  0  0  0  0  0  0
   -0.8853   -1.8420    7.6874 N   0  0  0  0  0  0  0  0  0  0  0  0
   -0.3069   -2.2325    8.9519 C   0  0  0  0  0  0  0  0  0  0  0  0
   -1.6783   -1.2075    7.7047 H   0  0  0  0  0  0  0  0  0  0  0  0
   -0.8064   -3.1410    9.3193 H   0  0  0  0  0  0  0  0  0  0  0  0
    0.7663   -2.4330    8.8178 H   0  0  0  0  0  0  0  0  0  0  0  0
   -0.4397   -1.4205    9.6820 H   0  0  0  0  0  0  0  0  0  0  0  0
  1  3  1  0  0  0  0
  1  7  1  0  0  0  0
  1  2  2  0  0  0  0
 30 31  1  0  0  0  0
 31 39  1  0  0  0  0
 31 32  2  0  0  0  0
  8  9  1  0  0  0  0
  9 17  1  0  0  0  0
  9 10  2  0  0  0  0
 18 19  1  0  0  0  0
 19 29  1  0  0  0  0
 19 20  2  0  0  0  0
 21 22  1  0  0  0  0
 22 23  1  0  0  0  0
 22 24  2  0  0  0  0
 30 33  1  0  0  0  0
  8 11  1  0  0  0  0
 39 40  1  0  0  0  0
 18 21  1  0  0  0  0
 29 30  1  0  0  0  0
  7  8  1  0  0  0  0
 17 18  1  0  0  0  0
  3  4  1  0  0  0  0
  3  5  1  0  0  0  0
  3  6  1  0  0  0  0
 33 36  1  0  0  0  0
 33 37  1  0  0  0  0
 33 38  1  0  0  0  0
 11 14  1  0  0  0  0
 11 15  1  0  0  0  0
 11 16  1  0  0  0  0
 40 42  1  0  0  0  0
 40 43  1  0  0  0  0
 40 44  1  0  0  0  0
 21 27  1  0  0  0  0
 21 28  1  0  0  0  0
 30 35  1  0  0  0  0
  8 13  1  0  0  0  0
 18 26  1  0  0  0  0
 39 41  1  0  0  0  0
  7 12  1  0  0  0  0
 29 34  1  0  0  0  0
 17 25  1  0  0  0  0
M  CHG  1  23  -1
M  END
$$$$

  -OEChem-05262214473D

 44 43  0     1  0  0  0  0  0999 V2000
   -4.0256   -1.8030   -2.1581 C   0  0  0  0  0  0  0  0  0  0  0  0
   -3.7513   -2.6782   -2.9709 O   0  0  0  0  0  0  0  0  0  0  0  0
   -5.3491   -1.1169   -2.2339 C   0  0  0  0  0  0  0  0  0  0  0  0
   -5.3223   -0.2211   -2.8750 H   0  0  0  0  0  0  0  0  0  0  0  0
   -6.1322   -1.7605   -2.6658 H   0  0  0  0  0  0  0  0  0  0  0  0
   -5.7568   -0.7715   -1.2704 H   0  0  0  0  0  0  0  0  0  0  0  0
   -3.2124   -1.3578   -1.1289 N   0  0  0  0  0  0  0  0  0  0  0  0
   -1.8971   -1.8843   -0.8752 C   0  0  2  0  0  0  0  0  0  0  0  0
   -1.2676   -1.0599    0.2399 C   0  0  0  0  0  0  0  0  0  0  0  0
   -1.6270    0.0833    0.5138 O   0  0  0  0  0  0  0  0  0  0  0  0
   -1.0364   -1.8506   -2.1285 C   0  0  0  0  0  0  0  0  0  0  0  0
   -3.5631   -0.6202   -0.5206 H   0  0  0  0  0  0  0  0  0  0  0  0
   -2.0301   -2.9174   -0.5360 H   0  0  0  0  0  0  0  0  0  0  0  0
   -0.8921   -0.8236   -2.4833 H   0  0  0  0  0  0  0  0  0  0  0  0
   -0.0457   -2.2777   -1.9410 H   0  0  0  0  0  0  0  0  0  0  0  0
   -1.5052   -2.4193   -2.9387 H   0  0  0  0  0  0  0  0  0  0  0  0
   -0.2267   -1.7335    0.8672 N   0  0  0  0  0  0  0  0  0  0  0  0
    0.5363   -1.1590    1.9465 C   0  0  2  0  0  0  0  0  0  0  0  0
   -0.4406   -0.8558    3.0767 C   0  0  0  0  0  0  0  0  0  0  0  0
   -1.4185   -0.1237    2.9392 O   0  0  0  0  0  0  0  0  0  0  0  0
    1.2658    0.1105    1.5131 C   0  0  0  0  0  0  0  0  0  0  0  0
    2.4217   -0.0722    0.5213 C   0  0  0  0  0  0  0  0  0  0  0  0
    3.0068   -1.1905    0.6108 O   0  5  0  0  0  0  0  0  0  0  0  0
    2.6621    0.8954   -0.2511 O   0  0  0  0  0  0  0  0  0  0  0  0
   -0.0113   -2.6869    0.5854 H   0  0  0  0  0  0  0  0  0  0  0  0
    1.2428   -1.9285    2.2776 H   0  0  0  0  0  0  0  0  0  0  0  0
    1.6590    0.6305    2.3974 H   0  0  0  0  0  0  0  0  0  0  0  0
    0.5563    0.8002    1.0376 H   0  0  0  0  0  0  0  0  0  0  0  0
   -0.1204   -1.5404    4.2408 N   0  0  0  0  0  0  0  0  0  0  0  0
   -0.9108   -1.4462    5.4461 C   0  0  2  0  0  0  0  0  0  0  0  0
    0.0239   -1.6181    6.6361 C   0  0  0  0  0  0  0  0  0  0  0  0
    1.1130   -2.1827    6.5576 O   0  0  0  0  0  0  0  0  0  0  0  0
   -2.0150   -2.4917    5.4667 C   0  0  0  0  0  0  0  0  0  0  0  0
    0.6820   -2.1632    4.2491 H   0  0  0  0  0  0  0  0  0  0  0  0
   -1.3432   -0.4398    5.4629 H   0  0  0  0  0  0  0  0  0  0  0  0
   -1.6010   -3.5065    5.4502 H   0  0  0  0  0  0  0  0  0  0  0  0
   -2.6309   -2.4006    6.3675 H   0  0  0  0  0  0  0  0  0  0  0  0
   -2.6688   -2.3853    4.5943 H   0  0  0  0  0  0  0  0  0  0  0  0
   -0.5201   -1.1052    7.8054 N   0  0  0  0  0  0  0  0  0  0  0  0
    0.1679   -1.1583    9.0742 C   0  0  0  0  0  0  0  0  0  0  0  0
   -1.4211   -0.6372    7.7740 H   0  0  0  0  0  0  0  0  0  0  0  0
   -0.1304   -2.0681    9.6158 H   0  0  0  0  0  0  0  0  0  0  0  0
    1.2542   -1.1739    8.9017 H   0  0  0  0  0  0  0  0  0  0  0  0
   -0.0959   -0.2730    9.6715 H   0  0  0  0  0  0  0  0  0  0  0  0
  1  3  1  0  0  0  0
  1  7  1  0  0  0  0
  1  2  2  0  0  0  0
 30 31  1  0  0  0  0
 31 39  1  0  0  0  0
 31 32  2  0  0  0  0
  8  9  1  0  0  0  0
  9 17  1  0  0  0  0
  9 10  2  0  0  0  0
 18 19  1  0  0  0  0
 19 29  1  0  0  0  0
 19 20  2  0  0  0  0
 21 22  1  0  0  0  0
 22 23  1  0  0  0  0
 22 24  2  0  0  0  0
 30 33  1  0  0  0  0
  8 11  1  0  0  0  0
 39 40  1  0  0  0  0
 18 21  1  0  0  0  0
 29 30  1  0  0  0  0
  7  8  1  0  0  0  0
 17 18  1  0  0  0  0
  3  4  1  0  0  0  0
  3  5  1  0  0  0  0
  3  6  1  0  0  0  0
 33 36  1  0  0  0  0
 33 37  1  0  0  0  0
 33 38  1  0  0  0  0
 11 14  1  0  0  0  0
 11 15  1  0  0  0  0
 11 16  1  0  0  0  0
 40 42  1  0  0  0  0
 40 43  1  0  0  0  0
 40 44  1  0  0  0  0
 21 27  1  0  0  0  0
 21 28  1  0  0  0  0
 30 35  1  0  0  0  0
  8 13  1  0  0  0  0
 18 26  1  0  0  0  0
 39 41  1  0  0  0  0
  7 12  1  0  0  0  0
 29 34  1  0  0  0  0
 17 25  1  0  0  0  0
M  CHG  1  23  -1
M  END
$$$$

  -OEChem-05262214473D

 44 43  0     1  0  0  0  0  0999 V2000
   -4.0256   -1.8030   -2.1581 C   0  0  0  0  0  0  0  0  0  0  0  0
   -3.7513   -2.6782   -2.9709 O   0  0  0  0  0  0  0  0  0  0  0  0
   -5.3491   -1.1169   -2.2339 C   0  0  0  0  0  0  0  0  0  0  0  0
   -5.3223   -0.2211   -2.8750 H   0  0  0  0  0  0  0  0  0  0  0  0
   -6.1322   -1.7605   -2.6658 H   0  0  0  0  0  0  0  0  0  0  0  0
   -5.7568   -0.7715   -1.2704 H   0  0  0  0  0  0  0  0  0  0  0  0
   -3.2124   -1.3578   -1.1289 N   0  0  0  0  0  0  0  0  0  0  0  0
   -1.8971   -1.8843   -0.8752 C   0  0  2  0  0  0  0  0  0  0  0  0
   -1.2676   -1.0599    0.2399 C   0  0  0  0  0  0  0  0  0  0  0  0
   -1.6270    0.0833    0.5138 O   0  0  0  0  0  0  0  0  0  0  0  0
   -1.0364   -1.8506   -2.1285 C   0  0  0  0  0  0  0  0  0  0  0  0
   -3.5631   -0.6202   -0.5206 H   0  0  0  0  0  0  0  0  0  0  0  0
   -2.0301   -2.9174   -0.5360 H   0  0  0  0  0  0  0  0  0  0  0  0
   -0.8921   -0.8236   -2.4833 H   0  0  0  0  0  0  0  0  0  0  0  0
   -0.0457   -2.2777   -1.9410 H   0  0  0  0  0  0  0  0  0  0  0  0
   -1.5052   -2.4193   -2.9387 H   0  0  0  0  0  0  0  0  0  0  0  0
   -0.2267   -1.7335    0.8672 N   0  0  0  0  0  0  0  0  0  0  0  0
    0.5363   -1.1590    1.9465 C   0  0  2  0  0  0  0  0  0  0  0  0
   -0.4406   -0.8558    3.0767 C   0  0  0  0  0  0  0  0  0  0  0  0
   -1.5474   -0.3546    2.8898 O   0  0  0  0  0  0  0  0  0  0  0  0
    1.2658    0.1105    1.5131 C   0  0  0  0  0  0  0  0  0  0  0  0
    2.4217   -0.0722    0.5213 C   0  0  0  0  0  0  0  0  0  0  0  0
    3.0068   -1.1905    0.6108 O   0  5  0  0  0  0  0  0  0  0  0  0
    2.6621    0.8954   -0.2511 O   0  0  0  0  0  0  0  0  0  0  0  0
   -0.0113   -2.6869    0.5854 H   0  0  0  0  0  0  0  0  0  0  0  0
    1.2428   -1.9285    2.2776 H   0  0  0  0  0  0  0  0  0  0  0  0
    1.6590    0.6305    2.3974 H   0  0  0  0  0  0  0  0  0  0  0  0
    0.5563    0.8002    1.0376 H   0  0  0  0  0  0  0  0  0  0  0  0
    0.0486   -1.2590    4.3114 N   0  0  0  0  0  0  0  0  0  0  0  0
   -0.7019   -1.1102    5.5365 C   0  0  2  0  0  0  0  0  0  0  0  0
    0.2897   -0.8978    6.6727 C   0  0  0  0  0  0  0  0  0  0  0  0
    1.4650   -1.2530    6.6125 O   0  0  0  0  0  0  0  0  0  0  0  0
   -1.5780   -2.3250    5.7997 C   0  0  0  0  0  0  0  0  0  0  0  0
    0.9574   -1.7095    4.3654 H   0  0  0  0  0  0  0  0  0  0  0  0
   -1.3225   -0.2150    5.4205 H   0  0  0  0  0  0  0  0  0  0  0  0
   -0.9738   -3.2318    5.9187 H   0  0  0  0  0  0  0  0  0  0  0  0
   -2.1677   -2.1985    6.7136 H   0  0  0  0  0  0  0  0  0  0  0  0
   -2.2704   -2.4938    4.9678 H   0  0  0  0  0  0  0  0  0  0  0  0
   -0.3027   -0.3039    7.7783 N   0  0  0  0  0  0  0  0  0  0  0  0
    0.4266   -0.0093    8.9896 C   0  0  0  0  0  0  0  0  0  0  0  0
   -1.2786   -0.0255    7.7331 H   0  0  0  0  0  0  0  0  0  0  0  0
    0.3320   -0.8527    9.6895 H   0  0  0  0  0  0  0  0  0  0  0  0
    1.4881    0.1498    8.7488 H   0  0  0  0  0  0  0  0  0  0  0  0
    0.0155    0.8995    9.4532 H   0  0  0  0  0  0  0  0  0  0  0  0
  1  3  1  0  0  0  0
  1  7  1  0  0  0  0
  1  2  2  0  0  0  0
 30 31  1  0  0  0  0
 31 39  1  0  0  0  0
 31 32  2  0  0  0  0
  8  9  1  0  0  0  0
  9 17  1  0  0  0  0
  9 10  2  0  0  0  0
 18 19  1  0  0  0  0
 19 29  1  0  0  0  0
 19 20  2  0  0  0  0
 21 22  1  0  0  0  0
 22 23  1  0  0  0  0
 22 24  2  0  0  0  0
 30 33  1  0  0  0  0
  8 11  1  0  0  0  0
 39 40  1  0  0  0  0
 18 21  1  0  0  0  0
 29 30  1  0  0  0  0
  7  8  1  0  0  0  0
 17 18  1  0  0  0  0
  3  4  1  0  0  0  0
  3  5  1  0  0  0  0
  3  6  1  0  0  0  0
 33 36  1  0  0  0  0
 33 37  1  0  0  0  0
 33 38  1  0  0  0  0
 11 14  1  0  0  0  0
 11 15  1  0  0  0  0
 11 16  1  0  0  0  0
 40 42  1  0  0  0  0
 40 43  1  0  0  0  0
 40 44  1  0  0  0  0
 21 27  1  0  0  0  0
 21 28  1  0  0  0  0
 30 35  1  0  0  0  0
  8 13  1  0  0  0  0
 18 26  1  0  0  0  0
 39 41  1  0  0  0  0
  7 12  1  0  0  0  0
 29 34  1  0  0  0  0
 17 25  1  0  0  0  0
M  CHG  1  23  -1
M  END
$$$$

  -OEChem-05262214473D

 44 43  0     1  0  0  0  0  0999 V2000
   -4.0256   -1.8030   -2.1581 C   0  0  0  0  0  0  0  0  0  0  0  0
   -3.7513   -2.6782   -2.9709 O   0  0  0  0  0  0  0  0  0  0  0  0
   -5.3491   -1.1169   -2.2339 C   0  0  0  0  0  0  0  0  0  0  0  0
   -5.3223   -0.2211   -2.8750 H   0  0  0  0  0  0  0  0  0  0  0  0
   -6.1322   -1.7605   -2.6658 H   0  0  0  0  0  0  0  0  0  0  0  0
   -5.7568   -0.7715   -1.2704 H   0  0  0  0  0  0  0  0  0  0  0  0
   -3.2124   -1.3578   -1.1289 N   0  0  0  0  0  0  0  0  0  0  0  0
   -1.8971   -1.8843   -0.8752 C   0  0  2  0  0  0  0  0  0  0  0  0
   -1.2676   -1.0599    0.2399 C   0  0  0  0  0  0  0  0  0  0  0  0
   -1.6270    0.0833    0.5138 O   0  0  0  0  0  0  0  0  0  0  0  0
   -1.0364   -1.8506   -2.1285 C   0  0  0  0  0  0  0  0  0  0  0  0
   -3.5631   -0.6202   -0.5206 H   0  0  0  0  0  0  0  0  0  0  0  0
   -2.0301   -2.9174   -0.5360 H   0  0  0  0  0  0  0  0  0  0  0  0
   -0.8921   -0.8236   -2.4833 H   0  0  0  0  0  0  0  0  0  0  0  0
   -0.0457   -2.2777   -1.9410 H   0  0  0  0  0  0  0  0  0  0  0  0
   -1.5052   -2.4193   -2.9387 H   0  0  0  0  0  0  0  0  0  0  0  0
   -0.2267   -1.7335    0.8672 N   0  0  0  0  0  0  0  0  0  0  0  0
    0.5363   -1.1590    1.9465 C   0  0  2  0  0  0  0  0  0  0  0  0
   -0.4406   -0.8558    3.0767 C   0  0  0  0  0  0  0  0  0  0  0  0
   -1.6302   -0.6105    2.8869 O   0  0  0  0  0  0  0  0  0  0  0  0
    1.2658    0.1105    1.5131 C   0  0  0  0  0  0  0  0  0  0  0  0
    2.4217   -0.0722    0.5213 C   0  0  0  0  0  0  0  0  0  0  0  0
    3.0068   -1.1905    0.6108 O   0  5  0  0  0  0  0  0  0  0  0  0
    2.6621    0.8954   -0.2511 O   0  0  0  0  0  0  0  0  0  0  0  0
   -0.0113   -2.6869    0.5854 H   0  0  0  0  0  0  0  0  0  0  0  0
    1.2428   -1.9285    2.2776 H   0  0  0  0  0  0  0  0  0  0  0  0
    1.6590    0.6305    2.3974 H   0  0  0  0  0  0  0  0  0  0  0  0
    0.5563    0.8002    1.0376 H   0  0  0  0  0  0  0  0  0  0  0  0
    0.1615   -0.9430    4.3242 N   0  0  0  0  0  0  0  0  0  0  0  0
   -0.5600   -0.7305    5.5574 C   0  0  2  0  0  0  0  0  0  0  0  0
    0.4102   -0.1449    6.5749 C   0  0  0  0  0  0  0  0  0  0  0  0
    1.6295   -0.2783    6.4932 O   0  0  0  0  0  0  0  0  0  0  0  0
   -1.1708   -2.0250    6.0712 C   0  0  0  0  0  0  0  0  0  0  0  0
    1.1423   -1.1991    4.3884 H   0  0  0  0  0  0  0  0  0  0  0  0
   -1.3479   -0.0008    5.3411 H   0  0  0  0  0  0  0  0  0  0  0  0
   -0.3965   -2.7684    6.2933 H   0  0  0  0  0  0  0  0  0  0  0  0
   -1.7412   -1.8569    6.9907 H   0  0  0  0  0  0  0  0  0  0  0  0
   -1.8454   -2.4602    5.3261 H   0  0  0  0  0  0  0  0  0  0  0  0
   -0.2479    0.5074    7.6081 N   0  0  0  0  0  0  0  0  0  0  0  0
    0.4517    1.1361    8.7041 C   0  0  0  0  0  0  0  0  0  0  0  0
   -1.2604    0.5859    7.5848 H   0  0  0  0  0  0  0  0  0  0  0  0
    0.5492    0.4222    9.5352 H   0  0  0  0  0  0  0  0  0  0  0  0
    1.4521    1.4480    8.3695 H   0  0  0  0  0  0  0  0  0  0  0  0
   -0.1131    2.0174    9.0422 H   0  0  0  0  0  0  0  0  0  0  0  0
  1  3  1  0  0  0  0
  1  7  1  0  0  0  0
  1  2  2  0  0  0  0
 30 31  1  0  0  0  0
 31 39  1  0  0  0  0
 31 32  2  0  0  0  0
  8  9  1  0  0  0  0
  9 17  1  0  0  0  0
  9 10  2  0  0  0  0
 18 19  1  0  0  0  0
 19 29  1  0  0  0  0
 19 20  2  0  0  0  0
 21 22  1  0  0  0  0
 22 23  1  0  0  0  0
 22 24  2  0  0  0  0
 30 33  1  0  0  0  0
  8 11  1  0  0  0  0
 39 40  1  0  0  0  0
 18 21  1  0  0  0  0
 29 30  1  0  0  0  0
  7  8  1  0  0  0  0
 17 18  1  0  0  0  0
  3  4  1  0  0  0  0
  3  5  1  0  0  0  0
  3  6  1  0  0  0  0
 33 36  1  0  0  0  0
 33 37  1  0  0  0  0
 33 38  1  0  0  0  0
 11 14  1  0  0  0  0
 11 15  1  0  0  0  0
 11 16  1  0  0  0  0
 40 42  1  0  0  0  0
 40 43  1  0  0  0  0
 40 44  1  0  0  0  0
 21 27  1  0  0  0  0
 21 28  1  0  0  0  0
 30 35  1  0  0  0  0
  8 13  1  0  0  0  0
 18 26  1  0  0  0  0
 39 41  1  0  0  0  0
  7 12  1  0  0  0  0
 29 34  1  0  0  0  0
 17 25  1  0  0  0  0
M  CHG  1  23  -1
M  END
$$$$

  -OEChem-05262214473D

 44 43  0     1  0  0  0  0  0999 V2000
   -4.0256   -1.8030   -2.1581 C   0  0  0  0  0  0  0  0  0  0  0  0
   -3.7513   -2.6782   -2.9709 O   0  0  0  0  0  0  0  0  0  0  0  0
   -5.3491   -1.1169   -2.2339 C   0  0  0  0  0  0  0  0  0  0  0  0
   -5.3223   -0.2211   -2.8750 H   0  0  0  0  0  0  0  0  0  0  0  0
   -6.1322   -1.7605   -2.6658 H   0  0  0  0  0  0  0  0  0  0  0  0
   -5.7568   -0.7715   -1.2704 H   0  0  0  0  0  0  0  0  0  0  0  0
   -3.2124   -1.3578   -1.1289 N   0  0  0  0  0  0  0  0  0  0  0  0
   -1.8971   -1.8843   -0.8752 C   0  0  2  0  0  0  0  0  0  0  0  0
   -1.2676   -1.0599    0.2399 C   0  0  0  0  0  0  0  0  0  0  0  0
   -1.6270    0.0833    0.5138 O   0  0  0  0  0  0  0  0  0  0  0  0
   -1.0364   -1.8506   -2.1285 C   0  0  0  0  0  0  0  0  0  0  0  0
   -3.5631   -0.6202   -0.5206 H   0  0  0  0  0  0  0  0  0  0  0  0
   -2.0301   -2.9174   -0.5360 H   0  0  0  0  0  0  0  0  0  0  0  0
   -0.8921   -0.8236   -2.4833 H   0  0  0  0  0  0  0  0  0  0  0  0
   -0.0457   -2.2777   -1.9410 H   0  0  0  0  0  0  0  0  0  0  0  0
   -1.5052   -2.4193   -2.9387 H   0  0  0  0  0  0  0  0  0  0  0  0
   -0.2267   -1.7335    0.8672 N   0  0  0  0  0  0  0  0  0  0  0  0
    0.5363   -1.1590    1.9465 C   0  0  2  0  0  0  0  0  0  0  0  0
   -0.4406   -0.8558    3.0767 C   0  0  0  0  0  0  0  0  0  0  0  0
   -1.6611   -0.8741    2.9309 O   0  0  0  0  0  0  0  0  0  0  0  0
    1.2658    0.1105    1.5131 C   0  0  0  0  0  0  0  0  0  0  0  0
    2.4217   -0.0722    0.5213 C   0  0  0  0  0  0  0  0  0  0  0  0
    3.0068   -1.1905    0.6108 O   0  5  0  0  0  0  0  0  0  0  0  0
    2.6621    0.8954   -0.2511 O   0  0  0  0  0  0  0  0  0  0  0  0
   -0.0113   -2.6869    0.5854 H   0  0  0  0  0  0  0  0  0  0  0  0
    1.2428   -1.9285    2.2776 H   0  0  0  0  0  0  0  0  0  0  0  0
    1.6590    0.6305    2.3974 H   0  0  0  0  0  0  0  0  0  0  0  0
    0.5563    0.8002    1.0376 H   0  0  0  0  0  0  0  0  0  0  0  0
    0.2105   -0.6140    4.2783 N   0  0  0  0  0  0  0  0  0  0  0  0
   -0.4946   -0.3331    5.5072 C   0  0  2  0  0  0  0  0  0  0  0  0
    0.3770    0.5892    6.3493 C   0  0  0  0  0  0  0  0  0  0  0  0
    1.5951    0.6749    6.2078 O   0  0  0  0  0  0  0  0  0  0  0  0
   -0.8210   -1.6119    6.2627 C   0  0  0  0  0  0  0  0  0  0  0  0
    1.2242   -0.6668    4.3163 H   0  0  0  0  0  0  0  0  0  0  0  0
   -1.4175    0.1880    5.2302 H   0  0  0  0  0  0  0  0  0  0  0  0
    0.0914   -2.1478    6.5486 H   0  0  0  0  0  0  0  0  0  0  0  0
   -1.3805   -1.3992    7.1796 H   0  0  0  0  0  0  0  0  0  0  0  0
   -1.4230   -2.2868    5.6447 H   0  0  0  0  0  0  0  0  0  0  0  0
   -0.3594    1.2733    7.3062 N   0  0  0  0  0  0  0  0  0  0  0  0
    0.2415    2.2000    8.2370 C   0  0  0  0  0  0  0  0  0  0  0  0
   -1.3678    1.1553    7.3393 H   0  0  0  0  0  0  0  0  0  0  0  0
    0.5064    1.6697    9.1636 H   0  0  0  0  0  0  0  0  0  0  0  0
    1.1488    2.6321    7.7897 H   0  0  0  0  0  0  0  0  0  0  0  0
   -0.4730    3.0042    8.4664 H   0  0  0  0  0  0  0  0  0  0  0  0
  1  3  1  0  0  0  0
  1  7  1  0  0  0  0
  1  2  2  0  0  0  0
 30 31  1  0  0  0  0
 31 39  1  0  0  0  0
 31 32  2  0  0  0  0
  8  9  1  0  0  0  0
  9 17  1  0  0  0  0
  9 10  2  0  0  0  0
 18 19  1  0  0  0  0
 19 29  1  0  0  0  0
 19 20  2  0  0  0  0
 21 22  1  0  0  0  0
 22 23  1  0  0  0  0
 22 24  2  0  0  0  0
 30 33  1  0  0  0  0
  8 11  1  0  0  0  0
 39 40  1  0  0  0  0
 18 21  1  0  0  0  0
 29 30  1  0  0  0  0
  7  8  1  0  0  0  0
 17 18  1  0  0  0  0
  3  4  1  0  0  0  0
  3  5  1  0  0  0  0
  3  6  1  0  0  0  0
 33 36  1  0  0  0  0
 33 37  1  0  0  0  0
 33 38  1  0  0  0  0
 11 14  1  0  0  0  0
 11 15  1  0  0  0  0
 11 16  1  0  0  0  0
 40 42  1  0  0  0  0
 40 43  1  0  0  0  0
 40 44  1  0  0  0  0
 21 27  1  0  0  0  0
 21 28  1  0  0  0  0
 30 35  1  0  0  0  0
  8 13  1  0  0  0  0
 18 26  1  0  0  0  0
 39 41  1  0  0  0  0
  7 12  1  0  0  0  0
 29 34  1  0  0  0  0
 17 25  1  0  0  0  0
M  CHG  1  23  -1
M  END
$$$$

  -OEChem-05262214473D

 44 43  0     1  0  0  0  0  0999 V2000
   -4.0256   -1.8030   -2.1581 C   0  0  0  0  0  0  0  0  0  0  0  0
   -3.7513   -2.6782   -2.9709 O   0  0  0  0  0  0  0  0  0  0  0  0
   -5.3491   -1.1169   -2.2339 C   0  0  0  0  0  0  0  0  0  0  0  0
   -5.3223   -0.2211   -2.8750 H   0  0  0  0  0  0  0  0  0  0  0  0
   -6.1322   -1.7605   -2.6658 H   0  0  0  0  0  0  0  0  0  0  0  0
   -5.7568   -0.7715   -1.2704 H   0  0  0  0  0  0  0  0  0  0  0  0
   -3.2124   -1.3578   -1.1289 N   0  0  0  0  0  0  0  0  0  0  0  0
   -1.8971   -1.8843   -0.8752 C   0  0  2  0  0  0  0  0  0  0  0  0
   -1.2676   -1.0599    0.2399 C   0  0  0  0  0  0  0  0  0  0  0  0
   -1.6270    0.0833    0.5138 O   0  0  0  0  0  0  0  0  0  0  0  0
   -1.0364   -1.8506   -2.1285 C   0  0  0  0  0  0  0  0  0  0  0  0
   -3.5631   -0.6202   -0.5206 H   0  0  0  0  0  0  0  0  0  0  0  0
   -2.0301   -2.9174   -0.5360 H   0  0  0  0  0  0  0  0  0  0  0  0
   -0.8921   -0.8236   -2.4833 H   0  0  0  0  0  0  0  0  0  0  0  0
   -0.0457   -2.2777   -1.9410 H   0  0  0  0  0  0  0  0  0  0  0  0
   -1.5052   -2.4193   -2.9387 H   0  0  0  0  0  0  0  0  0  0  0  0
   -0.2267   -1.7335    0.8672 N   0  0  0  0  0  0  0  0  0  0  0  0
    0.5363   -1.1590    1.9465 C   0  0  2  0  0  0  0  0  0  0  0  0
   -0.3414   -1.2043    3.1920 C   0  0  0  0  0  0  0  0  0  0  0  0
   -1.4657   -1.7013    3.2022 O   0  0  0  0  0  0  0  0  0  0  0  0
    0.9604    0.2757    1.6411 C   0  0  0  0  0  0  0  0  0  0  0  0
    2.0064    0.4564    0.5336 C   0  0  0  0  0  0  0  0  0  0  0  0
    2.7963   -0.5236    0.4046 O   0  5  0  0  0  0  0  0  0  0  0  0
    1.9701    1.5426   -0.1065 O   0  0  0  0  0  0  0  0  0  0  0  0
   -0.0113   -2.6869    0.5854 H   0  0  0  0  0  0  0  0  0  0  0  0
    1.4077   -1.8064    2.0961 H   0  0  0  0  0  0  0  0  0  0  0  0
    1.3501    0.7477    2.5534 H   0  0  0  0  0  0  0  0  0  0  0  0
    0.0841    0.8634    1.3377 H   0  0  0  0  0  0  0  0  0  0  0  0
    0.2997   -0.6713    4.3016 N   0  0  0  0  0  0  0  0  0  0  0  0
   -0.3095   -0.6269    5.6105 C   0  0  2  0  0  0  0  0  0  0  0  0
    0.2248    0.6007    6.3365 C   0  0  0  0  0  0  0  0  0  0  0  0
    1.2868    1.1450    6.0417 O   0  0  0  0  0  0  0  0  0  0  0  0
   -0.0192   -1.8942    6.3994 C   0  0  0  0  0  0  0  0  0  0  0  0
    1.2503   -0.3250    4.2106 H   0  0  0  0  0  0  0  0  0  0  0  0
   -1.3883   -0.5184    5.4537 H   0  0  0  0  0  0  0  0  0  0  0  0
    1.0568   -2.0199    6.5663 H   0  0  0  0  0  0  0  0  0  0  0  0
   -0.5054   -1.8712    7.3802 H   0  0  0  0  0  0  0  0  0  0  0  0
   -0.3776   -2.7786    5.8617 H   0  0  0  0  0  0  0  0  0  0  0  0
   -0.6025    0.9910    7.3803 N   0  0  0  0  0  0  0  0  0  0  0  0
   -0.3067    2.1218    8.2286 C   0  0  0  0  0  0  0  0  0  0  0  0
   -1.4731    0.4930    7.5408 H   0  0  0  0  0  0  0  0  0  0  0  0
    0.2512    1.7811    9.1133 H   0  0  0  0  0  0  0  0  0  0  0  0
    0.3003    2.8498    7.6705 H   0  0  0  0  0  0  0  0  0  0  0  0
   -1.2463    2.5961    8.5481 H   0  0  0  0  0  0  0  0  0  0  0  0
  1  3  1  0  0  0  0
  1  7  1  0  0  0  0
  1  2  2  0  0  0  0
 30 31  1  0  0  0  0
 31 39  1  0  0  0  0
 31 32  2  0  0  0  0
  8  9  1  0  0  0  0
  9 17  1  0  0  0  0
  9 10  2  0  0  0  0
 18 19  1  0  0  0  0
 19 29  1  0  0  0  0
 19 20  2  0  0  0  0
 21 22  1  0  0  0  0
 22 23  1  0  0  0  0
 22 24  2  0  0  0  0
 30 33  1  0  0  0  0
  8 11  1  0  0  0  0
 39 40  1  0  0  0  0
 18 21  1  0  0  0  0
 29 30  1  0  0  0  0
  7  8  1  0  0  0  0
 17 18  1  0  0  0  0
  3  4  1  0  0  0  0
  3  5  1  0  0  0  0
  3  6  1  0  0  0  0
 33 36  1  0  0  0  0
 33 37  1  0  0  0  0
 33 38  1  0  0  0  0
 11 14  1  0  0  0  0
 11 15  1  0  0  0  0
 11 16  1  0  0  0  0
 40 42  1  0  0  0  0
 40 43  1  0  0  0  0
 40 44  1  0  0  0  0
 21 27  1  0  0  0  0
 21 28  1  0  0  0  0
 30 35  1  0  0  0  0
  8 13  1  0  0  0  0
 18 26  1  0  0  0  0
 39 41  1  0  0  0  0
  7 12  1  0  0  0  0
 29 34  1  0  0  0  0
 17 25  1  0  0  0  0
M  CHG  1  23  -1
M  END
$$$$

  -OEChem-05262214473D

 44 43  0     1  0  0  0  0  0999 V2000
   -4.0256   -1.8030   -2.1581 C   0  0  0  0  0  0  0  0  0  0  0  0
   -3.7513   -2.6782   -2.9709 O   0  0  0  0  0  0  0  0  0  0  0  0
   -5.3491   -1.1169   -2.2339 C   0  0  0  0  0  0  0  0  0  0  0  0
   -5.3223   -0.2211   -2.8750 H   0  0  0  0  0  0  0  0  0  0  0  0
   -6.1322   -1.7605   -2.6658 H   0  0  0  0  0  0  0  0  0  0  0  0
   -5.7568   -0.7715   -1.2704 H   0  0  0  0  0  0  0  0  0  0  0  0
   -3.2124   -1.3578   -1.1289 N   0  0  0  0  0  0  0  0  0  0  0  0
   -1.8971   -1.8843   -0.8752 C   0  0  2  0  0  0  0  0  0  0  0  0
   -1.2676   -1.0599    0.2399 C   0  0  0  0  0  0  0  0  0  0  0  0
   -1.6270    0.0833    0.5138 O   0  0  0  0  0  0  0  0  0  0  0  0
   -1.0364   -1.8506   -2.1285 C   0  0  0  0  0  0  0  0  0  0  0  0
   -3.5631   -0.6202   -0.5206 H   0  0  0  0  0  0  0  0  0  0  0  0
   -2.0301   -2.9174   -0.5360 H   0  0  0  0  0  0  0  0  0  0  0  0
   -0.8921   -0.8236   -2.4833 H   0  0  0  0  0  0  0  0  0  0  0  0
   -0.0457   -2.2777   -1.9410 H   0  0  0  0  0  0  0  0  0  0  0  0
   -1.5052   -2.4193   -2.9387 H   0  0  0  0  0  0  0  0  0  0  0  0
   -0.2267   -1.7335    0.8672 N   0  0  0  0  0  0  0  0  0  0  0  0
    0.5363   -1.1590    1.9465 C   0  0  2  0  0  0  0  0  0  0  0  0
   -0.3414   -1.2043    3.1920 C   0  0  0  0  0  0  0  0  0  0  0  0
   -1.3355   -1.9213    3.2860 O   0  0  0  0  0  0  0  0  0  0  0  0
    0.9604    0.2757    1.6411 C   0  0  0  0  0  0  0  0  0  0  0  0
    2.0064    0.4564    0.5336 C   0  0  0  0  0  0  0  0  0  0  0  0
    2.7963   -0.5236    0.4046 O   0  5  0  0  0  0  0  0  0  0  0  0
    1.9701    1.5426   -0.1065 O   0  0  0  0  0  0  0  0  0  0  0  0
   -0.0113   -2.6869    0.5854 H   0  0  0  0  0  0  0  0  0  0  0  0
    1.4077   -1.8064    2.0961 H   0  0  0  0  0  0  0  0  0  0  0  0
    1.3501    0.7477    2.5534 H   0  0  0  0  0  0  0  0  0  0  0  0
    0.0841    0.8634    1.3377 H   0  0  0  0  0  0  0  0  0  0  0  0
    0.1464   -0.3891    4.2039 N   0  0  0  0  0  0  0  0  0  0  0  0
   -0.4894   -0.2814    5.4963 C   0  0  2  0  0  0  0  0  0  0  0  0
   -0.2433    1.1253    6.0257 C   0  0  0  0  0  0  0  0  0  0  0  0
    0.6867    1.8326    5.6438 O   0  0  0  0  0  0  0  0  0  0  0  0
    0.0430   -1.3271    6.4637 C   0  0  0  0  0  0  0  0  0  0  0  0
    1.0045    0.1335    4.0540 H   0  0  0  0  0  0  0  0  0  0  0  0
   -1.5627   -0.4286    5.3341 H   0  0  0  0  0  0  0  0  0  0  0  0
    1.1170   -1.1956    6.6387 H   0  0  0  0  0  0  0  0  0  0  0  0
   -0.4603   -1.2626    7.4341 H   0  0  0  0  0  0  0  0  0  0  0  0
   -0.1081   -2.3371    6.0677 H   0  0  0  0  0  0  0  0  0  0  0  0
   -1.1588    1.4815    7.0061 N   0  0  0  0  0  0  0  0  0  0  0  0
   -1.1283    2.7623    7.6729 C   0  0  0  0  0  0  0  0  0  0  0  0
   -1.9084    0.8396    7.2467 H   0  0  0  0  0  0  0  0  0  0  0  0
   -0.5323    2.6826    8.5940 H   0  0  0  0  0  0  0  0  0  0  0  0
   -0.6755    3.5116    7.0070 H   0  0  0  0  0  0  0  0  0  0  0  0
   -2.1542    3.0685    7.9255 H   0  0  0  0  0  0  0  0  0  0  0  0
  1  3  1  0  0  0  0
  1  7  1  0  0  0  0
  1  2  2  0  0  0  0
 30 31  1  0  0  0  0
 31 39  1  0  0  0  0
 31 32  2  0  0  0  0
  8  9  1  0  0  0  0
  9 17  1  0  0  0  0
  9 10  2  0  0  0  0
 18 19  1  0  0  0  0
 19 29  1  0  0  0  0
 19 20  2  0  0  0  0
 21 22  1  0  0  0  0
 22 23  1  0  0  0  0
 22 24  2  0  0  0  0
 30 33  1  0  0  0  0
  8 11  1  0  0  0  0
 39 40  1  0  0  0  0
 18 21  1  0  0  0  0
 29 30  1  0  0  0  0
  7  8  1  0  0  0  0
 17 18  1  0  0  0  0
  3  4  1  0  0  0  0
  3  5  1  0  0  0  0
  3  6  1  0  0  0  0
 33 36  1  0  0  0  0
 33 37  1  0  0  0  0
 33 38  1  0  0  0  0
 11 14  1  0  0  0  0
 11 15  1  0  0  0  0
 11 16  1  0  0  0  0
 40 42  1  0  0  0  0
 40 43  1  0  0  0  0
 40 44  1  0  0  0  0
 21 27  1  0  0  0  0
 21 28  1  0  0  0  0
 30 35  1  0  0  0  0
  8 13  1  0  0  0  0
 18 26  1  0  0  0  0
 39 41  1  0  0  0  0
  7 12  1  0  0  0  0
 29 34  1  0  0  0  0
 17 25  1  0  0  0  0
M  CHG  1  23  -1
M  END
$$$$

  -OEChem-05262214473D

 44 43  0     1  0  0  0  0  0999 V2000
   -4.0256   -1.8030   -2.1581 C   0  0  0  0  0  0  0  0  0  0  0  0
   -3.7513   -2.6782   -2.9709 O   0  0  0  0  0  0  0  0  0  0  0  0
   -5.3491   -1.1169   -2.2339 C   0  0  0  0  0  0  0  0  0  0  0  0
   -5.3223   -0.2211   -2.8750 H   0  0  0  0  0  0  0  0  0  0  0  0
   -6.1322   -1.7605   -2.6658 H   0  0  0  0  0  0  0  0  0  0  0  0
   -5.7568   -0.7715   -1.2704 H   0  0  0  0  0  0  0  0  0  0  0  0
   -3.2124   -1.3578   -1.1289 N   0  0  0  0  0  0  0  0  0  0  0  0
   -1.8971   -1.8843   -0.8752 C   0  0  2  0  0  0  0  0  0  0  0  0
   -1.2676   -1.0599    0.2399 C   0  0  0  0  0  0  0  0  0  0  0  0
   -1.6270    0.0833    0.5138 O   0  0  0  0  0  0  0  0  0  0  0  0
   -1.0364   -1.8506   -2.1285 C   0  0  0  0  0  0  0  0  0  0  0  0
   -3.5631   -0.6202   -0.5206 H   0  0  0  0  0  0  0  0  0  0  0  0
   -2.0301   -2.9174   -0.5360 H   0  0  0  0  0  0  0  0  0  0  0  0
   -0.8921   -0.8236   -2.4833 H   0  0  0  0  0  0  0  0  0  0  0  0
   -0.0457   -2.2777   -1.9410 H   0  0  0  0  0  0  0  0  0  0  0  0
   -1.5052   -2.4193   -2.9387 H   0  0  0  0  0  0  0  0  0  0  0  0
   -0.2267   -1.7335    0.8672 N   0  0  0  0  0  0  0  0  0  0  0  0
    0.5363   -1.1590    1.9465 C   0  0  2  0  0  0  0  0  0  0  0  0
   -0.3414   -1.2043    3.1920 C   0  0  0  0  0  0  0  0  0  0  0  0
   -1.1638   -2.0938    3.4006 O   0  0  0  0  0  0  0  0  0  0  0  0
    0.9604    0.2757    1.6411 C   0  0  0  0  0  0  0  0  0  0  0  0
    2.0064    0.4564    0.5336 C   0  0  0  0  0  0  0  0  0  0  0  0
    2.7963   -0.5236    0.4046 O   0  5  0  0  0  0  0  0  0  0  0  0
    1.9701    1.5426   -0.1065 O   0  0  0  0  0  0  0  0  0  0  0  0
   -0.0113   -2.6869    0.5854 H   0  0  0  0  0  0  0  0  0  0  0  0
    1.4077   -1.8064    2.0961 H   0  0  0  0  0  0  0  0  0  0  0  0
    1.3501    0.7477    2.5534 H   0  0  0  0  0  0  0  0  0  0  0  0
    0.0841    0.8634    1.3377 H   0  0  0  0  0  0  0  0  0  0  0  0
   -0.0606   -0.1634    4.0662 N   0  0  0  0  0  0  0  0  0  0  0  0
   -0.7353   -0.0027    5.3332 C   0  0  2  0  0  0  0  0  0  0  0  0
   -0.8040    1.4867    5.6438 C   0  0  0  0  0  0  0  0  0  0  0  0
   -0.0353    2.3106    5.1524 O   0  0  0  0  0  0  0  0  0  0  0  0
   -0.0175   -0.7566    6.4419 C   0  0  0  0  0  0  0  0  0  0  0  0
    0.6712    0.5011    3.8326 H   0  0  0  0  0  0  0  0  0  0  0  0
   -1.7493   -0.3966    5.2038 H   0  0  0  0  0  0  0  0  0  0  0  0
    1.0002   -0.3759    6.5862 H   0  0  0  0  0  0  0  0  0  0  0  0
   -0.5459   -0.6572    7.3958 H   0  0  0  0  0  0  0  0  0  0  0  0
    0.0573   -1.8229    6.2029 H   0  0  0  0  0  0  0  0  0  0  0  0
   -1.7971    1.7819    6.5673 N   0  0  0  0  0  0  0  0  0  0  0  0
   -2.0532    3.1244    7.0344 C   0  0  0  0  0  0  0  0  0  0  0  0
   -2.3999    1.0386    6.9076 H   0  0  0  0  0  0  0  0  0  0  0  0
   -1.4757    3.3103    7.9520 H   0  0  0  0  0  0  0  0  0  0  0  0
   -1.7529    3.8455    6.2599 H   0  0  0  0  0  0  0  0  0  0  0  0
   -3.1262    3.2401    7.2468 H   0  0  0  0  0  0  0  0  0  0  0  0
  1  3  1  0  0  0  0
  1  7  1  0  0  0  0
  1  2  2  0  0  0  0
 30 31  1  0  0  0  0
 31 39  1  0  0  0  0
 31 32  2  0  0  0  0
  8  9  1  0  0  0  0
  9 17  1  0  0  0  0
  9 10  2  0  0  0  0
 18 19  1  0  0  0  0
 19 29  1  0  0  0  0
 19 20  2  0  0  0  0
 21 22  1  0  0  0  0
 22 23  1  0  0  0  0
 22 24  2  0  0  0  0
 30 33  1  0  0  0  0
  8 11  1  0  0  0  0
 39 40  1  0  0  0  0
 18 21  1  0  0  0  0
 29 30  1  0  0  0  0
  7  8  1  0  0  0  0
 17 18  1  0  0  0  0
  3  4  1  0  0  0  0
  3  5  1  0  0  0  0
  3  6  1  0  0  0  0
 33 36  1  0  0  0  0
 33 37  1  0  0  0  0
 33 38  1  0  0  0  0
 11 14  1  0  0  0  0
 11 15  1  0  0  0  0
 11 16  1  0  0  0  0
 40 42  1  0  0  0  0
 40 43  1  0  0  0  0
 40 44  1  0  0  0  0
 21 27  1  0  0  0  0
 21 28  1  0  0  0  0
 30 35  1  0  0  0  0
  8 13  1  0  0  0  0
 18 26  1  0  0  0  0
 39 41  1  0  0  0  0
  7 12  1  0  0  0  0
 29 34  1  0  0  0  0
 17 25  1  0  0  0  0
M  CHG  1  23  -1
M  END
$$$$

  -OEChem-05262214473D

 44 43  0     1  0  0  0  0  0999 V2000
   -4.0256   -1.8030   -2.1581 C   0  0  0  0  0  0  0  0  0  0  0  0
   -3.7513   -2.6782   -2.9709 O   0  0  0  0  0  0  0  0  0  0  0  0
   -5.3491   -1.1169   -2.2339 C   0  0  0  0  0  0  0  0  0  0  0  0
   -5.3223   -0.2211   -2.8750 H   0  0  0  0  0  0  0  0  0  0  0  0
   -6.1322   -1.7605   -2.6658 H   0  0  0  0  0  0  0  0  0  0  0  0
   -5.7568   -0.7715   -1.2704 H   0  0  0  0  0  0  0  0  0  0  0  0
   -3.2124   -1.3578   -1.1289 N   0  0  0  0  0  0  0  0  0  0  0  0
   -1.8971   -1.8843   -0.8752 C   0  0  2  0  0  0  0  0  0  0  0  0
   -1.2676   -1.0599    0.2399 C   0  0  0  0  0  0  0  0  0  0  0  0
   -1.6270    0.0833    0.5138 O   0  0  0  0  0  0  0  0  0  0  0  0
   -1.0364   -1.8506   -2.1285 C   0  0  0  0  0  0  0  0  0  0  0  0
   -3.5631   -0.6202   -0.5206 H   0  0  0  0  0  0  0  0  0  0  0  0
   -2.0301   -2.9174   -0.5360 H   0  0  0  0  0  0  0  0  0  0  0  0
   -0.8921   -0.8236   -2.4833 H   0  0  0  0  0  0  0  0  0  0  0  0
   -0.0457   -2.2777   -1.9410 H   0  0  0  0  0  0  0  0  0  0  0  0
   -1.5052   -2.4193   -2.9387 H   0  0  0  0  0  0  0  0  0  0  0  0
   -0.2267   -1.7335    0.8672 N   0  0  0  0  0  0  0  0  0  0  0  0
    0.5363   -1.1590    1.9465 C   0  0  2  0  0  0  0  0  0  0  0  0
   -0.3414   -1.2043    3.1920 C   0  0  0  0  0  0  0  0  0  0  0  0
   -0.9625   -2.2070    3.5384 O   0  0  0  0  0  0  0  0  0  0  0  0
    0.9604    0.2757    1.6411 C   0  0  0  0  0  0  0  0  0  0  0  0
    2.0064    0.4564    0.5336 C   0  0  0  0  0  0  0  0  0  0  0  0
    2.7963   -0.5236    0.4046 O   0  5  0  0  0  0  0  0  0  0  0  0
    1.9701    1.5426   -0.1065 O   0  0  0  0  0  0  0  0  0  0  0  0
   -0.0113   -2.6869    0.5854 H   0  0  0  0  0  0  0  0  0  0  0  0
    1.4077   -1.8064    2.0961 H   0  0  0  0  0  0  0  0  0  0  0  0
    1.3501    0.7477    2.5534 H   0  0  0  0  0  0  0  0  0  0  0  0
    0.0841    0.8634    1.3377 H   0  0  0  0  0  0  0  0  0  0  0  0
   -0.3072   -0.0098    3.8980 N   0  0  0  0  0  0  0  0  0  0  0  0
   -1.0305    0.1902    5.1322 C   0  0  2  0  0  0  0  0  0  0  0  0
   -1.4191    1.6603    5.2167 C   0  0  0  0  0  0  0  0  0  0  0  0
   -0.8300    2.5463    4.6010 O   0  0  0  0  0  0  0  0  0  0  0  0
   -0.1963   -0.2215    6.3353 C   0  0  0  0  0  0  0  0  0  0  0  0
    0.2733    0.7527    3.5613 H   0  0  0  0  0  0  0  0  0  0  0  0
   -1.9352   -0.4245    5.0717 H   0  0  0  0  0  0  0  0  0  0  0  0
    0.7145    0.3834    6.4124 H   0  0  0  0  0  0  0  0  0  0  0  0
   -0.7563   -0.0962    7.2679 H   0  0  0  0  0  0  0  0  0  0  0  0
    0.1073   -1.2711    6.2582 H   0  0  0  0  0  0  0  0  0  0  0  0
   -2.4737    1.8718    6.0938 N   0  0  0  0  0  0  0  0  0  0  0  0
   -3.0182    3.1834    6.3565 C   0  0  0  0  0  0  0  0  0  0  0  0
   -2.9141    1.0763    6.5466 H   0  0  0  0  0  0  0  0  0  0  0  0
   -2.5149    3.6215    7.2311 H   0  0  0  0  0  0  0  0  0  0  0  0
   -2.8584    3.8289    5.4803 H   0  0  0  0  0  0  0  0  0  0  0  0
   -4.0963    3.0991    6.5582 H   0  0  0  0  0  0  0  0  0  0  0  0
  1  3  1  0  0  0  0
  1  7  1  0  0  0  0
  1  2  2  0  0  0  0
 30 31  1  0  0  0  0
 31 39  1  0  0  0  0
 31 32  2  0  0  0  0
  8  9  1  0  0  0  0
  9 17  1  0  0  0  0
  9 10  2  0  0  0  0
 18 19  1  0  0  0  0
 19 29  1  0  0  0  0
 19 20  2  0  0  0  0
 21 22  1  0  0  0  0
 22 23  1  0  0  0  0
 22 24  2  0  0  0  0
 30 33  1  0  0  0  0
  8 11  1  0  0  0  0
 39 40  1  0  0  0  0
 18 21  1  0  0  0  0
 29 30  1  0  0  0  0
  7  8  1  0  0  0  0
 17 18  1  0  0  0  0
  3  4  1  0  0  0  0
  3  5  1  0  0  0  0
  3  6  1  0  0  0  0
 33 36  1  0  0  0  0
 33 37  1  0  0  0  0
 33 38  1  0  0  0  0
 11 14  1  0  0  0  0
 11 15  1  0  0  0  0
 11 16  1  0  0  0  0
 40 42  1  0  0  0  0
 40 43  1  0  0  0  0
 40 44  1  0  0  0  0
 21 27  1  0  0  0  0
 21 28  1  0  0  0  0
 30 35  1  0  0  0  0
  8 13  1  0  0  0  0
 18 26  1  0  0  0  0
 39 41  1  0  0  0  0
  7 12  1  0  0  0  0
 29 34  1  0  0  0  0
 17 25  1  0  0  0  0
M  CHG  1  23  -1
M  END
$$$$

  -OEChem-05262214473D

 44 43  0     1  0  0  0  0  0999 V2000
   -4.0256   -1.8030   -2.1581 C   0  0  0  0  0  0  0  0  0  0  0  0
   -3.7513   -2.6782   -2.9709 O   0  0  0  0  0  0  0  0  0  0  0  0
   -5.3491   -1.1169   -2.2339 C   0  0  0  0  0  0  0  0  0  0  0  0
   -5.3223   -0.2211   -2.8750 H   0  0  0  0  0  0  0  0  0  0  0  0
   -6.1322   -1.7605   -2.6658 H   0  0  0  0  0  0  0  0  0  0  0  0
   -5.7568   -0.7715   -1.2704 H   0  0  0  0  0  0  0  0  0  0  0  0
   -3.2124   -1.3578   -1.1289 N   0  0  0  0  0  0  0  0  0  0  0  0
   -1.8971   -1.8843   -0.8752 C   0  0  2  0  0  0  0  0  0  0  0  0
   -1.2676   -1.0599    0.2399 C   0  0  0  0  0  0  0  0  0  0  0  0
   -1.6270    0.0833    0.5138 O   0  0  0  0  0  0  0  0  0  0  0  0
   -1.0364   -1.8506   -2.1285 C   0  0  0  0  0  0  0  0  0  0  0  0
   -3.5631   -0.6202   -0.5206 H   0  0  0  0  0  0  0  0  0  0  0  0
   -2.0301   -2.9174   -0.5360 H   0  0  0  0  0  0  0  0  0  0  0  0
   -0.8921   -0.8236   -2.4833 H   0  0  0  0  0  0  0  0  0  0  0  0
   -0.0457   -2.2777   -1.9410 H   0  0  0  0  0  0  0  0  0  0  0  0
   -1.5052   -2.4193   -2.9387 H   0  0  0  0  0  0  0  0  0  0  0  0
   -0.2267   -1.7335    0.8672 N   0  0  0  0  0  0  0  0  0  0  0  0
    0.5363   -1.1590    1.9465 C   0  0  2  0  0  0  0  0  0  0  0  0
   -0.3414   -1.2043    3.1920 C   0  0  0  0  0  0  0  0  0  0  0  0
   -0.7451   -2.2532    3.6900 O   0  0  0  0  0  0  0  0  0  0  0  0
    0.9604    0.2757    1.6411 C   0  0  0  0  0  0  0  0  0  0  0  0
    2.0064    0.4564    0.5336 C   0  0  0  0  0  0  0  0  0  0  0  0
    2.7963   -0.5236    0.4046 O   0  5  0  0  0  0  0  0  0  0  0  0
    1.9701    1.5426   -0.1065 O   0  0  0  0  0  0  0  0  0  0  0  0
   -0.0113   -2.6869    0.5854 H   0  0  0  0  0  0  0  0  0  0  0  0
    1.4077   -1.8064    2.0961 H   0  0  0  0  0  0  0  0  0  0  0  0
    1.3501    0.7477    2.5534 H   0  0  0  0  0  0  0  0  0  0  0  0
    0.0841    0.8634    1.3377 H   0  0  0  0  0  0  0  0  0  0  0  0
   -0.5767    0.0614    3.7107 N   0  0  0  0  0  0  0  0  0  0  0  0
   -1.3549    0.2841    4.9070 C   0  0  2  0  0  0  0  0  0  0  0  0
   -2.0467    1.6343    4.7735 C   0  0  0  0  0  0  0  0  0  0  0  0
   -1.6433    2.5238    4.0271 O   0  0  0  0  0  0  0  0  0  0  0  0
   -0.4814    0.2416    6.1512 C   0  0  0  0  0  0  0  0  0  0  0  0
   -0.1622    0.8712    3.2588 H   0  0  0  0  0  0  0  0  0  0  0  0
   -2.1079   -0.5105    4.9469 H   0  0  0  0  0  0  0  0  0  0  0  0
    0.2792    1.0305    6.1292 H   0  0  0  0  0  0  0  0  0  0  0  0
   -1.0771    0.3821    7.0592 H   0  0  0  0  0  0  0  0  0  0  0  0
    0.0385   -0.7193    6.2297 H   0  0  0  0  0  0  0  0  0  0  0  0
   -3.1427    1.7449    5.6178 N   0  0  0  0  0  0  0  0  0  0  0  0
   -3.9576    2.9354    5.6856 C   0  0  0  0  0  0  0  0  0  0  0  0
   -3.4160    0.9502    6.1884 H   0  0  0  0  0  0  0  0  0  0  0  0
   -3.5789    3.5948    6.4804 H   0  0  0  0  0  0  0  0  0  0  0  0
   -3.9168    3.4629    4.7212 H   0  0  0  0  0  0  0  0  0  0  0  0
   -4.9981    2.6552    5.9066 H   0  0  0  0  0  0  0  0  0  0  0  0
  1  3  1  0  0  0  0
  1  7  1  0  0  0  0
  1  2  2  0  0  0  0
 30 31  1  0  0  0  0
 31 39  1  0  0  0  0
 31 32  2  0  0  0  0
  8  9  1  0  0  0  0
  9 17  1  0  0  0  0
  9 10  2  0  0  0  0
 18 19  1  0  0  0  0
 19 29  1  0  0  0  0
 19 20  2  0  0  0  0
 21 22  1  0  0  0  0
 22 23  1  0  0  0  0
 22 24  2  0  0  0  0
 30 33  1  0  0  0  0
  8 11  1  0  0  0  0
 39 40  1  0  0  0  0
 18 21  1  0  0  0  0
 29 30  1  0  0  0  0
  7  8  1  0  0  0  0
 17 18  1  0  0  0  0
  3  4  1  0  0  0  0
  3  5  1  0  0  0  0
  3  6  1  0  0  0  0
 33 36  1  0  0  0  0
 33 37  1  0  0  0  0
 33 38  1  0  0  0  0
 11 14  1  0  0  0  0
 11 15  1  0  0  0  0
 11 16  1  0  0  0  0
 40 42  1  0  0  0  0
 40 43  1  0  0  0  0
 40 44  1  0  0  0  0
 21 27  1  0  0  0  0
 21 28  1  0  0  0  0
 30 35  1  0  0  0  0
  8 13  1  0  0  0  0
 18 26  1  0  0  0  0
 39 41  1  0  0  0  0
  7 12  1  0  0  0  0
 29 34  1  0  0  0  0
 17 25  1  0  0  0  0
M  CHG  1  23  -1
M  END
$$$$

  -OEChem-05262214473D

 44 43  0     1  0  0  0  0  0999 V2000
   -4.0256   -1.8030   -2.1581 C   0  0  0  0  0  0  0  0  0  0  0  0
   -3.7513   -2.6782   -2.9709 O   0  0  0  0  0  0  0  0  0  0  0  0
   -5.3491   -1.1169   -2.2339 C   0  0  0  0  0  0  0  0  0  0  0  0
   -5.3223   -0.2211   -2.8750 H   0  0  0  0  0  0  0  0  0  0  0  0
   -6.1322   -1.7605   -2.6658 H   0  0  0  0  0  0  0  0  0  0  0  0
   -5.7568   -0.7715   -1.2704 H   0  0  0  0  0  0  0  0  0  0  0  0
   -3.2124   -1.3578   -1.1289 N   0  0  0  0  0  0  0  0  0  0  0  0
   -1.8971   -1.8843   -0.8752 C   0  0  2  0  0  0  0  0  0  0  0  0
   -1.2676   -1.0599    0.2399 C   0  0  0  0  0  0  0  0  0  0  0  0
   -1.6270    0.0833    0.5138 O   0  0  0  0  0  0  0  0  0  0  0  0
   -1.0364   -1.8506   -2.1285 C   0  0  0  0  0  0  0  0  0  0  0  0
   -3.5631   -0.6202   -0.5206 H   0  0  0  0  0  0  0  0  0  0  0  0
   -2.0301   -2.9174   -0.5360 H   0  0  0  0  0  0  0  0  0  0  0  0
   -0.8921   -0.8236   -2.4833 H   0  0  0  0  0  0  0  0  0  0  0  0
   -0.0457   -2.2777   -1.9410 H   0  0  0  0  0  0  0  0  0  0  0  0
   -1.5052   -2.4193   -2.9387 H   0  0  0  0  0  0  0  0  0  0  0  0
   -0.2267   -1.7335    0.8672 N   0  0  0  0  0  0  0  0  0  0  0  0
    0.5363   -1.1590    1.9465 C   0  0  2  0  0  0  0  0  0  0  0  0
   -0.3414   -1.2043    3.1920 C   0  0  0  0  0  0  0  0  0  0  0  0
   -0.5264   -2.2293    3.8449 O   0  0  0  0  0  0  0  0  0  0  0  0
    0.9604    0.2757    1.6411 C   0  0  0  0  0  0  0  0  0  0  0  0
    2.0064    0.4564    0.5336 C   0  0  0  0  0  0  0  0  0  0  0  0
    2.7963   -0.5236    0.4046 O   0  5  0  0  0  0  0  0  0  0  0  0
    1.9701    1.5426   -0.1065 O   0  0  0  0  0  0  0  0  0  0  0  0
   -0.0113   -2.6869    0.5854 H   0  0  0  0  0  0  0  0  0  0  0  0
    1.4077   -1.8064    2.0961 H   0  0  0  0  0  0  0  0  0  0  0  0
    1.3501    0.7477    2.5534 H   0  0  0  0  0  0  0  0  0  0  0  0
    0.0841    0.8634    1.3377 H   0  0  0  0  0  0  0  0  0  0  0  0
   -0.8505    0.0453    3.5171 N   0  0  0  0  0  0  0  0  0  0  0  0
   -1.6863    0.2726    4.6730 C   0  0  2  0  0  0  0  0  0  0  0  0
   -2.6440    1.4103    4.3445 C   0  0  0  0  0  0  0  0  0  0  0  0
   -2.4197    2.2446    3.4699 O   0  0  0  0  0  0  0  0  0  0  0  0
   -0.8533    0.6012    5.9022 C   0  0  0  0  0  0  0  0  0  0  0  0
   -0.6055    0.8484    2.9455 H   0  0  0  0  0  0  0  0  0  0  0  0
   -2.2556   -0.6487    4.8378 H   0  0  0  0  0  0  0  0  0  0  0  0
   -0.2758    1.5213    5.7559 H   0  0  0  0  0  0  0  0  0  0  0  0
   -1.4866    0.7451    6.7838 H   0  0  0  0  0  0  0  0  0  0  0  0
   -0.1445   -0.2051    6.1195 H   0  0  0  0  0  0  0  0  0  0  0  0
   -3.7583    1.4099    5.1718 N   0  0  0  0  0  0  0  0  0  0  0  0
   -4.8074    2.3971    5.0672 C   0  0  0  0  0  0  0  0  0  0  0  0
   -3.8714    0.6689    5.8573 H   0  0  0  0  0  0  0  0  0  0  0  0
   -4.5952    3.2322    5.7511 H   0  0  0  0  0  0  0  0  0  0  0  0
   -4.8559    2.7724    4.0344 H   0  0  0  0  0  0  0  0  0  0  0  0
   -5.7703    1.9386    5.3364 H   0  0  0  0  0  0  0  0  0  0  0  0
  1  3  1  0  0  0  0
  1  7  1  0  0  0  0
  1  2  2  0  0  0  0
 30 31  1  0  0  0  0
 31 39  1  0  0  0  0
 31 32  2  0  0  0  0
  8  9  1  0  0  0  0
  9 17  1  0  0  0  0
  9 10  2  0  0  0  0
 18 19  1  0  0  0  0
 19 29  1  0  0  0  0
 19 20  2  0  0  0  0
 21 22  1  0  0  0  0
 22 23  1  0  0  0  0
 22 24  2  0  0  0  0
 30 33  1  0  0  0  0
  8 11  1  0  0  0  0
 39 40  1  0  0  0  0
 18 21  1  0  0  0  0
 29 30  1  0  0  0  0
  7  8  1  0  0  0  0
 17 18  1  0  0  0  0
  3  4  1  0  0  0  0
  3  5  1  0  0  0  0
  3  6  1  0  0  0  0
 33 36  1  0  0  0  0
 33 37  1  0  0  0  0
 33 38  1  0  0  0  0
 11 14  1  0  0  0  0
 11 15  1  0  0  0  0
 11 16  1  0  0  0  0
 40 42  1  0  0  0  0
 40 43  1  0  0  0  0
 40 44  1  0  0  0  0
 21 27  1  0  0  0  0
 21 28  1  0  0  0  0
 30 35  1  0  0  0  0
  8 13  1  0  0  0  0
 18 26  1  0  0  0  0
 39 41  1  0  0  0  0
  7 12  1  0  0  0  0
 29 34  1  0  0  0  0
 17 25  1  0  0  0  0
M  CHG  1  23  -1
M  END
$$$$

  -OEChem-05262214473D

 44 43  0     1  0  0  0  0  0999 V2000
   -4.0256   -1.8030   -2.1581 C   0  0  0  0  0  0  0  0  0  0  0  0
   -3.7513   -2.6782   -2.9709 O   0  0  0  0  0  0  0  0  0  0  0  0
   -5.3491   -1.1169   -2.2339 C   0  0  0  0  0  0  0  0  0  0  0  0
   -5.3223   -0.2211   -2.8750 H   0  0  0  0  0  0  0  0  0  0  0  0
   -6.1322   -1.7605   -2.6658 H   0  0  0  0  0  0  0  0  0  0  0  0
   -5.7568   -0.7715   -1.2704 H   0  0  0  0  0  0  0  0  0  0  0  0
   -3.2124   -1.3578   -1.1289 N   0  0  0  0  0  0  0  0  0  0  0  0
   -1.8971   -1.8843   -0.8752 C   0  0  2  0  0  0  0  0  0  0  0  0
   -1.2676   -1.0599    0.2399 C   0  0  0  0  0  0  0  0  0  0  0  0
   -1.6270    0.0833    0.5138 O   0  0  0  0  0  0  0  0  0  0  0  0
   -1.0364   -1.8506   -2.1285 C   0  0  0  0  0  0  0  0  0  0  0  0
   -3.5631   -0.6202   -0.5206 H   0  0  0  0  0  0  0  0  0  0  0  0
   -2.0301   -2.9174   -0.5360 H   0  0  0  0  0  0  0  0  0  0  0  0
   -0.8921   -0.8236   -2.4833 H   0  0  0  0  0  0  0  0  0  0  0  0
   -0.0457   -2.2777   -1.9410 H   0  0  0  0  0  0  0  0  0  0  0  0
   -1.5052   -2.4193   -2.9387 H   0  0  0  0  0  0  0  0  0  0  0  0
   -0.2267   -1.7335    0.8672 N   0  0  0  0  0  0  0  0  0  0  0  0
    0.5363   -1.1590    1.9465 C   0  0  2  0  0  0  0  0  0  0  0  0
   -0.3414   -1.2043    3.1920 C   0  0  0  0  0  0  0  0  0  0  0  0
   -0.3215   -2.1369    3.9926 O   0  0  0  0  0  0  0  0  0  0  0  0
    0.9604    0.2757    1.6411 C   0  0  0  0  0  0  0  0  0  0  0  0
    2.0064    0.4564    0.5336 C   0  0  0  0  0  0  0  0  0  0  0  0
    2.7963   -0.5236    0.4046 O   0  5  0  0  0  0  0  0  0  0  0  0
    1.9701    1.5426   -0.1065 O   0  0  0  0  0  0  0  0  0  0  0  0
   -0.0113   -2.6869    0.5854 H   0  0  0  0  0  0  0  0  0  0  0  0
    1.4077   -1.8064    2.0961 H   0  0  0  0  0  0  0  0  0  0  0  0
    1.3501    0.7477    2.5534 H   0  0  0  0  0  0  0  0  0  0  0  0
    0.0841    0.8634    1.3377 H   0  0  0  0  0  0  0  0  0  0  0  0
   -1.1101   -0.0570    3.3305 N   0  0  0  0  0  0  0  0  0  0  0  0
   -2.0023    0.1566    4.4462 C   0  0  2  0  0  0  0  0  0  0  0  0
   -3.1703    1.0038    3.9589 C   0  0  0  0  0  0  0  0  0  0  0  0
   -3.1063    1.7276    2.9674 O   0  0  0  0  0  0  0  0  0  0  0  0
   -1.2867    0.8328    5.6053 C   0  0  0  0  0  0  0  0  0  0  0  0
   -1.0266    0.6860    2.6430 H   0  0  0  0  0  0  0  0  0  0  0  0
   -2.3682   -0.8296    4.7519 H   0  0  0  0  0  0  0  0  0  0  0  0
   -0.9129    1.8223    5.3179 H   0  0  0  0  0  0  0  0  0  0  0  0
   -1.9568    0.9682    6.4606 H   0  0  0  0  0  0  0  0  0  0  0  0
   -0.4291    0.2365    5.9350 H   0  0  0  0  0  0  0  0  0  0  0  0
   -4.2787    0.8897    4.7862 N   0  0  0  0  0  0  0  0  0  0  0  0
   -5.5096    1.6053    4.5437 C   0  0  0  0  0  0  0  0  0  0  0  0
   -4.2493    0.2515    5.5759 H   0  0  0  0  0  0  0  0  0  0  0  0
   -5.4946    2.5583    5.0928 H   0  0  0  0  0  0  0  0  0  0  0  0
   -5.6117    1.8045    3.4667 H   0  0  0  0  0  0  0  0  0  0  0  0
   -6.3603    0.9981    4.8865 H   0  0  0  0  0  0  0  0  0  0  0  0
  1  3  1  0  0  0  0
  1  7  1  0  0  0  0
  1  2  2  0  0  0  0
 30 31  1  0  0  0  0
 31 39  1  0  0  0  0
 31 32  2  0  0  0  0
  8  9  1  0  0  0  0
  9 17  1  0  0  0  0
  9 10  2  0  0  0  0
 18 19  1  0  0  0  0
 19 29  1  0  0  0  0
 19 20  2  0  0  0  0
 21 22  1  0  0  0  0
 22 23  1  0  0  0  0
 22 24  2  0  0  0  0
 30 33  1  0  0  0  0
  8 11  1  0  0  0  0
 39 40  1  0  0  0  0
 18 21  1  0  0  0  0
 29 30  1  0  0  0  0
  7  8  1  0  0  0  0
 17 18  1  0  0  0  0
  3  4  1  0  0  0  0
  3  5  1  0  0  0  0
  3  6  1  0  0  0  0
 33 36  1  0  0  0  0
 33 37  1  0  0  0  0
 33 38  1  0  0  0  0
 11 14  1  0  0  0  0
 11 15  1  0  0  0  0
 11 16  1  0  0  0  0
 40 42  1  0  0  0  0
 40 43  1  0  0  0  0
 40 44  1  0  0  0  0
 21 27  1  0  0  0  0
 21 28  1  0  0  0  0
 30 35  1  0  0  0  0
  8 13  1  0  0  0  0
 18 26  1  0  0  0  0
 39 41  1  0  0  0  0
  7 12  1  0  0  0  0
 29 34  1  0  0  0  0
 17 25  1  0  0  0  0
M  CHG  1  23  -1
M  END
$$$$

  -OEChem-05262214473D

 44 43  0     1  0  0  0  0  0999 V2000
   -4.0256   -1.8030   -2.1581 C   0  0  0  0  0  0  0  0  0  0  0  0
   -3.7513   -2.6782   -2.9709 O   0  0  0  0  0  0  0  0  0  0  0  0
   -5.3491   -1.1169   -2.2339 C   0  0  0  0  0  0  0  0  0  0  0  0
   -5.3223   -0.2211   -2.8750 H   0  0  0  0  0  0  0  0  0  0  0  0
   -6.1322   -1.7605   -2.6658 H   0  0  0  0  0  0  0  0  0  0  0  0
   -5.7568   -0.7715   -1.2704 H   0  0  0  0  0  0  0  0  0  0  0  0
   -3.2124   -1.3578   -1.1289 N   0  0  0  0  0  0  0  0  0  0  0  0
   -1.8971   -1.8843   -0.8752 C   0  0  2  0  0  0  0  0  0  0  0  0
   -1.2676   -1.0599    0.2399 C   0  0  0  0  0  0  0  0  0  0  0  0
   -1.6270    0.0833    0.5138 O   0  0  0  0  0  0  0  0  0  0  0  0
   -1.0364   -1.8506   -2.1285 C   0  0  0  0  0  0  0  0  0  0  0  0
   -3.5631   -0.6202   -0.5206 H   0  0  0  0  0  0  0  0  0  0  0  0
   -2.0301   -2.9174   -0.5360 H   0  0  0  0  0  0  0  0  0  0  0  0
   -0.8921   -0.8236   -2.4833 H   0  0  0  0  0  0  0  0  0  0  0  0
   -0.0457   -2.2777   -1.9410 H   0  0  0  0  0  0  0  0  0  0  0  0
   -1.5052   -2.4193   -2.9387 H   0  0  0  0  0  0  0  0  0  0  0  0
   -0.2267   -1.7335    0.8672 N   0  0  0  0  0  0  0  0  0  0  0  0
    0.5363   -1.1590    1.9465 C   0  0  2  0  0  0  0  0  0  0  0  0
   -0.3414   -1.2043    3.1920 C   0  0  0  0  0  0  0  0  0  0  0  0
   -0.1443   -1.9823    4.1231 O   0  0  0  0  0  0  0  0  0  0  0  0
    0.9604    0.2757    1.6411 C   0  0  0  0  0  0  0  0  0  0  0  0
    2.0064    0.4564    0.5336 C   0  0  0  0  0  0  0  0  0  0  0  0
    2.7963   -0.5236    0.4046 O   0  5  0  0  0  0  0  0  0  0  0  0
    1.9701    1.5426   -0.1065 O   0  0  0  0  0  0  0  0  0  0  0  0
   -0.0113   -2.6869    0.5854 H   0  0  0  0  0  0  0  0  0  0  0  0
    1.4077   -1.8064    2.0961 H   0  0  0  0  0  0  0  0  0  0  0  0
    1.3501    0.7477    2.5534 H   0  0  0  0  0  0  0  0  0  0  0  0
    0.0841    0.8634    1.3377 H   0  0  0  0  0  0  0  0  0  0  0  0
   -1.3379   -0.2386    3.1634 N   0  0  0  0  0  0  0  0  0  0  0  0
   -2.2812   -0.0561    4.2419 C   0  0  2  0  0  0  0  0  0  0  0  0
   -3.5897    0.4424    3.6429 C   0  0  0  0  0  0  0  0  0  0  0  0
   -3.6563    1.0082    2.5537 O   0  0  0  0  0  0  0  0  0  0  0  0
   -1.7520    0.9206    5.2806 C   0  0  0  0  0  0  0  0  0  0  0  0
   -1.3966    0.3950    2.3717 H   0  0  0  0  0  0  0  0  0  0  0  0
   -2.4380   -1.0410    4.6950 H   0  0  0  0  0  0  0  0  0  0  0  0
   -1.5886    1.9131    4.8451 H   0  0  0  0  0  0  0  0  0  0  0  0
   -2.4557    1.0360    6.1116 H   0  0  0  0  0  0  0  0  0  0  0  0
   -0.7960    0.5753    5.6888 H   0  0  0  0  0  0  0  0  0  0  0  0
   -4.6685    0.2197    4.4872 N   0  0  0  0  0  0  0  0  0  0  0  0
   -6.0165    0.6140    4.1505 C   0  0  0  0  0  0  0  0  0  0  0  0
   -4.5238   -0.2735    5.3634 H   0  0  0  0  0  0  0  0  0  0  0  0
   -6.2158    1.6191    4.5505 H   0  0  0  0  0  0  0  0  0  0  0  0
   -6.1327    0.6251    3.0567 H   0  0  0  0  0  0  0  0  0  0  0  0
   -6.7279   -0.1022    4.5875 H   0  0  0  0  0  0  0  0  0  0  0  0
  1  3  1  0  0  0  0
  1  7  1  0  0  0  0
  1  2  2  0  0  0  0
 30 31  1  0  0  0  0
 31 39  1  0  0  0  0
 31 32  2  0  0  0  0
  8  9  1  0  0  0  0
  9 17  1  0  0  0  0
  9 10  2  0  0  0  0
 18 19  1  0  0  0  0
 19 29  1  0  0  0  0
 19 20  2  0  0  0  0
 21 22  1  0  0  0  0
 22 23  1  0  0  0  0
 22 24  2  0  0  0  0
 30 33  1  0  0  0  0
  8 11  1  0  0  0  0
 39 40  1  0  0  0  0
 18 21  1  0  0  0  0
 29 30  1  0  0  0  0
  7  8  1  0  0  0  0
 17 18  1  0  0  0  0
  3  4  1  0  0  0  0
  3  5  1  0  0  0  0
  3  6  1  0  0  0  0
 33 36  1  0  0  0  0
 33 37  1  0  0  0  0
 33 38  1  0  0  0  0
 11 14  1  0  0  0  0
 11 15  1  0  0  0  0
 11 16  1  0  0  0  0
 40 42  1  0  0  0  0
 40 43  1  0  0  0  0
 40 44  1  0  0  0  0
 21 27  1  0  0  0  0
 21 28  1  0  0  0  0
 30 35  1  0  0  0  0
  8 13  1  0  0  0  0
 18 26  1  0  0  0  0
 39 41  1  0  0  0  0
  7 12  1  0  0  0  0
 29 34  1  0  0  0  0
 17 25  1  0  0  0  0
M  CHG  1  23  -1
M  END
$$$$

  -OEChem-05262214473D

 44 43  0     1  0  0  0  0  0999 V2000
   -4.0256   -1.8030   -2.1581 C   0  0  0  0  0  0  0  0  0  0  0  0
   -3.7513   -2.6782   -2.9709 O   0  0  0  0  0  0  0  0  0  0  0  0
   -5.3491   -1.1169   -2.2339 C   0  0  0  0  0  0  0  0  0  0  0  0
   -5.3223   -0.2211   -2.8750 H   0  0  0  0  0  0  0  0  0  0  0  0
   -6.1322   -1.7605   -2.6658 H   0  0  0  0  0  0  0  0  0  0  0  0
   -5.7568   -0.7715   -1.2704 H   0  0  0  0  0  0  0  0  0  0  0  0
   -3.2124   -1.3578   -1.1289 N   0  0  0  0  0  0  0  0  0  0  0  0
   -1.8971   -1.8843   -0.8752 C   0  0  2  0  0  0  0  0  0  0  0  0
   -1.2676   -1.0599    0.2399 C   0  0  0  0  0  0  0  0  0  0  0  0
   -1.6270    0.0833    0.5138 O   0  0  0  0  0  0  0  0  0  0  0  0
   -1.0364   -1.8506   -2.1285 C   0  0  0  0  0  0  0  0  0  0  0  0
   -3.5631   -0.6202   -0.5206 H   0  0  0  0  0  0  0  0  0  0  0  0
   -2.0301   -2.9174   -0.5360 H   0  0  0  0  0  0  0  0  0  0  0  0
   -0.8921   -0.8236   -2.4833 H   0  0  0  0  0  0  0  0  0  0  0  0
   -0.0457   -2.2777   -1.9410 H   0  0  0  0  0  0  0  0  0  0  0  0
   -1.5052   -2.4193   -2.9387 H   0  0  0  0  0  0  0  0  0  0  0  0
   -0.2267   -1.7335    0.8672 N   0  0  0  0  0  0  0  0  0  0  0  0
    0.5363   -1.1590    1.9465 C   0  0  2  0  0  0  0  0  0  0  0  0
   -0.3414   -1.2043    3.1920 C   0  0  0  0  0  0  0  0  0  0  0  0
   -0.0067   -1.7761    4.2275 O   0  0  0  0  0  0  0  0  0  0  0  0
    0.9604    0.2757    1.6411 C   0  0  0  0  0  0  0  0  0  0  0  0
    2.0064    0.4564    0.5336 C   0  0  0  0  0  0  0  0  0  0  0  0
    2.7963   -0.5236    0.4046 O   0  5  0  0  0  0  0  0  0  0  0  0
    1.9701    1.5426   -0.1065 O   0  0  0  0  0  0  0  0  0  0  0  0
   -0.0113   -2.6869    0.5854 H   0  0  0  0  0  0  0  0  0  0  0  0
    1.4077   -1.8064    2.0961 H   0  0  0  0  0  0  0  0  0  0  0  0
    1.3501    0.7477    2.5534 H   0  0  0  0  0  0  0  0  0  0  0  0
    0.0841    0.8634    1.3377 H   0  0  0  0  0  0  0  0  0  0  0  0
   -1.5181   -0.4870    3.0274 N   0  0  0  0  0  0  0  0  0  0  0  0
   -2.5040   -0.3509    4.0742 C   0  0  2  0  0  0  0  0  0  0  0  0
   -3.8737   -0.2357    3.4182 C   0  0  0  0  0  0  0  0  0  0  0  0
   -4.0322    0.1353    2.2571 O   0  0  0  0  0  0  0  0  0  0  0  0
   -2.2175    0.8586    4.9503 C   0  0  0  0  0  0  0  0  0  0  0  0
   -1.6904   -0.0048    2.1501 H   0  0  0  0  0  0  0  0  0  0  0  0
   -2.4603   -1.2685    4.6710 H   0  0  0  0  0  0  0  0  0  0  0  0
   -2.2568    1.7875    4.3697 H   0  0  0  0  0  0  0  0  0  0  0  0
   -2.9492    0.9440    5.7605 H   0  0  0  0  0  0  0  0  0  0  0  0
   -1.2201    0.7883    5.3976 H   0  0  0  0  0  0  0  0  0  0  0  0
   -4.9009   -0.5545    4.2953 N   0  0  0  0  0  0  0  0  0  0  0  0
   -6.2934   -0.5093    3.9146 C   0  0  0  0  0  0  0  0  0  0  0  0
   -4.6763   -0.8703    5.2342 H   0  0  0  0  0  0  0  0  0  0  0  0
   -6.7096    0.4786    4.1611 H   0  0  0  0  0  0  0  0  0  0  0  0
   -6.3834   -0.6853    2.8325 H   0  0  0  0  0  0  0  0  0  0  0  0
   -6.8479   -1.2872    4.4599 H   0  0  0  0  0  0  0  0  0  0  0  0
  1  3  1  0  0  0  0
  1  7  1  0  0  0  0
  1  2  2  0  0  0  0
 30 31  1  0  0  0  0
 31 39  1  0  0  0  0
 31 32  2  0  0  0  0
  8  9  1  0  0  0  0
  9 17  1  0  0  0  0
  9 10  2  0  0  0  0
 18 19  1  0  0  0  0
 19 29  1  0  0  0  0
 19 20  2  0  0  0  0
 21 22  1  0  0  0  0
 22 23  1  0  0  0  0
 22 24  2  0  0  0  0
 30 33  1  0  0  0  0
  8 11  1  0  0  0  0
 39 40  1  0  0  0  0
 18 21  1  0  0  0  0
 29 30  1  0  0  0  0
  7  8  1  0  0  0  0
 17 18  1  0  0  0  0
  3  4  1  0  0  0  0
  3  5  1  0  0  0  0
  3  6  1  0  0  0  0
 33 36  1  0  0  0  0
 33 37  1  0  0  0  0
 33 38  1  0  0  0  0
 11 14  1  0  0  0  0
 11 15  1  0  0  0  0
 11 16  1  0  0  0  0
 40 42  1  0  0  0  0
 40 43  1  0  0  0  0
 40 44  1  0  0  0  0
 21 27  1  0  0  0  0
 21 28  1  0  0  0  0
 30 35  1  0  0  0  0
  8 13  1  0  0  0  0
 18 26  1  0  0  0  0
 39 41  1  0  0  0  0
  7 12  1  0  0  0  0
 29 34  1  0  0  0  0
 17 25  1  0  0  0  0
M  CHG  1  23  -1
M  END
$$$$

  -OEChem-05262214473D

 44 43  0     1  0  0  0  0  0999 V2000
   -4.0256   -1.8030   -2.1581 C   0  0  0  0  0  0  0  0  0  0  0  0
   -3.7513   -2.6782   -2.9709 O   0  0  0  0  0  0  0  0  0  0  0  0
   -5.3491   -1.1169   -2.2339 C   0  0  0  0  0  0  0  0  0  0  0  0
   -5.3223   -0.2211   -2.8750 H   0  0  0  0  0  0  0  0  0  0  0  0
   -6.1322   -1.7605   -2.6658 H   0  0  0  0  0  0  0  0  0  0  0  0
   -5.7568   -0.7715   -1.2704 H   0  0  0  0  0  0  0  0  0  0  0  0
   -3.2124   -1.3578   -1.1289 N   0  0  0  0  0  0  0  0  0  0  0  0
   -1.8971   -1.8843   -0.8752 C   0  0  2  0  0  0  0  0  0  0  0  0
   -1.2676   -1.0599    0.2399 C   0  0  0  0  0  0  0  0  0  0  0  0
   -1.6270    0.0833    0.5138 O   0  0  0  0  0  0  0  0  0  0  0  0
   -1.0364   -1.8506   -2.1285 C   0  0  0  0  0  0  0  0  0  0  0  0
   -3.5631   -0.6202   -0.5206 H   0  0  0  0  0  0  0  0  0  0  0  0
   -2.0301   -2.9174   -0.5360 H   0  0  0  0  0  0  0  0  0  0  0  0
   -0.8921   -0.8236   -2.4833 H   0  0  0  0  0  0  0  0  0  0  0  0
   -0.0457   -2.2777   -1.9410 H   0  0  0  0  0  0  0  0  0  0  0  0
   -1.5052   -2.4193   -2.9387 H   0  0  0  0  0  0  0  0  0  0  0  0
   -0.2267   -1.7335    0.8672 N   0  0  0  0  0  0  0  0  0  0  0  0
    0.5363   -1.1590    1.9465 C   0  0  2  0  0  0  0  0  0  0  0  0
   -0.3414   -1.2043    3.1920 C   0  0  0  0  0  0  0  0  0  0  0  0
    0.0817   -1.5322    4.2987 O   0  0  0  0  0  0  0  0  0  0  0  0
    0.9604    0.2757    1.6411 C   0  0  0  0  0  0  0  0  0  0  0  0
    2.0064    0.4564    0.5336 C   0  0  0  0  0  0  0  0  0  0  0  0
    2.7963   -0.5236    0.4046 O   0  5  0  0  0  0  0  0  0  0  0  0
    1.9701    1.5426   -0.1065 O   0  0  0  0  0  0  0  0  0  0  0  0
   -0.0113   -2.6869    0.5854 H   0  0  0  0  0  0  0  0  0  0  0  0
    1.4077   -1.8064    2.0961 H   0  0  0  0  0  0  0  0  0  0  0  0
    1.3501    0.7477    2.5534 H   0  0  0  0  0  0  0  0  0  0  0  0
    0.0841    0.8634    1.3377 H   0  0  0  0  0  0  0  0  0  0  0  0
   -1.6387   -0.7854    2.9316 N   0  0  0  0  0  0  0  0  0  0  0  0
   -2.6557   -0.7079    3.9544 C   0  0  2  0  0  0  0  0  0  0  0  0
   -4.0028   -0.9842    3.3000 C   0  0  0  0  0  0  0  0  0  0  0  0
   -4.2085   -0.8315    2.0977 O   0  0  0  0  0  0  0  0  0  0  0  0
   -2.6515    0.6511    4.6370 C   0  0  0  0  0  0  0  0  0  0  0  0
   -1.8879   -0.4861    1.9934 H   0  0  0  0  0  0  0  0  0  0  0  0
   -2.4336   -1.4965    4.6816 H   0  0  0  0  0  0  0  0  0  0  0  0
   -2.8721    1.4540    3.9241 H   0  0  0  0  0  0  0  0  0  0  0  0
   -3.4038    0.6985    5.4312 H   0  0  0  0  0  0  0  0  0  0  0  0
   -1.6726    0.8610    5.0814 H   0  0  0  0  0  0  0  0  0  0  0  0
   -4.9602   -1.3800    4.2235 N   0  0  0  0  0  0  0  0  0  0  0  0
   -6.3215   -1.6881    3.8519 C   0  0  0  0  0  0  0  0  0  0  0  0
   -4.6964   -1.4983    5.1973 H   0  0  0  0  0  0  0  0  0  0  0  0
   -6.9424   -0.7855    3.9511 H   0  0  0  0  0  0  0  0  0  0  0  0
   -6.3467   -2.0375    2.8092 H   0  0  0  0  0  0  0  0  0  0  0  0
   -6.7123   -2.4762    4.5123 H   0  0  0  0  0  0  0  0  0  0  0  0
  1  3  1  0  0  0  0
  1  7  1  0  0  0  0
  1  2  2  0  0  0  0
 30 31  1  0  0  0  0
 31 39  1  0  0  0  0
 31 32  2  0  0  0  0
  8  9  1  0  0  0  0
  9 17  1  0  0  0  0
  9 10  2  0  0  0  0
 18 19  1  0  0  0  0
 19 29  1  0  0  0  0
 19 20  2  0  0  0  0
 21 22  1  0  0  0  0
 22 23  1  0  0  0  0
 22 24  2  0  0  0  0
 30 33  1  0  0  0  0
  8 11  1  0  0  0  0
 39 40  1  0  0  0  0
 18 21  1  0  0  0  0
 29 30  1  0  0  0  0
  7  8  1  0  0  0  0
 17 18  1  0  0  0  0
  3  4  1  0  0  0  0
  3  5  1  0  0  0  0
  3  6  1  0  0  0  0
 33 36  1  0  0  0  0
 33 37  1  0  0  0  0
 33 38  1  0  0  0  0
 11 14  1  0  0  0  0
 11 15  1  0  0  0  0
 11 16  1  0  0  0  0
 40 42  1  0  0  0  0
 40 43  1  0  0  0  0
 40 44  1  0  0  0  0
 21 27  1  0  0  0  0
 21 28  1  0  0  0  0
 30 35  1  0  0  0  0
  8 13  1  0  0  0  0
 18 26  1  0  0  0  0
 39 41  1  0  0  0  0
  7 12  1  0  0  0  0
 29 34  1  0  0  0  0
 17 25  1  0  0  0  0
M  CHG  1  23  -1
M  END
$$$$

  -OEChem-05262214473D

 44 43  0     1  0  0  0  0  0999 V2000
   -4.0256   -1.8030   -2.1581 C   0  0  0  0  0  0  0  0  0  0  0  0
   -3.7513   -2.6782   -2.9709 O   0  0  0  0  0  0  0  0  0  0  0  0
   -5.3491   -1.1169   -2.2339 C   0  0  0  0  0  0  0  0  0  0  0  0
   -5.3223   -0.2211   -2.8750 H   0  0  0  0  0  0  0  0  0  0  0  0
   -6.1322   -1.7605   -2.6658 H   0  0  0  0  0  0  0  0  0  0  0  0
   -5.7568   -0.7715   -1.2704 H   0  0  0  0  0  0  0  0  0  0  0  0
   -3.2124   -1.3578   -1.1289 N   0  0  0  0  0  0  0  0  0  0  0  0
   -1.8971   -1.8843   -0.8752 C   0  0  2  0  0  0  0  0  0  0  0  0
   -1.2676   -1.0599    0.2399 C   0  0  0  0  0  0  0  0  0  0  0  0
   -1.6270    0.0833    0.5138 O   0  0  0  0  0  0  0  0  0  0  0  0
   -1.0364   -1.8506   -2.1285 C   0  0  0  0  0  0  0  0  0  0  0  0
   -3.5631   -0.6202   -0.5206 H   0  0  0  0  0  0  0  0  0  0  0  0
   -2.0301   -2.9174   -0.5360 H   0  0  0  0  0  0  0  0  0  0  0  0
   -0.8921   -0.8236   -2.4833 H   0  0  0  0  0  0  0  0  0  0  0  0
   -0.0457   -2.2777   -1.9410 H   0  0  0  0  0  0  0  0  0  0  0  0
   -1.5052   -2.4193   -2.9387 H   0  0  0  0  0  0  0  0  0  0  0  0
   -0.2267   -1.7335    0.8672 N   0  0  0  0  0  0  0  0  0  0  0  0
    0.5363   -1.1590    1.9465 C   0  0  2  0  0  0  0  0  0  0  0  0
   -0.3414   -1.2043    3.1920 C   0  0  0  0  0  0  0  0  0  0  0  0
    0.1150   -1.2673    4.3318 O   0  0  0  0  0  0  0  0  0  0  0  0
    0.9604    0.2757    1.6411 C   0  0  0  0  0  0  0  0  0  0  0  0
    2.0064    0.4564    0.5336 C   0  0  0  0  0  0  0  0  0  0  0  0
    2.7963   -0.5236    0.4046 O   0  5  0  0  0  0  0  0  0  0  0  0
    1.9701    1.5426   -0.1065 O   0  0  0  0  0  0  0  0  0  0  0  0
   -0.0113   -2.6869    0.5854 H   0  0  0  0  0  0  0  0  0  0  0  0
    1.4077   -1.8064    2.0961 H   0  0  0  0  0  0  0  0  0  0  0  0
    1.3501    0.7477    2.5534 H   0  0  0  0  0  0  0  0  0  0  0  0
    0.0841    0.8634    1.3377 H   0  0  0  0  0  0  0  0  0  0  0  0
   -1.6913   -1.1133    2.8826 N   0  0  0  0  0  0  0  0  0  0  0  0
   -2.7257   -1.1026    3.8907 C   0  0  2  0  0  0  0  0  0  0  0  0
   -3.9684   -1.7521    3.2964 C   0  0  0  0  0  0  0  0  0  0  0  0
   -4.1730   -1.8264    2.0865 O   0  0  0  0  0  0  0  0  0  0  0  0
   -3.0244    0.3122    4.3619 C   0  0  0  0  0  0  0  0  0  0  0  0
   -1.9757   -1.0161    1.9123 H   0  0  0  0  0  0  0  0  0  0  0  0
   -2.3596   -1.7095    4.7260 H   0  0  0  0  0  0  0  0  0  0  0  0
   -3.3924    0.9353    3.5386 H   0  0  0  0  0  0  0  0  0  0  0  0
   -3.7884    0.3161    5.1463 H   0  0  0  0  0  0  0  0  0  0  0  0
   -2.1226    0.7884    4.7617 H   0  0  0  0  0  0  0  0  0  0  0  0
   -4.8424   -2.2006    4.2767 N   0  0  0  0  0  0  0  0  0  0  0  0
   -6.0989   -2.8419    3.9669 C   0  0  0  0  0  0  0  0  0  0  0  0
   -4.5827   -2.1147    5.2550 H   0  0  0  0  0  0  0  0  0  0  0  0
   -6.8984   -2.0871    3.9349 H   0  0  0  0  0  0  0  0  0  0  0  0
   -6.0251   -3.3393    2.9885 H   0  0  0  0  0  0  0  0  0  0  0  0
   -6.3302   -3.5883    4.7411 H   0  0  0  0  0  0  0  0  0  0  0  0
  1  3  1  0  0  0  0
  1  7  1  0  0  0  0
  1  2  2  0  0  0  0
 30 31  1  0  0  0  0
 31 39  1  0  0  0  0
 31 32  2  0  0  0  0
  8  9  1  0  0  0  0
  9 17  1  0  0  0  0
  9 10  2  0  0  0  0
 18 19  1  0  0  0  0
 19 29  1  0  0  0  0
 19 20  2  0  0  0  0
 21 22  1  0  0  0  0
 22 23  1  0  0  0  0
 22 24  2  0  0  0  0
 30 33  1  0  0  0  0
  8 11  1  0  0  0  0
 39 40  1  0  0  0  0
 18 21  1  0  0  0  0
 29 30  1  0  0  0  0
  7  8  1  0  0  0  0
 17 18  1  0  0  0  0
  3  4  1  0  0  0  0
  3  5  1  0  0  0  0
  3  6  1  0  0  0  0
 33 36  1  0  0  0  0
 33 37  1  0  0  0  0
 33 38  1  0  0  0  0
 11 14  1  0  0  0  0
 11 15  1  0  0  0  0
 11 16  1  0  0  0  0
 40 42  1  0  0  0  0
 40 43  1  0  0  0  0
 40 44  1  0  0  0  0
 21 27  1  0  0  0  0
 21 28  1  0  0  0  0
 30 35  1  0  0  0  0
  8 13  1  0  0  0  0
 18 26  1  0  0  0  0
 39 41  1  0  0  0  0
  7 12  1  0  0  0  0
 29 34  1  0  0  0  0
 17 25  1  0  0  0  0
M  CHG  1  23  -1
M  END
$$$$

  -OEChem-05262214473D

 44 43  0     1  0  0  0  0  0999 V2000
   -4.0256   -1.8030   -2.1581 C   0  0  0  0  0  0  0  0  0  0  0  0
   -3.7513   -2.6782   -2.9709 O   0  0  0  0  0  0  0  0  0  0  0  0
   -5.3491   -1.1169   -2.2339 C   0  0  0  0  0  0  0  0  0  0  0  0
   -5.3223   -0.2211   -2.8750 H   0  0  0  0  0  0  0  0  0  0  0  0
   -6.1322   -1.7605   -2.6658 H   0  0  0  0  0  0  0  0  0  0  0  0
   -5.7568   -0.7715   -1.2704 H   0  0  0  0  0  0  0  0  0  0  0  0
   -3.2124   -1.3578   -1.1289 N   0  0  0  0  0  0  0  0  0  0  0  0
   -1.8971   -1.8843   -0.8752 C   0  0  2  0  0  0  0  0  0  0  0  0
   -1.2676   -1.0599    0.2399 C   0  0  0  0  0  0  0  0  0  0  0  0
   -1.6270    0.0833    0.5138 O   0  0  0  0  0  0  0  0  0  0  0  0
   -1.0364   -1.8506   -2.1285 C   0  0  0  0  0  0  0  0  0  0  0  0
   -3.5631   -0.6202   -0.5206 H   0  0  0  0  0  0  0  0  0  0  0  0
   -2.0301   -2.9174   -0.5360 H   0  0  0  0  0  0  0  0  0  0  0  0
   -0.8921   -0.8236   -2.4833 H   0  0  0  0  0  0  0  0  0  0  0  0
   -0.0457   -2.2777   -1.9410 H   0  0  0  0  0  0  0  0  0  0  0  0
   -1.5052   -2.4193   -2.9387 H   0  0  0  0  0  0  0  0  0  0  0  0
   -0.2267   -1.7335    0.8672 N   0  0  0  0  0  0  0  0  0  0  0  0
    0.5363   -1.1590    1.9465 C   0  0  2  0  0  0  0  0  0  0  0  0
   -0.3414   -1.2043    3.1920 C   0  0  0  0  0  0  0  0  0  0  0  0
    0.0908   -0.9995    4.3245 O   0  0  0  0  0  0  0  0  0  0  0  0
    0.9604    0.2757    1.6411 C   0  0  0  0  0  0  0  0  0  0  0  0
    2.0064    0.4564    0.5336 C   0  0  0  0  0  0  0  0  0  0  0  0
    2.7963   -0.5236    0.4046 O   0  5  0  0  0  0  0  0  0  0  0  0
    1.9701    1.5426   -0.1065 O   0  0  0  0  0  0  0  0  0  0  0  0
   -0.0113   -2.6869    0.5854 H   0  0  0  0  0  0  0  0  0  0  0  0
    1.4077   -1.8064    2.0961 H   0  0  0  0  0  0  0  0  0  0  0  0
    1.3501    0.7477    2.5534 H   0  0  0  0  0  0  0  0  0  0  0  0
    0.0841    0.8634    1.3377 H   0  0  0  0  0  0  0  0  0  0  0  0
   -1.6724   -1.4486    2.8838 N   0  0  0  0  0  0  0  0  0  0  0  0
   -2.7094   -1.5081    3.8875 C   0  0  2  0  0  0  0  0  0  0  0  0
   -3.7727   -2.4872    3.4076 C   0  0  0  0  0  0  0  0  0  0  0  0
   -3.9283   -2.7816    2.2243 O   0  0  0  0  0  0  0  0  0  0  0  0
   -3.3108   -0.1350    4.1438 C   0  0  0  0  0  0  0  0  0  0  0  0
   -1.9478   -1.5587    1.9123 H   0  0  0  0  0  0  0  0  0  0  0  0
   -2.2435   -1.8929    4.8011 H   0  0  0  0  0  0  0  0  0  0  0  0
   -3.7823    0.2668    3.2395 H   0  0  0  0  0  0  0  0  0  0  0  0
   -4.0768   -0.1770    4.9251 H   0  0  0  0  0  0  0  0  0  0  0  0
   -2.5395    0.5754    4.4602 H   0  0  0  0  0  0  0  0  0  0  0  0
   -4.5555   -2.9604    4.4513 N   0  0  0  0  0  0  0  0  0  0  0  0
   -5.6407   -3.8923    4.2516 C   0  0  0  0  0  0  0  0  0  0  0  0
   -4.3430   -2.6774    5.4034 H   0  0  0  0  0  0  0  0  0  0  0  0
   -6.5804   -3.3374    4.1135 H   0  0  0  0  0  0  0  0  0  0  0  0
   -5.4405   -4.5021    3.3582 H   0  0  0  0  0  0  0  0  0  0  0  0
   -5.7277   -4.5476    5.1308 H   0  0  0  0  0  0  0  0  0  0  0  0
  1  3  1  0  0  0  0
  1  7  1  0  0  0  0
  1  2  2  0  0  0  0
 30 31  1  0  0  0  0
 31 39  1  0  0  0  0
 31 32  2  0  0  0  0
  8  9  1  0  0  0  0
  9 17  1  0  0  0  0
  9 10  2  0  0  0  0
 18 19  1  0  0  0  0
 19 29  1  0  0  0  0
 19 20  2  0  0  0  0
 21 22  1  0  0  0  0
 22 23  1  0  0  0  0
 22 24  2  0  0  0  0
 30 33  1  0  0  0  0
  8 11  1  0  0  0  0
 39 40  1  0  0  0  0
 18 21  1  0  0  0  0
 29 30  1  0  0  0  0
  7  8  1  0  0  0  0
 17 18  1  0  0  0  0
  3  4  1  0  0  0  0
  3  5  1  0  0  0  0
  3  6  1  0  0  0  0
 33 36  1  0  0  0  0
 33 37  1  0  0  0  0
 33 38  1  0  0  0  0
 11 14  1  0  0  0  0
 11 15  1  0  0  0  0
 11 16  1  0  0  0  0
 40 42  1  0  0  0  0
 40 43  1  0  0  0  0
 40 44  1  0  0  0  0
 21 27  1  0  0  0  0
 21 28  1  0  0  0  0
 30 35  1  0  0  0  0
  8 13  1  0  0  0  0
 18 26  1  0  0  0  0
 39 41  1  0  0  0  0
  7 12  1  0  0  0  0
 29 34  1  0  0  0  0
 17 25  1  0  0  0  0
M  CHG  1  23  -1
M  END
$$$$

  -OEChem-05262214473D

 44 43  0     1  0  0  0  0  0999 V2000
   -4.0256   -1.8030   -2.1581 C   0  0  0  0  0  0  0  0  0  0  0  0
   -3.7513   -2.6782   -2.9709 O   0  0  0  0  0  0  0  0  0  0  0  0
   -5.3491   -1.1169   -2.2339 C   0  0  0  0  0  0  0  0  0  0  0  0
   -5.3223   -0.2211   -2.8750 H   0  0  0  0  0  0  0  0  0  0  0  0
   -6.1322   -1.7605   -2.6658 H   0  0  0  0  0  0  0  0  0  0  0  0
   -5.7568   -0.7715   -1.2704 H   0  0  0  0  0  0  0  0  0  0  0  0
   -3.2124   -1.3578   -1.1289 N   0  0  0  0  0  0  0  0  0  0  0  0
   -1.8971   -1.8843   -0.8752 C   0  0  2  0  0  0  0  0  0  0  0  0
   -1.2676   -1.0599    0.2399 C   0  0  0  0  0  0  0  0  0  0  0  0
   -1.6270    0.0833    0.5138 O   0  0  0  0  0  0  0  0  0  0  0  0
   -1.0364   -1.8506   -2.1285 C   0  0  0  0  0  0  0  0  0  0  0  0
   -3.5631   -0.6202   -0.5206 H   0  0  0  0  0  0  0  0  0  0  0  0
   -2.0301   -2.9174   -0.5360 H   0  0  0  0  0  0  0  0  0  0  0  0
   -0.8921   -0.8236   -2.4833 H   0  0  0  0  0  0  0  0  0  0  0  0
   -0.0457   -2.2777   -1.9410 H   0  0  0  0  0  0  0  0  0  0  0  0
   -1.5052   -2.4193   -2.9387 H   0  0  0  0  0  0  0  0  0  0  0  0
   -0.2267   -1.7335    0.8672 N   0  0  0  0  0  0  0  0  0  0  0  0
    0.5363   -1.1590    1.9465 C   0  0  2  0  0  0  0  0  0  0  0  0
   -0.3414   -1.2043    3.1920 C   0  0  0  0  0  0  0  0  0  0  0  0
    0.0110   -0.7470    4.2774 O   0  0  0  0  0  0  0  0  0  0  0  0
    0.9604    0.2757    1.6411 C   0  0  0  0  0  0  0  0  0  0  0  0
    2.0064    0.4564    0.5336 C   0  0  0  0  0  0  0  0  0  0  0  0
    2.7963   -0.5236    0.4046 O   0  5  0  0  0  0  0  0  0  0  0  0
    1.9701    1.5426   -0.1065 O   0  0  0  0  0  0  0  0  0  0  0  0
   -0.0113   -2.6869    0.5854 H   0  0  0  0  0  0  0  0  0  0  0  0
    1.4077   -1.8064    2.0961 H   0  0  0  0  0  0  0  0  0  0  0  0
    1.3501    0.7477    2.5534 H   0  0  0  0  0  0  0  0  0  0  0  0
    0.0841    0.8634    1.3377 H   0  0  0  0  0  0  0  0  0  0  0  0
   -1.5832   -1.7682    2.9350 N   0  0  0  0  0  0  0  0  0  0  0  0
   -2.6079   -1.8969    3.9449 C   0  0  2  0  0  0  0  0  0  0  0  0
   -3.4291   -3.1392    3.6260 C   0  0  0  0  0  0  0  0  0  0  0  0
   -3.4910   -3.6320    2.5015 O   0  0  0  0  0  0  0  0  0  0  0  0
   -3.4913   -0.6601    3.9976 C   0  0  0  0  0  0  0  0  0  0  0  0
   -1.8061   -2.0770    1.9933 H   0  0  0  0  0  0  0  0  0  0  0  0
   -2.0931   -2.0344    4.9020 H   0  0  0  0  0  0  0  0  0  0  0  0
   -4.0153   -0.5059    3.0473 H   0  0  0  0  0  0  0  0  0  0  0  0
   -4.2495   -0.7473    4.7828 H   0  0  0  0  0  0  0  0  0  0  0  0
   -2.8948    0.2366    4.1975 H   0  0  0  0  0  0  0  0  0  0  0  0
   -4.1190   -3.6077    4.7354 N   0  0  0  0  0  0  0  0  0  0  0  0
   -4.9782   -4.7676    4.6866 C   0  0  0  0  0  0  0  0  0  0  0  0
   -3.9936   -3.1481    5.6325 H   0  0  0  0  0  0  0  0  0  0  0  0
   -6.0103   -4.4513    4.4748 H   0  0  0  0  0  0  0  0  0  0  0  0
   -4.6328   -5.4465    3.8930 H   0  0  0  0  0  0  0  0  0  0  0  0
   -4.9459   -5.2887    5.6548 H   0  0  0  0  0  0  0  0  0  0  0  0
  1  3  1  0  0  0  0
  1  7  1  0  0  0  0
  1  2  2  0  0  0  0
 30 31  1  0  0  0  0
 31 39  1  0  0  0  0
 31 32  2  0  0  0  0
  8  9  1  0  0  0  0
  9 17  1  0  0  0  0
  9 10  2  0  0  0  0
 18 19  1  0  0  0  0
 19 29  1  0  0  0  0
 19 20  2  0  0  0  0
 21 22  1  0  0  0  0
 22 23  1  0  0  0  0
 22 24  2  0  0  0  0
 30 33  1  0  0  0  0
  8 11  1  0  0  0  0
 39 40  1  0  0  0  0
 18 21  1  0  0  0  0
 29 30  1  0  0  0  0
  7  8  1  0  0  0  0
 17 18  1  0  0  0  0
  3  4  1  0  0  0  0
  3  5  1  0  0  0  0
  3  6  1  0  0  0  0
 33 36  1  0  0  0  0
 33 37  1  0  0  0  0
 33 38  1  0  0  0  0
 11 14  1  0  0  0  0
 11 15  1  0  0  0  0
 11 16  1  0  0  0  0
 40 42  1  0  0  0  0
 40 43  1  0  0  0  0
 40 44  1  0  0  0  0
 21 27  1  0  0  0  0
 21 28  1  0  0  0  0
 30 35  1  0  0  0  0
  8 13  1  0  0  0  0
 18 26  1  0  0  0  0
 39 41  1  0  0  0  0
  7 12  1  0  0  0  0
 29 34  1  0  0  0  0
 17 25  1  0  0  0  0
M  CHG  1  23  -1
M  END
$$$$

  -OEChem-05262214473D

 44 43  0     1  0  0  0  0  0999 V2000
   -4.0256   -1.8030   -2.1581 C   0  0  0  0  0  0  0  0  0  0  0  0
   -3.7513   -2.6782   -2.9709 O   0  0  0  0  0  0  0  0  0  0  0  0
   -5.3491   -1.1169   -2.2339 C   0  0  0  0  0  0  0  0  0  0  0  0
   -5.3223   -0.2211   -2.8750 H   0  0  0  0  0  0  0  0  0  0  0  0
   -6.1322   -1.7605   -2.6658 H   0  0  0  0  0  0  0  0  0  0  0  0
   -5.7568   -0.7715   -1.2704 H   0  0  0  0  0  0  0  0  0  0  0  0
   -3.2124   -1.3578   -1.1289 N   0  0  0  0  0  0  0  0  0  0  0  0
   -1.8971   -1.8843   -0.8752 C   0  0  2  0  0  0  0  0  0  0  0  0
   -1.2676   -1.0599    0.2399 C   0  0  0  0  0  0  0  0  0  0  0  0
   -1.6270    0.0833    0.5138 O   0  0  0  0  0  0  0  0  0  0  0  0
   -1.0364   -1.8506   -2.1285 C   0  0  0  0  0  0  0  0  0  0  0  0
   -3.5631   -0.6202   -0.5206 H   0  0  0  0  0  0  0  0  0  0  0  0
   -2.0301   -2.9174   -0.5360 H   0  0  0  0  0  0  0  0  0  0  0  0
   -0.8921   -0.8236   -2.4833 H   0  0  0  0  0  0  0  0  0  0  0  0
   -0.0457   -2.2777   -1.9410 H   0  0  0  0  0  0  0  0  0  0  0  0
   -1.5052   -2.4193   -2.9387 H   0  0  0  0  0  0  0  0  0  0  0  0
   -0.2267   -1.7335    0.8672 N   0  0  0  0  0  0  0  0  0  0  0  0
    0.5363   -1.1590    1.9465 C   0  0  2  0  0  0  0  0  0  0  0  0
   -0.3414   -1.2043    3.1920 C   0  0  0  0  0  0  0  0  0  0  0  0
   -0.1192   -0.5270    4.1936 O   0  0  0  0  0  0  0  0  0  0  0  0
    0.9604    0.2757    1.6411 C   0  0  0  0  0  0  0  0  0  0  0  0
    2.0064    0.4564    0.5336 C   0  0  0  0  0  0  0  0  0  0  0  0
    2.7963   -0.5236    0.4046 O   0  5  0  0  0  0  0  0  0  0  0  0
    1.9701    1.5426   -0.1065 O   0  0  0  0  0  0  0  0  0  0  0  0
   -0.0113   -2.6869    0.5854 H   0  0  0  0  0  0  0  0  0  0  0  0
    1.4077   -1.8064    2.0961 H   0  0  0  0  0  0  0  0  0  0  0  0
    1.3501    0.7477    2.5534 H   0  0  0  0  0  0  0  0  0  0  0  0
    0.0841    0.8634    1.3377 H   0  0  0  0  0  0  0  0  0  0  0  0
   -1.4299   -2.0504    3.0327 N   0  0  0  0  0  0  0  0  0  0  0  0
   -2.4280   -2.2423    4.0591 C   0  0  2  0  0  0  0  0  0  0  0  0
   -2.9610   -3.6638    3.9368 C   0  0  0  0  0  0  0  0  0  0  0  0
   -2.8909   -4.3196    2.8994 O   0  0  0  0  0  0  0  0  0  0  0  0
   -3.5534   -1.2272    3.9332 C   0  0  0  0  0  0  0  0  0  0  0  0
   -1.5603   -2.5355    2.1499 H   0  0  0  0  0  0  0  0  0  0  0  0
   -1.9186   -2.1242    5.0216 H   0  0  0  0  0  0  0  0  0  0  0  0
   -4.0755   -1.3302    2.9750 H   0  0  0  0  0  0  0  0  0  0  0  0
   -4.2946   -1.3559    4.7289 H   0  0  0  0  0  0  0  0  0  0  0  0
   -3.1644   -0.2049    3.9915 H   0  0  0  0  0  0  0  0  0  0  0  0
   -3.5627   -4.0982    5.1096 N   0  0  0  0  0  0  0  0  0  0  0  0
   -4.1566   -5.4081    5.2423 C   0  0  0  0  0  0  0  0  0  0  0  0
   -3.5584   -3.4948    5.9266 H   0  0  0  0  0  0  0  0  0  0  0  0
   -5.2268   -5.3528    4.9941 H   0  0  0  0  0  0  0  0  0  0  0  0
   -3.6570   -6.1082    4.5566 H   0  0  0  0  0  0  0  0  0  0  0  0
   -4.0380   -5.7611    6.2773 H   0  0  0  0  0  0  0  0  0  0  0  0
  1  3  1  0  0  0  0
  1  7  1  0  0  0  0
  1  2  2  0  0  0  0
 30 31  1  0  0  0  0
 31 39  1  0  0  0  0
 31 32  2  0  0  0  0
  8  9  1  0  0  0  0
  9 17  1  0  0  0  0
  9 10  2  0  0  0  0
 18 19  1  0  0  0  0
 19 29  1  0  0  0  0
 19 20  2  0  0  0  0
 21 22  1  0  0  0  0
 22 23  1  0  0  0  0
 22 24  2  0  0  0  0
 30 33  1  0  0  0  0
  8 11  1  0  0  0  0
 39 40  1  0  0  0  0
 18 21  1  0  0  0  0
 29 30  1  0  0  0  0
  7  8  1  0  0  0  0
 17 18  1  0  0  0  0
  3  4  1  0  0  0  0
  3  5  1  0  0  0  0
  3  6  1  0  0  0  0
 33 36  1  0  0  0  0
 33 37  1  0  0  0  0
 33 38  1  0  0  0  0
 11 14  1  0  0  0  0
 11 15  1  0  0  0  0
 11 16  1  0  0  0  0
 40 42  1  0  0  0  0
 40 43  1  0  0  0  0
 40 44  1  0  0  0  0
 21 27  1  0  0  0  0
 21 28  1  0  0  0  0
 30 35  1  0  0  0  0
  8 13  1  0  0  0  0
 18 26  1  0  0  0  0
 39 41  1  0  0  0  0
  7 12  1  0  0  0  0
 29 34  1  0  0  0  0
 17 25  1  0  0  0  0
M  CHG  1  23  -1
M  END
$$$$

  -OEChem-05262214473D

 44 43  0     1  0  0  0  0  0999 V2000
   -4.0256   -1.8030   -2.1581 C   0  0  0  0  0  0  0  0  0  0  0  0
   -3.7513   -2.6782   -2.9709 O   0  0  0  0  0  0  0  0  0  0  0  0
   -5.3491   -1.1169   -2.2339 C   0  0  0  0  0  0  0  0  0  0  0  0
   -5.3223   -0.2211   -2.8750 H   0  0  0  0  0  0  0  0  0  0  0  0
   -6.1322   -1.7605   -2.6658 H   0  0  0  0  0  0  0  0  0  0  0  0
   -5.7568   -0.7715   -1.2704 H   0  0  0  0  0  0  0  0  0  0  0  0
   -3.2124   -1.3578   -1.1289 N   0  0  0  0  0  0  0  0  0  0  0  0
   -1.8971   -1.8843   -0.8752 C   0  0  2  0  0  0  0  0  0  0  0  0
   -1.2676   -1.0599    0.2399 C   0  0  0  0  0  0  0  0  0  0  0  0
   -1.6270    0.0833    0.5138 O   0  0  0  0  0  0  0  0  0  0  0  0
   -1.0364   -1.8506   -2.1285 C   0  0  0  0  0  0  0  0  0  0  0  0
   -3.5631   -0.6202   -0.5206 H   0  0  0  0  0  0  0  0  0  0  0  0
   -2.0301   -2.9174   -0.5360 H   0  0  0  0  0  0  0  0  0  0  0  0
   -0.8921   -0.8236   -2.4833 H   0  0  0  0  0  0  0  0  0  0  0  0
   -0.0457   -2.2777   -1.9410 H   0  0  0  0  0  0  0  0  0  0  0  0
   -1.5052   -2.4193   -2.9387 H   0  0  0  0  0  0  0  0  0  0  0  0
   -0.2267   -1.7335    0.8672 N   0  0  0  0  0  0  0  0  0  0  0  0
    0.5363   -1.1590    1.9465 C   0  0  2  0  0  0  0  0  0  0  0  0
   -0.3414   -1.2043    3.1920 C   0  0  0  0  0  0  0  0  0  0  0  0
   -0.2909   -0.3545    4.0790 O   0  0  0  0  0  0  0  0  0  0  0  0
    0.9604    0.2757    1.6411 C   0  0  0  0  0  0  0  0  0  0  0  0
    2.0064    0.4564    0.5336 C   0  0  0  0  0  0  0  0  0  0  0  0
    2.7963   -0.5236    0.4046 O   0  5  0  0  0  0  0  0  0  0  0  0
    1.9701    1.5426   -0.1065 O   0  0  0  0  0  0  0  0  0  0  0  0
   -0.0113   -2.6869    0.5854 H   0  0  0  0  0  0  0  0  0  0  0  0
    1.4077   -1.8064    2.0961 H   0  0  0  0  0  0  0  0  0  0  0  0
    1.3501    0.7477    2.5534 H   0  0  0  0  0  0  0  0  0  0  0  0
    0.0841    0.8634    1.3377 H   0  0  0  0  0  0  0  0  0  0  0  0
   -1.2229   -2.2761    3.1704 N   0  0  0  0  0  0  0  0  0  0  0  0
   -2.1821   -2.5210    4.2222 C   0  0  2  0  0  0  0  0  0  0  0  0
   -2.4003   -4.0252    4.3188 C   0  0  0  0  0  0  0  0  0  0  0  0
   -2.1689   -4.7975    3.3908 O   0  0  0  0  0  0  0  0  0  0  0  0
   -3.4929   -1.7977    3.9551 C   0  0  0  0  0  0  0  0  0  0  0  0
   -1.2270   -2.9031    2.3713 H   0  0  0  0  0  0  0  0  0  0  0  0
   -1.7321   -2.1562    5.1519 H   0  0  0  0  0  0  0  0  0  0  0  0
   -3.9587   -2.1500    3.0275 H   0  0  0  0  0  0  0  0  0  0  0  0
   -4.2090   -1.9613    4.7672 H   0  0  0  0  0  0  0  0  0  0  0  0
   -3.3298   -0.7191    3.8563 H   0  0  0  0  0  0  0  0  0  0  0  0
   -2.9244   -4.3987    5.5484 N   0  0  0  0  0  0  0  0  0  0  0  0
   -3.2317   -5.7702    5.8808 C   0  0  0  0  0  0  0  0  0  0  0  0
   -3.0669   -3.6938    6.2657 H   0  0  0  0  0  0  0  0  0  0  0  0
   -4.2833   -5.9805    5.6361 H   0  0  0  0  0  0  0  0  0  0  0  0
   -2.5796   -6.4422    5.3036 H   0  0  0  0  0  0  0  0  0  0  0  0
   -3.0660   -5.9327    6.9561 H   0  0  0  0  0  0  0  0  0  0  0  0
  1  3  1  0  0  0  0
  1  7  1  0  0  0  0
  1  2  2  0  0  0  0
 30 31  1  0  0  0  0
 31 39  1  0  0  0  0
 31 32  2  0  0  0  0
  8  9  1  0  0  0  0
  9 17  1  0  0  0  0
  9 10  2  0  0  0  0
 18 19  1  0  0  0  0
 19 29  1  0  0  0  0
 19 20  2  0  0  0  0
 21 22  1  0  0  0  0
 22 23  1  0  0  0  0
 22 24  2  0  0  0  0
 30 33  1  0  0  0  0
  8 11  1  0  0  0  0
 39 40  1  0  0  0  0
 18 21  1  0  0  0  0
 29 30  1  0  0  0  0
  7  8  1  0  0  0  0
 17 18  1  0  0  0  0
  3  4  1  0  0  0  0
  3  5  1  0  0  0  0
  3  6  1  0  0  0  0
 33 36  1  0  0  0  0
 33 37  1  0  0  0  0
 33 38  1  0  0  0  0
 11 14  1  0  0  0  0
 11 15  1  0  0  0  0
 11 16  1  0  0  0  0
 40 42  1  0  0  0  0
 40 43  1  0  0  0  0
 40 44  1  0  0  0  0
 21 27  1  0  0  0  0
 21 28  1  0  0  0  0
 30 35  1  0  0  0  0
  8 13  1  0  0  0  0
 18 26  1  0  0  0  0
 39 41  1  0  0  0  0
  7 12  1  0  0  0  0
 29 34  1  0  0  0  0
 17 25  1  0  0  0  0
M  CHG  1  23  -1
M  END
$$$$

  -OEChem-05262214473D

 44 43  0     1  0  0  0  0  0999 V2000
   -4.0256   -1.8030   -2.1581 C   0  0  0  0  0  0  0  0  0  0  0  0
   -3.7513   -2.6782   -2.9709 O   0  0  0  0  0  0  0  0  0  0  0  0
   -5.3491   -1.1169   -2.2339 C   0  0  0  0  0  0  0  0  0  0  0  0
   -5.3223   -0.2211   -2.8750 H   0  0  0  0  0  0  0  0  0  0  0  0
   -6.1322   -1.7605   -2.6658 H   0  0  0  0  0  0  0  0  0  0  0  0
   -5.7568   -0.7715   -1.2704 H   0  0  0  0  0  0  0  0  0  0  0  0
   -3.2124   -1.3578   -1.1289 N   0  0  0  0  0  0  0  0  0  0  0  0
   -1.8971   -1.8843   -0.8752 C   0  0  2  0  0  0  0  0  0  0  0  0
   -1.2676   -1.0599    0.2399 C   0  0  0  0  0  0  0  0  0  0  0  0
   -1.6270    0.0833    0.5138 O   0  0  0  0  0  0  0  0  0  0  0  0
   -1.0364   -1.8506   -2.1285 C   0  0  0  0  0  0  0  0  0  0  0  0
   -3.5631   -0.6202   -0.5206 H   0  0  0  0  0  0  0  0  0  0  0  0
   -2.0301   -2.9174   -0.5360 H   0  0  0  0  0  0  0  0  0  0  0  0
   -0.8921   -0.8236   -2.4833 H   0  0  0  0  0  0  0  0  0  0  0  0
   -0.0457   -2.2777   -1.9410 H   0  0  0  0  0  0  0  0  0  0  0  0
   -1.5052   -2.4193   -2.9387 H   0  0  0  0  0  0  0  0  0  0  0  0
   -0.2267   -1.7335    0.8672 N   0  0  0  0  0  0  0  0  0  0  0  0
    0.5363   -1.1590    1.9465 C   0  0  2  0  0  0  0  0  0  0  0  0
   -0.3414   -1.2043    3.1920 C   0  0  0  0  0  0  0  0  0  0  0  0
   -0.4923   -0.2413    3.9412 O   0  0  0  0  0  0  0  0  0  0  0  0
    0.9604    0.2757    1.6411 C   0  0  0  0  0  0  0  0  0  0  0  0
    2.0064    0.4564    0.5336 C   0  0  0  0  0  0  0  0  0  0  0  0
    2.7963   -0.5236    0.4046 O   0  5  0  0  0  0  0  0  0  0  0  0
    1.9701    1.5426   -0.1065 O   0  0  0  0  0  0  0  0  0  0  0  0
   -0.0113   -2.6869    0.5854 H   0  0  0  0  0  0  0  0  0  0  0  0
    1.4077   -1.8064    2.0961 H   0  0  0  0  0  0  0  0  0  0  0  0
    1.3501    0.7477    2.5534 H   0  0  0  0  0  0  0  0  0  0  0  0
    0.0841    0.8634    1.3377 H   0  0  0  0  0  0  0  0  0  0  0  0
   -0.9763   -2.4297    3.3386 N   0  0  0  0  0  0  0  0  0  0  0  0
   -1.8869   -2.7139    4.4232 C   0  0  2  0  0  0  0  0  0  0  0  0
   -1.7852   -4.1988    4.7459 C   0  0  0  0  0  0  0  0  0  0  0  0
   -1.3742   -5.0333    3.9422 O   0  0  0  0  0  0  0  0  0  0  0  0
   -3.3141   -2.3328    4.0617 C   0  0  0  0  0  0  0  0  0  0  0  0
   -0.8291   -3.1547    2.6426 H   0  0  0  0  0  0  0  0  0  0  0  0
   -1.5461   -2.1283    5.2840 H   0  0  0  0  0  0  0  0  0  0  0  0
   -3.6729   -2.9092    3.2012 H   0  0  0  0  0  0  0  0  0  0  0  0
   -3.9986   -2.5222    4.8951 H   0  0  0  0  0  0  0  0  0  0  0  0
   -3.3798   -1.2709    3.8010 H   0  0  0  0  0  0  0  0  0  0  0  0
   -2.2478   -4.4885    6.0219 N   0  0  0  0  0  0  0  0  0  0  0  0
   -2.2667   -5.8292    6.5587 C   0  0  0  0  0  0  0  0  0  0  0  0
   -2.5527   -3.7315    6.6267 H   0  0  0  0  0  0  0  0  0  0  0  0
   -3.2442   -6.2917    6.3571 H   0  0  0  0  0  0  0  0  0  0  0  0
   -1.4740   -6.4256    6.0833 H   0  0  0  0  0  0  0  0  0  0  0  0
   -2.0960   -5.7917    7.6447 H   0  0  0  0  0  0  0  0  0  0  0  0
  1  3  1  0  0  0  0
  1  7  1  0  0  0  0
  1  2  2  0  0  0  0
 30 31  1  0  0  0  0
 31 39  1  0  0  0  0
 31 32  2  0  0  0  0
  8  9  1  0  0  0  0
  9 17  1  0  0  0  0
  9 10  2  0  0  0  0
 18 19  1  0  0  0  0
 19 29  1  0  0  0  0
 19 20  2  0  0  0  0
 21 22  1  0  0  0  0
 22 23  1  0  0  0  0
 22 24  2  0  0  0  0
 30 33  1  0  0  0  0
  8 11  1  0  0  0  0
 39 40  1  0  0  0  0
 18 21  1  0  0  0  0
 29 30  1  0  0  0  0
  7  8  1  0  0  0  0
 17 18  1  0  0  0  0
  3  4  1  0  0  0  0
  3  5  1  0  0  0  0
  3  6  1  0  0  0  0
 33 36  1  0  0  0  0
 33 37  1  0  0  0  0
 33 38  1  0  0  0  0
 11 14  1  0  0  0  0
 11 15  1  0  0  0  0
 11 16  1  0  0  0  0
 40 42  1  0  0  0  0
 40 43  1  0  0  0  0
 40 44  1  0  0  0  0
 21 27  1  0  0  0  0
 21 28  1  0  0  0  0
 30 35  1  0  0  0  0
  8 13  1  0  0  0  0
 18 26  1  0  0  0  0
 39 41  1  0  0  0  0
  7 12  1  0  0  0  0
 29 34  1  0  0  0  0
 17 25  1  0  0  0  0
M  CHG  1  23  -1
M  END
$$$$

  -OEChem-05262214473D

 44 43  0     1  0  0  0  0  0999 V2000
   -4.0256   -1.8030   -2.1581 C   0  0  0  0  0  0  0  0  0  0  0  0
   -3.7513   -2.6782   -2.9709 O   0  0  0  0  0  0  0  0  0  0  0  0
   -5.3491   -1.1169   -2.2339 C   0  0  0  0  0  0  0  0  0  0  0  0
   -5.3223   -0.2211   -2.8750 H   0  0  0  0  0  0  0  0  0  0  0  0
   -6.1322   -1.7605   -2.6658 H   0  0  0  0  0  0  0  0  0  0  0  0
   -5.7568   -0.7715   -1.2704 H   0  0  0  0  0  0  0  0  0  0  0  0
   -3.2124   -1.3578   -1.1289 N   0  0  0  0  0  0  0  0  0  0  0  0
   -1.8971   -1.8843   -0.8752 C   0  0  2  0  0  0  0  0  0  0  0  0
   -1.2676   -1.0599    0.2399 C   0  0  0  0  0  0  0  0  0  0  0  0
   -1.6270    0.0833    0.5138 O   0  0  0  0  0  0  0  0  0  0  0  0
   -1.0364   -1.8506   -2.1285 C   0  0  0  0  0  0  0  0  0  0  0  0
   -3.5631   -0.6202   -0.5206 H   0  0  0  0  0  0  0  0  0  0  0  0
   -2.0301   -2.9174   -0.5360 H   0  0  0  0  0  0  0  0  0  0  0  0
   -0.8921   -0.8236   -2.4833 H   0  0  0  0  0  0  0  0  0  0  0  0
   -0.0457   -2.2777   -1.9410 H   0  0  0  0  0  0  0  0  0  0  0  0
   -1.5052   -2.4193   -2.9387 H   0  0  0  0  0  0  0  0  0  0  0  0
   -0.2267   -1.7335    0.8672 N   0  0  0  0  0  0  0  0  0  0  0  0
    0.5363   -1.1590    1.9465 C   0  0  2  0  0  0  0  0  0  0  0  0
   -0.3414   -1.2043    3.1920 C   0  0  0  0  0  0  0  0  0  0  0  0
   -0.7097   -0.1951    3.7896 O   0  0  0  0  0  0  0  0  0  0  0  0
    0.9604    0.2757    1.6411 C   0  0  0  0  0  0  0  0  0  0  0  0
    2.0064    0.4564    0.5336 C   0  0  0  0  0  0  0  0  0  0  0  0
    2.7963   -0.5236    0.4046 O   0  5  0  0  0  0  0  0  0  0  0  0
    1.9701    1.5426   -0.1065 O   0  0  0  0  0  0  0  0  0  0  0  0
   -0.0113   -2.6869    0.5854 H   0  0  0  0  0  0  0  0  0  0  0  0
    1.4077   -1.8064    2.0961 H   0  0  0  0  0  0  0  0  0  0  0  0
    1.3501    0.7477    2.5534 H   0  0  0  0  0  0  0  0  0  0  0  0
    0.0841    0.8634    1.3377 H   0  0  0  0  0  0  0  0  0  0  0  0
   -0.7068   -2.5009    3.5259 N   0  0  0  0  0  0  0  0  0  0  0  0
   -1.5625   -2.8078    4.6484 C   0  0  2  0  0  0  0  0  0  0  0  0
   -1.1576   -4.1728    5.1891 C   0  0  0  0  0  0  0  0  0  0  0  0
   -0.5609   -5.0108    4.5161 O   0  0  0  0  0  0  0  0  0  0  0  0
   -3.0290   -2.7959    4.2457 C   0  0  0  0  0  0  0  0  0  0  0  0
   -0.3937   -3.2732    2.9451 H   0  0  0  0  0  0  0  0  0  0  0  0
   -1.3734   -2.0423    5.4088 H   0  0  0  0  0  0  0  0  0  0  0  0
   -3.2377   -3.5563    3.4844 H   0  0  0  0  0  0  0  0  0  0  0  0
   -3.6777   -3.0005    5.1038 H   0  0  0  0  0  0  0  0  0  0  0  0
   -3.3110   -1.8227    3.8295 H   0  0  0  0  0  0  0  0  0  0  0  0
   -1.5788   -4.3616    6.4979 N   0  0  0  0  0  0  0  0  0  0  0  0
   -1.3273   -5.5811    7.2296 C   0  0  0  0  0  0  0  0  0  0  0  0
   -2.0507   -3.6054    6.9850 H   0  0  0  0  0  0  0  0  0  0  0  0
   -2.1802   -6.2650    7.1078 H   0  0  0  0  0  0  0  0  0  0  0  0
   -0.4156   -6.0595    6.8424 H   0  0  0  0  0  0  0  0  0  0  0  0
   -1.1941   -5.3477    8.2963 H   0  0  0  0  0  0  0  0  0  0  0  0
  1  3  1  0  0  0  0
  1  7  1  0  0  0  0
  1  2  2  0  0  0  0
 30 31  1  0  0  0  0
 31 39  1  0  0  0  0
 31 32  2  0  0  0  0
  8  9  1  0  0  0  0
  9 17  1  0  0  0  0
  9 10  2  0  0  0  0
 18 19  1  0  0  0  0
 19 29  1  0  0  0  0
 19 20  2  0  0  0  0
 21 22  1  0  0  0  0
 22 23  1  0  0  0  0
 22 24  2  0  0  0  0
 30 33  1  0  0  0  0
  8 11  1  0  0  0  0
 39 40  1  0  0  0  0
 18 21  1  0  0  0  0
 29 30  1  0  0  0  0
  7  8  1  0  0  0  0
 17 18  1  0  0  0  0
  3  4  1  0  0  0  0
  3  5  1  0  0  0  0
  3  6  1  0  0  0  0
 33 36  1  0  0  0  0
 33 37  1  0  0  0  0
 33 38  1  0  0  0  0
 11 14  1  0  0  0  0
 11 15  1  0  0  0  0
 11 16  1  0  0  0  0
 40 42  1  0  0  0  0
 40 43  1  0  0  0  0
 40 44  1  0  0  0  0
 21 27  1  0  0  0  0
 21 28  1  0  0  0  0
 30 35  1  0  0  0  0
  8 13  1  0  0  0  0
 18 26  1  0  0  0  0
 39 41  1  0  0  0  0
  7 12  1  0  0  0  0
 29 34  1  0  0  0  0
 17 25  1  0  0  0  0
M  CHG  1  23  -1
M  END
$$$$

  -OEChem-05262214473D

 44 43  0     1  0  0  0  0  0999 V2000
   -4.0256   -1.8030   -2.1581 C   0  0  0  0  0  0  0  0  0  0  0  0
   -3.7513   -2.6782   -2.9709 O   0  0  0  0  0  0  0  0  0  0  0  0
   -5.3491   -1.1169   -2.2339 C   0  0  0  0  0  0  0  0  0  0  0  0
   -5.3223   -0.2211   -2.8750 H   0  0  0  0  0  0  0  0  0  0  0  0
   -6.1322   -1.7605   -2.6658 H   0  0  0  0  0  0  0  0  0  0  0  0
   -5.7568   -0.7715   -1.2704 H   0  0  0  0  0  0  0  0  0  0  0  0
   -3.2124   -1.3578   -1.1289 N   0  0  0  0  0  0  0  0  0  0  0  0
   -1.8971   -1.8843   -0.8752 C   0  0  2  0  0  0  0  0  0  0  0  0
   -1.2676   -1.0599    0.2399 C   0  0  0  0  0  0  0  0  0  0  0  0
   -1.6270    0.0833    0.5138 O   0  0  0  0  0  0  0  0  0  0  0  0
   -1.0364   -1.8506   -2.1285 C   0  0  0  0  0  0  0  0  0  0  0  0
   -3.5631   -0.6202   -0.5206 H   0  0  0  0  0  0  0  0  0  0  0  0
   -2.0301   -2.9174   -0.5360 H   0  0  0  0  0  0  0  0  0  0  0  0
   -0.8921   -0.8236   -2.4833 H   0  0  0  0  0  0  0  0  0  0  0  0
   -0.0457   -2.2777   -1.9410 H   0  0  0  0  0  0  0  0  0  0  0  0
   -1.5052   -2.4193   -2.9387 H   0  0  0  0  0  0  0  0  0  0  0  0
   -0.2267   -1.7335    0.8672 N   0  0  0  0  0  0  0  0  0  0  0  0
    0.5363   -1.1590    1.9465 C   0  0  2  0  0  0  0  0  0  0  0  0
   -0.3414   -1.2043    3.1920 C   0  0  0  0  0  0  0  0  0  0  0  0
   -0.9283   -0.2190    3.6347 O   0  0  0  0  0  0  0  0  0  0  0  0
    0.9604    0.2757    1.6411 C   0  0  0  0  0  0  0  0  0  0  0  0
    2.0064    0.4564    0.5336 C   0  0  0  0  0  0  0  0  0  0  0  0
    2.7963   -0.5236    0.4046 O   0  5  0  0  0  0  0  0  0  0  0  0
    1.9701    1.5426   -0.1065 O   0  0  0  0  0  0  0  0  0  0  0  0
   -0.0113   -2.6869    0.5854 H   0  0  0  0  0  0  0  0  0  0  0  0
    1.4077   -1.8064    2.0961 H   0  0  0  0  0  0  0  0  0  0  0  0
    1.3501    0.7477    2.5534 H   0  0  0  0  0  0  0  0  0  0  0  0
    0.0841    0.8634    1.3377 H   0  0  0  0  0  0  0  0  0  0  0  0
   -0.4330   -2.4848    3.7195 N   0  0  0  0  0  0  0  0  0  0  0  0
   -1.2311   -2.7963    4.8823 C   0  0  2  0  0  0  0  0  0  0  0  0
   -0.5603   -3.9488    5.6181 C   0  0  0  0  0  0  0  0  0  0  0  0
    0.2154   -4.7315    5.0733 O   0  0  0  0  0  0  0  0  0  0  0  0
   -2.6571   -3.1555    4.4947 C   0  0  0  0  0  0  0  0  0  0  0  0
    0.0497   -3.2504    3.2584 H   0  0  0  0  0  0  0  0  0  0  0  0
   -1.2257   -1.9041    5.5179 H   0  0  0  0  0  0  0  0  0  0  0  0
   -2.6826   -4.0471    3.8577 H   0  0  0  0  0  0  0  0  0  0  0  0
   -3.2682   -3.3636    5.3792 H   0  0  0  0  0  0  0  0  0  0  0  0
   -3.1280   -2.3369    3.9397 H   0  0  0  0  0  0  0  0  0  0  0  0
   -0.9632   -4.0266    6.9439 N   0  0  0  0  0  0  0  0  0  0  0  0
   -0.4775   -5.0429    7.8480 C   0  0  0  0  0  0  0  0  0  0  0  0
   -1.5954   -3.3241    7.3161 H   0  0  0  0  0  0  0  0  0  0  0  0
   -1.1639   -5.9024    7.8371 H   0  0  0  0  0  0  0  0  0  0  0  0
    0.5234   -5.3691    7.5292 H   0  0  0  0  0  0  0  0  0  0  0  0
   -0.4219   -4.6311    8.8665 H   0  0  0  0  0  0  0  0  0  0  0  0
  1  3  1  0  0  0  0
  1  7  1  0  0  0  0
  1  2  2  0  0  0  0
 30 31  1  0  0  0  0
 31 39  1  0  0  0  0
 31 32  2  0  0  0  0
  8  9  1  0  0  0  0
  9 17  1  0  0  0  0
  9 10  2  0  0  0  0
 18 19  1  0  0  0  0
 19 29  1  0  0  0  0
 19 20  2  0  0  0  0
 21 22  1  0  0  0  0
 22 23  1  0  0  0  0
 22 24  2  0  0  0  0
 30 33  1  0  0  0  0
  8 11  1  0  0  0  0
 39 40  1  0  0  0  0
 18 21  1  0  0  0  0
 29 30  1  0  0  0  0
  7  8  1  0  0  0  0
 17 18  1  0  0  0  0
  3  4  1  0  0  0  0
  3  5  1  0  0  0  0
  3  6  1  0  0  0  0
 33 36  1  0  0  0  0
 33 37  1  0  0  0  0
 33 38  1  0  0  0  0
 11 14  1  0  0  0  0
 11 15  1  0  0  0  0
 11 16  1  0  0  0  0
 40 42  1  0  0  0  0
 40 43  1  0  0  0  0
 40 44  1  0  0  0  0
 21 27  1  0  0  0  0
 21 28  1  0  0  0  0
 30 35  1  0  0  0  0
  8 13  1  0  0  0  0
 18 26  1  0  0  0  0
 39 41  1  0  0  0  0
  7 12  1  0  0  0  0
 29 34  1  0  0  0  0
 17 25  1  0  0  0  0
M  CHG  1  23  -1
M  END
$$$$

  -OEChem-05262214473D

 44 43  0     1  0  0  0  0  0999 V2000
   -4.0256   -1.8030   -2.1581 C   0  0  0  0  0  0  0  0  0  0  0  0
   -3.7513   -2.6782   -2.9709 O   0  0  0  0  0  0  0  0  0  0  0  0
   -5.3491   -1.1169   -2.2339 C   0  0  0  0  0  0  0  0  0  0  0  0
   -5.3223   -0.2211   -2.8750 H   0  0  0  0  0  0  0  0  0  0  0  0
   -6.1322   -1.7605   -2.6658 H   0  0  0  0  0  0  0  0  0  0  0  0
   -5.7568   -0.7715   -1.2704 H   0  0  0  0  0  0  0  0  0  0  0  0
   -3.2124   -1.3578   -1.1289 N   0  0  0  0  0  0  0  0  0  0  0  0
   -1.8971   -1.8843   -0.8752 C   0  0  2  0  0  0  0  0  0  0  0  0
   -1.2676   -1.0599    0.2399 C   0  0  0  0  0  0  0  0  0  0  0  0
   -1.6270    0.0833    0.5138 O   0  0  0  0  0  0  0  0  0  0  0  0
   -1.0364   -1.8506   -2.1285 C   0  0  0  0  0  0  0  0  0  0  0  0
   -3.5631   -0.6202   -0.5206 H   0  0  0  0  0  0  0  0  0  0  0  0
   -2.0301   -2.9174   -0.5360 H   0  0  0  0  0  0  0  0  0  0  0  0
   -0.8921   -0.8236   -2.4833 H   0  0  0  0  0  0  0  0  0  0  0  0
   -0.0457   -2.2777   -1.9410 H   0  0  0  0  0  0  0  0  0  0  0  0
   -1.5052   -2.4193   -2.9387 H   0  0  0  0  0  0  0  0  0  0  0  0
   -0.2267   -1.7335    0.8672 N   0  0  0  0  0  0  0  0  0  0  0  0
    0.5363   -1.1590    1.9465 C   0  0  2  0  0  0  0  0  0  0  0  0
   -0.3414   -1.2043    3.1920 C   0  0  0  0  0  0  0  0  0  0  0  0
   -1.1332   -0.3114    3.4870 O   0  0  0  0  0  0  0  0  0  0  0  0
    0.9604    0.2757    1.6411 C   0  0  0  0  0  0  0  0  0  0  0  0
    2.0064    0.4564    0.5336 C   0  0  0  0  0  0  0  0  0  0  0  0
    2.7963   -0.5236    0.4046 O   0  5  0  0  0  0  0  0  0  0  0  0
    1.9701    1.5426   -0.1065 O   0  0  0  0  0  0  0  0  0  0  0  0
   -0.0113   -2.6869    0.5854 H   0  0  0  0  0  0  0  0  0  0  0  0
    1.4077   -1.8064    2.0961 H   0  0  0  0  0  0  0  0  0  0  0  0
    1.3501    0.7477    2.5534 H   0  0  0  0  0  0  0  0  0  0  0  0
    0.0841    0.8634    1.3377 H   0  0  0  0  0  0  0  0  0  0  0  0
   -0.1733   -2.3824    3.9061 N   0  0  0  0  0  0  0  0  0  0  0  0
   -0.9151   -2.6803    5.1092 C   0  0  2  0  0  0  0  0  0  0  0  0
   -0.0340   -3.5423    6.0037 C   0  0  0  0  0  0  0  0  0  0  0  0
    0.9020   -4.2146    5.5759 O   0  0  0  0  0  0  0  0  0  0  0  0
   -2.2237   -3.3871    4.7917 C   0  0  0  0  0  0  0  0  0  0  0  0
    0.4708   -3.0880    3.5609 H   0  0  0  0  0  0  0  0  0  0  0  0
   -1.1131   -1.7232    5.6038 H   0  0  0  0  0  0  0  0  0  0  0  0
   -2.0455   -4.3482    4.2957 H   0  0  0  0  0  0  0  0  0  0  0  0
   -2.7980   -3.5866    5.7024 H   0  0  0  0  0  0  0  0  0  0  0  0
   -2.8434   -2.7785    4.1242 H   0  0  0  0  0  0  0  0  0  0  0  0
   -0.4428   -3.5064    7.3295 N   0  0  0  0  0  0  0  0  0  0  0  0
    0.2247   -4.2511    8.3716 C   0  0  0  0  0  0  0  0  0  0  0  0
   -1.2175   -2.9067    7.5975 H   0  0  0  0  0  0  0  0  0  0  0  0
   -0.2645   -5.2285    8.4953 H   0  0  0  0  0  0  0  0  0  0  0  0
    1.2792   -4.4012    8.0969 H   0  0  0  0  0  0  0  0  0  0  0  0
    0.1681   -3.6906    9.3164 H   0  0  0  0  0  0  0  0  0  0  0  0
  1  3  1  0  0  0  0
  1  7  1  0  0  0  0
  1  2  2  0  0  0  0
 30 31  1  0  0  0  0
 31 39  1  0  0  0  0
 31 32  2  0  0  0  0
  8  9  1  0  0  0  0
  9 17  1  0  0  0  0
  9 10  2  0  0  0  0
 18 19  1  0  0  0  0
 19 29  1  0  0  0  0
 19 20  2  0  0  0  0
 21 22  1  0  0  0  0
 22 23  1  0  0  0  0
 22 24  2  0  0  0  0
 30 33  1  0  0  0  0
  8 11  1  0  0  0  0
 39 40  1  0  0  0  0
 18 21  1  0  0  0  0
 29 30  1  0  0  0  0
  7  8  1  0  0  0  0
 17 18  1  0  0  0  0
  3  4  1  0  0  0  0
  3  5  1  0  0  0  0
  3  6  1  0  0  0  0
 33 36  1  0  0  0  0
 33 37  1  0  0  0  0
 33 38  1  0  0  0  0
 11 14  1  0  0  0  0
 11 15  1  0  0  0  0
 11 16  1  0  0  0  0
 40 42  1  0  0  0  0
 40 43  1  0  0  0  0
 40 44  1  0  0  0  0
 21 27  1  0  0  0  0
 21 28  1  0  0  0  0
 30 35  1  0  0  0  0
  8 13  1  0  0  0  0
 18 26  1  0  0  0  0
 39 41  1  0  0  0  0
  7 12  1  0  0  0  0
 29 34  1  0  0  0  0
 17 25  1  0  0  0  0
M  CHG  1  23  -1
M  END
$$$$

  -OEChem-05262214473D

 44 43  0     1  0  0  0  0  0999 V2000
   -4.0256   -1.8030   -2.1581 C   0  0  0  0  0  0  0  0  0  0  0  0
   -3.7513   -2.6782   -2.9709 O   0  0  0  0  0  0  0  0  0  0  0  0
   -5.3491   -1.1169   -2.2339 C   0  0  0  0  0  0  0  0  0  0  0  0
   -5.3223   -0.2211   -2.8750 H   0  0  0  0  0  0  0  0  0  0  0  0
   -6.1322   -1.7605   -2.6658 H   0  0  0  0  0  0  0  0  0  0  0  0
   -5.7568   -0.7715   -1.2704 H   0  0  0  0  0  0  0  0  0  0  0  0
   -3.2124   -1.3578   -1.1289 N   0  0  0  0  0  0  0  0  0  0  0  0
   -1.8971   -1.8843   -0.8752 C   0  0  2  0  0  0  0  0  0  0  0  0
   -1.2676   -1.0599    0.2399 C   0  0  0  0  0  0  0  0  0  0  0  0
   -1.6270    0.0833    0.5138 O   0  0  0  0  0  0  0  0  0  0  0  0
   -1.0364   -1.8506   -2.1285 C   0  0  0  0  0  0  0  0  0  0  0  0
   -3.5631   -0.6202   -0.5206 H   0  0  0  0  0  0  0  0  0  0  0  0
   -2.0301   -2.9174   -0.5360 H   0  0  0  0  0  0  0  0  0  0  0  0
   -0.8921   -0.8236   -2.4833 H   0  0  0  0  0  0  0  0  0  0  0  0
   -0.0457   -2.2777   -1.9410 H   0  0  0  0  0  0  0  0  0  0  0  0
   -1.5052   -2.4193   -2.9387 H   0  0  0  0  0  0  0  0  0  0  0  0
   -0.2267   -1.7335    0.8672 N   0  0  0  0  0  0  0  0  0  0  0  0
    0.5363   -1.1590    1.9465 C   0  0  2  0  0  0  0  0  0  0  0  0
   -0.3414   -1.2043    3.1920 C   0  0  0  0  0  0  0  0  0  0  0  0
   -1.3105   -0.4660    3.3565 O   0  0  0  0  0  0  0  0  0  0  0  0
    0.9604    0.2757    1.6411 C   0  0  0  0  0  0  0  0  0  0  0  0
    2.0064    0.4564    0.5336 C   0  0  0  0  0  0  0  0  0  0  0  0
    2.7963   -0.5236    0.4046 O   0  5  0  0  0  0  0  0  0  0  0  0
    1.9701    1.5426   -0.1065 O   0  0  0  0  0  0  0  0  0  0  0  0
   -0.0113   -2.6869    0.5854 H   0  0  0  0  0  0  0  0  0  0  0  0
    1.4077   -1.8064    2.0961 H   0  0  0  0  0  0  0  0  0  0  0  0
    1.3501    0.7477    2.5534 H   0  0  0  0  0  0  0  0  0  0  0  0
    0.0841    0.8634    1.3377 H   0  0  0  0  0  0  0  0  0  0  0  0
    0.0544   -2.2009    4.0732 N   0  0  0  0  0  0  0  0  0  0  0  0
   -0.6362   -2.4676    5.3134 C   0  0  2  0  0  0  0  0  0  0  0  0
    0.3854   -2.9809    6.3196 C   0  0  0  0  0  0  0  0  0  0  0  0
    1.4520   -3.4951    5.9896 O   0  0  0  0  0  0  0  0  0  0  0  0
   -1.7584   -3.4749    5.1164 C   0  0  0  0  0  0  0  0  0  0  0  0
    0.8408   -2.7970    3.8322 H   0  0  0  0  0  0  0  0  0  0  0  0
   -1.0433   -1.5117    5.6607 H   0  0  0  0  0  0  0  0  0  0  0  0
   -1.3699   -4.4390    4.7685 H   0  0  0  0  0  0  0  0  0  0  0  0
   -2.2992   -3.6544    6.0514 H   0  0  0  0  0  0  0  0  0  0  0  0
   -2.4765   -3.1173    4.3705 H   0  0  0  0  0  0  0  0  0  0  0  0
   -0.0531   -2.8364    7.6284 N   0  0  0  0  0  0  0  0  0  0  0  0
    0.7316   -3.2598    8.7647 C   0  0  0  0  0  0  0  0  0  0  0  0
   -0.9430   -2.3817    7.8100 H   0  0  0  0  0  0  0  0  0  0  0  0
    0.4567   -4.2893    9.0376 H   0  0  0  0  0  0  0  0  0  0  0  0
    1.8002   -3.2218    8.5068 H   0  0  0  0  0  0  0  0  0  0  0  0
    0.5356   -2.5904    9.6153 H   0  0  0  0  0  0  0  0  0  0  0  0
  1  3  1  0  0  0  0
  1  7  1  0  0  0  0
  1  2  2  0  0  0  0
 30 31  1  0  0  0  0
 31 39  1  0  0  0  0
 31 32  2  0  0  0  0
  8  9  1  0  0  0  0
  9 17  1  0  0  0  0
  9 10  2  0  0  0  0
 18 19  1  0  0  0  0
 19 29  1  0  0  0  0
 19 20  2  0  0  0  0
 21 22  1  0  0  0  0
 22 23  1  0  0  0  0
 22 24  2  0  0  0  0
 30 33  1  0  0  0  0
  8 11  1  0  0  0  0
 39 40  1  0  0  0  0
 18 21  1  0  0  0  0
 29 30  1  0  0  0  0
  7  8  1  0  0  0  0
 17 18  1  0  0  0  0
  3  4  1  0  0  0  0
  3  5  1  0  0  0  0
  3  6  1  0  0  0  0
 33 36  1  0  0  0  0
 33 37  1  0  0  0  0
 33 38  1  0  0  0  0
 11 14  1  0  0  0  0
 11 15  1  0  0  0  0
 11 16  1  0  0  0  0
 40 42  1  0  0  0  0
 40 43  1  0  0  0  0
 40 44  1  0  0  0  0
 21 27  1  0  0  0  0
 21 28  1  0  0  0  0
 30 35  1  0  0  0  0
  8 13  1  0  0  0  0
 18 26  1  0  0  0  0
 39 41  1  0  0  0  0
  7 12  1  0  0  0  0
 29 34  1  0  0  0  0
 17 25  1  0  0  0  0
M  CHG  1  23  -1
M  END
$$$$

  -OEChem-05262214473D

 44 43  0     1  0  0  0  0  0999 V2000
   -4.0256   -1.8030   -2.1581 C   0  0  0  0  0  0  0  0  0  0  0  0
   -3.7513   -2.6782   -2.9709 O   0  0  0  0  0  0  0  0  0  0  0  0
   -5.3491   -1.1169   -2.2339 C   0  0  0  0  0  0  0  0  0  0  0  0
   -5.3223   -0.2211   -2.8750 H   0  0  0  0  0  0  0  0  0  0  0  0
   -6.1322   -1.7605   -2.6658 H   0  0  0  0  0  0  0  0  0  0  0  0
   -5.7568   -0.7715   -1.2704 H   0  0  0  0  0  0  0  0  0  0  0  0
   -3.2124   -1.3578   -1.1289 N   0  0  0  0  0  0  0  0  0  0  0  0
   -1.8971   -1.8843   -0.8752 C   0  0  2  0  0  0  0  0  0  0  0  0
   -1.2676   -1.0599    0.2399 C   0  0  0  0  0  0  0  0  0  0  0  0
   -1.6270    0.0833    0.5138 O   0  0  0  0  0  0  0  0  0  0  0  0
   -1.0364   -1.8506   -2.1285 C   0  0  0  0  0  0  0  0  0  0  0  0
   -3.5631   -0.6202   -0.5206 H   0  0  0  0  0  0  0  0  0  0  0  0
   -2.0301   -2.9174   -0.5360 H   0  0  0  0  0  0  0  0  0  0  0  0
   -0.8921   -0.8236   -2.4833 H   0  0  0  0  0  0  0  0  0  0  0  0
   -0.0457   -2.2777   -1.9410 H   0  0  0  0  0  0  0  0  0  0  0  0
   -1.5052   -2.4193   -2.9387 H   0  0  0  0  0  0  0  0  0  0  0  0
   -0.2267   -1.7335    0.8672 N   0  0  0  0  0  0  0  0  0  0  0  0
    0.5363   -1.1590    1.9465 C   0  0  2  0  0  0  0  0  0  0  0  0
   -0.3414   -1.2043    3.1920 C   0  0  0  0  0  0  0  0  0  0  0  0
   -1.4480   -0.6722    3.2521 O   0  0  0  0  0  0  0  0  0  0  0  0
    0.9604    0.2757    1.6411 C   0  0  0  0  0  0  0  0  0  0  0  0
    2.0064    0.4564    0.5336 C   0  0  0  0  0  0  0  0  0  0  0  0
    2.7963   -0.5236    0.4046 O   0  5  0  0  0  0  0  0  0  0  0  0
    1.9701    1.5426   -0.1065 O   0  0  0  0  0  0  0  0  0  0  0  0
   -0.0113   -2.6869    0.5854 H   0  0  0  0  0  0  0  0  0  0  0  0
    1.4077   -1.8064    2.0961 H   0  0  0  0  0  0  0  0  0  0  0  0
    1.3501    0.7477    2.5534 H   0  0  0  0  0  0  0  0  0  0  0  0
    0.0841    0.8634    1.3377 H   0  0  0  0  0  0  0  0  0  0  0  0
    0.2346   -1.9525    4.2092 N   0  0  0  0  0  0  0  0  0  0  0  0
   -0.4134   -2.1728    5.4812 C   0  0  2  0  0  0  0  0  0  0  0  0
    0.6694   -2.3028    6.5443 C   0  0  0  0  0  0  0  0  0  0  0  0
    1.8280   -2.6223    6.2862 O   0  0  0  0  0  0  0  0  0  0  0  0
   -1.2929   -3.4129    5.4466 C   0  0  0  0  0  0  0  0  0  0  0  0
    1.1346   -2.3972    4.0538 H   0  0  0  0  0  0  0  0  0  0  0  0
   -1.0210   -1.2843    5.6847 H   0  0  0  0  0  0  0  0  0  0  0  0
   -0.7016   -4.3133    5.2439 H   0  0  0  0  0  0  0  0  0  0  0  0
   -1.8056   -3.5625    6.4025 H   0  0  0  0  0  0  0  0  0  0  0  0
   -2.0524   -3.3303    4.6616 H   0  0  0  0  0  0  0  0  0  0  0  0
    0.1794   -2.0623    7.8204 N   0  0  0  0  0  0  0  0  0  0  0  0
    1.0085   -2.1365    9.0007 C   0  0  0  0  0  0  0  0  0  0  0  0
   -0.7905   -1.7848    7.9391 H   0  0  0  0  0  0  0  0  0  0  0  0
    0.9505   -3.1488    9.4270 H   0  0  0  0  0  0  0  0  0  0  0  0
    2.0509   -1.9114    8.7311 H   0  0  0  0  0  0  0  0  0  0  0  0
    0.6557   -1.4054    9.7430 H   0  0  0  0  0  0  0  0  0  0  0  0
  1  3  1  0  0  0  0
  1  7  1  0  0  0  0
  1  2  2  0  0  0  0
 30 31  1  0  0  0  0
 31 39  1  0  0  0  0
 31 32  2  0  0  0  0
  8  9  1  0  0  0  0
  9 17  1  0  0  0  0
  9 10  2  0  0  0  0
 18 19  1  0  0  0  0
 19 29  1  0  0  0  0
 19 20  2  0  0  0  0
 21 22  1  0  0  0  0
 22 23  1  0  0  0  0
 22 24  2  0  0  0  0
 30 33  1  0  0  0  0
  8 11  1  0  0  0  0
 39 40  1  0  0  0  0
 18 21  1  0  0  0  0
 29 30  1  0  0  0  0
  7  8  1  0  0  0  0
 17 18  1  0  0  0  0
  3  4  1  0  0  0  0
  3  5  1  0  0  0  0
  3  6  1  0  0  0  0
 33 36  1  0  0  0  0
 33 37  1  0  0  0  0
 33 38  1  0  0  0  0
 11 14  1  0  0  0  0
 11 15  1  0  0  0  0
 11 16  1  0  0  0  0
 40 42  1  0  0  0  0
 40 43  1  0  0  0  0
 40 44  1  0  0  0  0
 21 27  1  0  0  0  0
 21 28  1  0  0  0  0
 30 35  1  0  0  0  0
  8 13  1  0  0  0  0
 18 26  1  0  0  0  0
 39 41  1  0  0  0  0
  7 12  1  0  0  0  0
 29 34  1  0  0  0  0
 17 25  1  0  0  0  0
M  CHG  1  23  -1
M  END
$$$$

  -OEChem-05262214473D

 44 43  0     1  0  0  0  0  0999 V2000
   -4.0256   -1.8030   -2.1581 C   0  0  0  0  0  0  0  0  0  0  0  0
   -3.7513   -2.6782   -2.9709 O   0  0  0  0  0  0  0  0  0  0  0  0
   -5.3491   -1.1169   -2.2339 C   0  0  0  0  0  0  0  0  0  0  0  0
   -5.3223   -0.2211   -2.8750 H   0  0  0  0  0  0  0  0  0  0  0  0
   -6.1322   -1.7605   -2.6658 H   0  0  0  0  0  0  0  0  0  0  0  0
   -5.7568   -0.7715   -1.2704 H   0  0  0  0  0  0  0  0  0  0  0  0
   -3.2124   -1.3578   -1.1289 N   0  0  0  0  0  0  0  0  0  0  0  0
   -1.8971   -1.8843   -0.8752 C   0  0  2  0  0  0  0  0  0  0  0  0
   -1.2676   -1.0599    0.2399 C   0  0  0  0  0  0  0  0  0  0  0  0
   -1.6270    0.0833    0.5138 O   0  0  0  0  0  0  0  0  0  0  0  0
   -1.0364   -1.8506   -2.1285 C   0  0  0  0  0  0  0  0  0  0  0  0
   -3.5631   -0.6202   -0.5206 H   0  0  0  0  0  0  0  0  0  0  0  0
   -2.0301   -2.9174   -0.5360 H   0  0  0  0  0  0  0  0  0  0  0  0
   -0.8921   -0.8236   -2.4833 H   0  0  0  0  0  0  0  0  0  0  0  0
   -0.0457   -2.2777   -1.9410 H   0  0  0  0  0  0  0  0  0  0  0  0
   -1.5052   -2.4193   -2.9387 H   0  0  0  0  0  0  0  0  0  0  0  0
   -0.2267   -1.7335    0.8672 N   0  0  0  0  0  0  0  0  0  0  0  0
    0.5363   -1.1590    1.9465 C   0  0  2  0  0  0  0  0  0  0  0  0
   -0.3414   -1.2043    3.1920 C   0  0  0  0  0  0  0  0  0  0  0  0
   -1.5364   -0.9161    3.1809 O   0  0  0  0  0  0  0  0  0  0  0  0
    0.9604    0.2757    1.6411 C   0  0  0  0  0  0  0  0  0  0  0  0
    2.0064    0.4564    0.5336 C   0  0  0  0  0  0  0  0  0  0  0  0
    2.7963   -0.5236    0.4046 O   0  5  0  0  0  0  0  0  0  0  0  0
    1.9701    1.5426   -0.1065 O   0  0  0  0  0  0  0  0  0  0  0  0
   -0.0113   -2.6869    0.5854 H   0  0  0  0  0  0  0  0  0  0  0  0
    1.4077   -1.8064    2.0961 H   0  0  0  0  0  0  0  0  0  0  0  0
    1.3501    0.7477    2.5534 H   0  0  0  0  0  0  0  0  0  0  0  0
    0.0841    0.8634    1.3377 H   0  0  0  0  0  0  0  0  0  0  0  0
    0.3552   -1.6541    4.3050 N   0  0  0  0  0  0  0  0  0  0  0  0
   -0.2618   -1.8159    5.6010 C   0  0  2  0  0  0  0  0  0  0  0  0
    0.7985   -1.5543    6.6625 C   0  0  0  0  0  0  0  0  0  0  0  0
    2.0042   -1.6554    6.4455 O   0  0  0  0  0  0  0  0  0  0  0  0
   -0.8589   -3.2054    5.7600 C   0  0  0  0  0  0  0  0  0  0  0  0
    1.3321   -1.9159    4.2105 H   0  0  0  0  0  0  0  0  0  0  0  0
   -1.0477   -1.0563    5.6741 H   0  0  0  0  0  0  0  0  0  0  0  0
   -0.0864   -3.9798    5.6896 H   0  0  0  0  0  0  0  0  0  0  0  0
   -1.3511   -3.3169    6.7318 H   0  0  0  0  0  0  0  0  0  0  0  0
   -1.5998   -3.4030    4.9778 H   0  0  0  0  0  0  0  0  0  0  0  0
    0.2387   -1.2367    7.8922 N   0  0  0  0  0  0  0  0  0  0  0  0
    1.0366   -0.9577    9.0633 C   0  0  0  0  0  0  0  0  0  0  0  0
   -0.7704   -1.1568    7.9761 H   0  0  0  0  0  0  0  0  0  0  0  0
    1.1834   -1.8847    9.6370 H   0  0  0  0  0  0  0  0  0  0  0  0
    2.0142   -0.5592    8.7543 H   0  0  0  0  0  0  0  0  0  0  0  0
    0.5200   -0.2163    9.6906 H   0  0  0  0  0  0  0  0  0  0  0  0
  1  3  1  0  0  0  0
  1  7  1  0  0  0  0
  1  2  2  0  0  0  0
 30 31  1  0  0  0  0
 31 39  1  0  0  0  0
 31 32  2  0  0  0  0
  8  9  1  0  0  0  0
  9 17  1  0  0  0  0
  9 10  2  0  0  0  0
 18 19  1  0  0  0  0
 19 29  1  0  0  0  0
 19 20  2  0  0  0  0
 21 22  1  0  0  0  0
 22 23  1  0  0  0  0
 22 24  2  0  0  0  0
 30 33  1  0  0  0  0
  8 11  1  0  0  0  0
 39 40  1  0  0  0  0
 18 21  1  0  0  0  0
 29 30  1  0  0  0  0
  7  8  1  0  0  0  0
 17 18  1  0  0  0  0
  3  4  1  0  0  0  0
  3  5  1  0  0  0  0
  3  6  1  0  0  0  0
 33 36  1  0  0  0  0
 33 37  1  0  0  0  0
 33 38  1  0  0  0  0
 11 14  1  0  0  0  0
 11 15  1  0  0  0  0
 11 16  1  0  0  0  0
 40 42  1  0  0  0  0
 40 43  1  0  0  0  0
 40 44  1  0  0  0  0
 21 27  1  0  0  0  0
 21 28  1  0  0  0  0
 30 35  1  0  0  0  0
  8 13  1  0  0  0  0
 18 26  1  0  0  0  0
 39 41  1  0  0  0  0
  7 12  1  0  0  0  0
 29 34  1  0  0  0  0
 17 25  1  0  0  0  0
M  CHG  1  23  -1
M  END
$$$$

  -OEChem-05262214473D

 44 43  0     1  0  0  0  0  0999 V2000
   -4.0256   -1.8030   -2.1581 C   0  0  0  0  0  0  0  0  0  0  0  0
   -3.7513   -2.6782   -2.9709 O   0  0  0  0  0  0  0  0  0  0  0  0
   -5.3491   -1.1169   -2.2339 C   0  0  0  0  0  0  0  0  0  0  0  0
   -5.3223   -0.2211   -2.8750 H   0  0  0  0  0  0  0  0  0  0  0  0
   -6.1322   -1.7605   -2.6658 H   0  0  0  0  0  0  0  0  0  0  0  0
   -5.7568   -0.7715   -1.2704 H   0  0  0  0  0  0  0  0  0  0  0  0
   -3.2124   -1.3578   -1.1289 N   0  0  0  0  0  0  0  0  0  0  0  0
   -1.8971   -1.8843   -0.8752 C   0  0  2  0  0  0  0  0  0  0  0  0
   -1.2676   -1.0599    0.2399 C   0  0  0  0  0  0  0  0  0  0  0  0
   -1.6270    0.0833    0.5138 O   0  0  0  0  0  0  0  0  0  0  0  0
   -1.0364   -1.8506   -2.1285 C   0  0  0  0  0  0  0  0  0  0  0  0
   -3.5631   -0.6202   -0.5206 H   0  0  0  0  0  0  0  0  0  0  0  0
   -2.0301   -2.9174   -0.5360 H   0  0  0  0  0  0  0  0  0  0  0  0
   -0.8921   -0.8236   -2.4833 H   0  0  0  0  0  0  0  0  0  0  0  0
   -0.0457   -2.2777   -1.9410 H   0  0  0  0  0  0  0  0  0  0  0  0
   -1.5052   -2.4193   -2.9387 H   0  0  0  0  0  0  0  0  0  0  0  0
   -0.2267   -1.7335    0.8672 N   0  0  0  0  0  0  0  0  0  0  0  0
    0.5363   -1.1590    1.9465 C   0  0  2  0  0  0  0  0  0  0  0  0
   -0.3414   -1.2043    3.1920 C   0  0  0  0  0  0  0  0  0  0  0  0
   -1.5697   -1.1810    3.1478 O   0  0  0  0  0  0  0  0  0  0  0  0
    0.9604    0.2757    1.6411 C   0  0  0  0  0  0  0  0  0  0  0  0
    2.0064    0.4564    0.5336 C   0  0  0  0  0  0  0  0  0  0  0  0
    2.7963   -0.5236    0.4046 O   0  5  0  0  0  0  0  0  0  0  0  0
    1.9701    1.5426   -0.1065 O   0  0  0  0  0  0  0  0  0  0  0  0
   -0.0113   -2.6869    0.5854 H   0  0  0  0  0  0  0  0  0  0  0  0
    1.4077   -1.8064    2.0961 H   0  0  0  0  0  0  0  0  0  0  0  0
    1.3501    0.7477    2.5534 H   0  0  0  0  0  0  0  0  0  0  0  0
    0.0841    0.8634    1.3377 H   0  0  0  0  0  0  0  0  0  0  0  0
    0.4078   -1.3261    4.3540 N   0  0  0  0  0  0  0  0  0  0  0  0
   -0.1917   -1.4212    5.6647 C   0  0  2  0  0  0  0  0  0  0  0  0
    0.7641   -0.7864    6.6662 C   0  0  0  0  0  0  0  0  0  0  0  0
    1.9688   -0.6605    6.4567 O   0  0  0  0  0  0  0  0  0  0  0  0
   -0.4860   -2.8665    6.0351 C   0  0  0  0  0  0  0  0  0  0  0  0
    1.4199   -1.3859    4.2916 H   0  0  0  0  0  0  0  0  0  0  0  0
   -1.1217   -0.8433    5.6297 H   0  0  0  0  0  0  0  0  0  0  0  0
    0.4339   -3.4611    6.0750 H   0  0  0  0  0  0  0  0  0  0  0  0
   -0.9665   -2.9346    7.0167 H   0  0  0  0  0  0  0  0  0  0  0  0
   -1.1498   -3.3304    5.2976 H   0  0  0  0  0  0  0  0  0  0  0  0
    0.1209   -0.4161    7.8390 N   0  0  0  0  0  0  0  0  0  0  0  0
    0.8140    0.1962    8.9483 C   0  0  0  0  0  0  0  0  0  0  0  0
   -0.8841   -0.5405    7.9184 H   0  0  0  0  0  0  0  0  0  0  0  0
    1.1393   -0.5831    9.6532 H   0  0  0  0  0  0  0  0  0  0  0  0
    1.6926    0.7427    8.5750 H   0  0  0  0  0  0  0  0  0  0  0  0
    0.1380    0.8958    9.4618 H   0  0  0  0  0  0  0  0  0  0  0  0
  1  3  1  0  0  0  0
  1  7  1  0  0  0  0
  1  2  2  0  0  0  0
 30 31  1  0  0  0  0
 31 39  1  0  0  0  0
 31 32  2  0  0  0  0
  8  9  1  0  0  0  0
  9 17  1  0  0  0  0
  9 10  2  0  0  0  0
 18 19  1  0  0  0  0
 19 29  1  0  0  0  0
 19 20  2  0  0  0  0
 21 22  1  0  0  0  0
 22 23  1  0  0  0  0
 22 24  2  0  0  0  0
 30 33  1  0  0  0  0
  8 11  1  0  0  0  0
 39 40  1  0  0  0  0
 18 21  1  0  0  0  0
 29 30  1  0  0  0  0
  7  8  1  0  0  0  0
 17 18  1  0  0  0  0
  3  4  1  0  0  0  0
  3  5  1  0  0  0  0
  3  6  1  0  0  0  0
 33 36  1  0  0  0  0
 33 37  1  0  0  0  0
 33 38  1  0  0  0  0
 11 14  1  0  0  0  0
 11 15  1  0  0  0  0
 11 16  1  0  0  0  0
 40 42  1  0  0  0  0
 40 43  1  0  0  0  0
 40 44  1  0  0  0  0
 21 27  1  0  0  0  0
 21 28  1  0  0  0  0
 30 35  1  0  0  0  0
  8 13  1  0  0  0  0
 18 26  1  0  0  0  0
 39 41  1  0  0  0  0
  7 12  1  0  0  0  0
 29 34  1  0  0  0  0
 17 25  1  0  0  0  0
M  CHG  1  23  -1
M  END
$$$$

  -OEChem-05262214473D

 44 43  0     1  0  0  0  0  0999 V2000
   -4.0256   -1.8030   -2.1581 C   0  0  0  0  0  0  0  0  0  0  0  0
   -3.7513   -2.6782   -2.9709 O   0  0  0  0  0  0  0  0  0  0  0  0
   -5.3491   -1.1169   -2.2339 C   0  0  0  0  0  0  0  0  0  0  0  0
   -5.3223   -0.2211   -2.8750 H   0  0  0  0  0  0  0  0  0  0  0  0
   -6.1322   -1.7605   -2.6658 H   0  0  0  0  0  0  0  0  0  0  0  0
   -5.7568   -0.7715   -1.2704 H   0  0  0  0  0  0  0  0  0  0  0  0
   -3.2124   -1.3578   -1.1289 N   0  0  0  0  0  0  0  0  0  0  0  0
   -1.8971   -1.8843   -0.8752 C   0  0  2  0  0  0  0  0  0  0  0  0
   -1.2676   -1.0599    0.2399 C   0  0  0  0  0  0  0  0  0  0  0  0
   -1.6270    0.0833    0.5138 O   0  0  0  0  0  0  0  0  0  0  0  0
   -1.0364   -1.8506   -2.1285 C   0  0  0  0  0  0  0  0  0  0  0  0
   -3.5631   -0.6202   -0.5206 H   0  0  0  0  0  0  0  0  0  0  0  0
   -2.0301   -2.9174   -0.5360 H   0  0  0  0  0  0  0  0  0  0  0  0
   -0.8921   -0.8236   -2.4833 H   0  0  0  0  0  0  0  0  0  0  0  0
   -0.0457   -2.2777   -1.9410 H   0  0  0  0  0  0  0  0  0  0  0  0
   -1.5052   -2.4193   -2.9387 H   0  0  0  0  0  0  0  0  0  0  0  0
   -0.2267   -1.7335    0.8672 N   0  0  0  0  0  0  0  0  0  0  0  0
    0.5363   -1.1590    1.9465 C   0  0  2  0  0  0  0  0  0  0  0  0
   -0.3414   -1.2043    3.1920 C   0  0  0  0  0  0  0  0  0  0  0  0
   -1.5456   -1.4488    3.1551 O   0  0  0  0  0  0  0  0  0  0  0  0
    0.9604    0.2757    1.6411 C   0  0  0  0  0  0  0  0  0  0  0  0
    2.0064    0.4564    0.5336 C   0  0  0  0  0  0  0  0  0  0  0  0
    2.7963   -0.5236    0.4046 O   0  5  0  0  0  0  0  0  0  0  0  0
    1.9701    1.5426   -0.1065 O   0  0  0  0  0  0  0  0  0  0  0  0
   -0.0113   -2.6869    0.5854 H   0  0  0  0  0  0  0  0  0  0  0  0
    1.4077   -1.8064    2.0961 H   0  0  0  0  0  0  0  0  0  0  0  0
    1.3501    0.7477    2.5534 H   0  0  0  0  0  0  0  0  0  0  0  0
    0.0841    0.8634    1.3377 H   0  0  0  0  0  0  0  0  0  0  0  0
    0.3889   -0.9909    4.3528 N   0  0  0  0  0  0  0  0  0  0  0  0
   -0.2080   -1.0156    5.6679 C   0  0  2  0  0  0  0  0  0  0  0  0
    0.5684   -0.0513    6.5550 C   0  0  0  0  0  0  0  0  0  0  0  0
    1.7241    0.2947    6.3190 O   0  0  0  0  0  0  0  0  0  0  0  0
   -0.1996   -2.4192    6.2531 C   0  0  0  0  0  0  0  0  0  0  0  0
    1.3920   -0.8432    4.2916 H   0  0  0  0  0  0  0  0  0  0  0  0
   -1.2379   -0.6598    5.5545 H   0  0  0  0  0  0  0  0  0  0  0  0
    0.8239   -2.7926    6.3741 H   0  0  0  0  0  0  0  0  0  0  0  0
   -0.6780   -2.4414    7.2379 H   0  0  0  0  0  0  0  0  0  0  0  0
   -0.7329   -3.1174    5.5990 H   0  0  0  0  0  0  0  0  0  0  0  0
   -0.1660    0.3437    7.6644 N   0  0  0  0  0  0  0  0  0  0  0  0
    0.3558    1.2465    8.6637 C   0  0  0  0  0  0  0  0  0  0  0  0
   -1.1237    0.0222    7.7699 H   0  0  0  0  0  0  0  0  0  0  0  0
    0.8214    0.6672    9.4746 H   0  0  0  0  0  0  0  0  0  0  0  0
    1.1080    1.9054    8.2053 H   0  0  0  0  0  0  0  0  0  0  0  0
   -0.4645    1.8550    9.0721 H   0  0  0  0  0  0  0  0  0  0  0  0
  1  3  1  0  0  0  0
  1  7  1  0  0  0  0
  1  2  2  0  0  0  0
 30 31  1  0  0  0  0
 31 39  1  0  0  0  0
 31 32  2  0  0  0  0
  8  9  1  0  0  0  0
  9 17  1  0  0  0  0
  9 10  2  0  0  0  0
 18 19  1  0  0  0  0
 19 29  1  0  0  0  0
 19 20  2  0  0  0  0
 21 22  1  0  0  0  0
 22 23  1  0  0  0  0
 22 24  2  0  0  0  0
 30 33  1  0  0  0  0
  8 11  1  0  0  0  0
 39 40  1  0  0  0  0
 18 21  1  0  0  0  0
 29 30  1  0  0  0  0
  7  8  1  0  0  0  0
 17 18  1  0  0  0  0
  3  4  1  0  0  0  0
  3  5  1  0  0  0  0
  3  6  1  0  0  0  0
 33 36  1  0  0  0  0
 33 37  1  0  0  0  0
 33 38  1  0  0  0  0
 11 14  1  0  0  0  0
 11 15  1  0  0  0  0
 11 16  1  0  0  0  0
 40 42  1  0  0  0  0
 40 43  1  0  0  0  0
 40 44  1  0  0  0  0
 21 27  1  0  0  0  0
 21 28  1  0  0  0  0
 30 35  1  0  0  0  0
  8 13  1  0  0  0  0
 18 26  1  0  0  0  0
 39 41  1  0  0  0  0
  7 12  1  0  0  0  0
 29 34  1  0  0  0  0
 17 25  1  0  0  0  0
M  CHG  1  23  -1
M  END
$$$$

  -OEChem-05262214473D

 44 43  0     1  0  0  0  0  0999 V2000
   -4.0256   -1.8030   -2.1581 C   0  0  0  0  0  0  0  0  0  0  0  0
   -3.7513   -2.6782   -2.9709 O   0  0  0  0  0  0  0  0  0  0  0  0
   -5.3491   -1.1169   -2.2339 C   0  0  0  0  0  0  0  0  0  0  0  0
   -5.3223   -0.2211   -2.8750 H   0  0  0  0  0  0  0  0  0  0  0  0
   -6.1322   -1.7605   -2.6658 H   0  0  0  0  0  0  0  0  0  0  0  0
   -5.7568   -0.7715   -1.2704 H   0  0  0  0  0  0  0  0  0  0  0  0
   -3.2124   -1.3578   -1.1289 N   0  0  0  0  0  0  0  0  0  0  0  0
   -1.8971   -1.8843   -0.8752 C   0  0  2  0  0  0  0  0  0  0  0  0
   -1.2676   -1.0599    0.2399 C   0  0  0  0  0  0  0  0  0  0  0  0
   -1.6270    0.0833    0.5138 O   0  0  0  0  0  0  0  0  0  0  0  0
   -1.0364   -1.8506   -2.1285 C   0  0  0  0  0  0  0  0  0  0  0  0
   -3.5631   -0.6202   -0.5206 H   0  0  0  0  0  0  0  0  0  0  0  0
   -2.0301   -2.9174   -0.5360 H   0  0  0  0  0  0  0  0  0  0  0  0
   -0.8921   -0.8236   -2.4833 H   0  0  0  0  0  0  0  0  0  0  0  0
   -0.0457   -2.2777   -1.9410 H   0  0  0  0  0  0  0  0  0  0  0  0
   -1.5052   -2.4193   -2.9387 H   0  0  0  0  0  0  0  0  0  0  0  0
   -0.2267   -1.7335    0.8672 N   0  0  0  0  0  0  0  0  0  0  0  0
    0.5363   -1.1590    1.9465 C   0  0  2  0  0  0  0  0  0  0  0  0
   -0.1661   -1.5374    3.2454 C   0  0  0  0  0  0  0  0  0  0  0  0
   -1.1688   -2.2475    3.2831 O   0  0  0  0  0  0  0  0  0  0  0  0
    0.6466    0.3586    1.8188 C   0  0  0  0  0  0  0  0  0  0  0  0
    1.5040    0.8848    0.6606 C   0  0  0  0  0  0  0  0  0  0  0  0
    2.4423    0.1081    0.3186 O   0  5  0  0  0  0  0  0  0  0  0  0
    1.1912    2.0138    0.1933 O   0  0  0  0  0  0  0  0  0  0  0  0
   -0.0113   -2.6869    0.5854 H   0  0  0  0  0  0  0  0  0  0  0  0
    1.5247   -1.6316    1.9204 H   0  0  0  0  0  0  0  0  0  0  0  0
    1.0451    0.7797    2.7519 H   0  0  0  0  0  0  0  0  0  0  0  0
   -0.3533    0.7917    1.6851 H   0  0  0  0  0  0  0  0  0  0  0  0
    0.4893   -1.0316    4.3594 N   0  0  0  0  0  0  0  0  0  0  0  0
    0.0394   -1.2769    5.7099 C   0  0  2  0  0  0  0  0  0  0  0  0
    0.4163   -0.0692    6.5578 C   0  0  0  0  0  0  0  0  0  0  0  0
    1.3162    0.7104    6.2523 O   0  0  0  0  0  0  0  0  0  0  0  0
    0.6513   -2.5496    6.2743 C   0  0  0  0  0  0  0  0  0  0  0  0
    1.3413   -0.4926    4.2355 H   0  0  0  0  0  0  0  0  0  0  0  0
   -1.0514   -1.3685    5.6681 H   0  0  0  0  0  0  0  0  0  0  0  0
    1.7438   -2.4766    6.3238 H   0  0  0  0  0  0  0  0  0  0  0  0
    0.2871   -2.7494    7.2875 H   0  0  0  0  0  0  0  0  0  0  0  0
    0.4039   -3.4125    5.6467 H   0  0  0  0  0  0  0  0  0  0  0  0
   -0.3418    0.0112    7.7176 N   0  0  0  0  0  0  0  0  0  0  0  0
   -0.1653    1.0615    8.6931 C   0  0  0  0  0  0  0  0  0  0  0  0
   -1.0794   -0.6679    7.8805 H   0  0  0  0  0  0  0  0  0  0  0  0
    0.5458    0.7305    9.4644 H   0  0  0  0  0  0  0  0  0  0  0  0
    0.2258    1.9615    8.1961 H   0  0  0  0  0  0  0  0  0  0  0  0
   -1.1331    1.2928    9.1619 H   0  0  0  0  0  0  0  0  0  0  0  0
  1  3  1  0  0  0  0
  1  7  1  0  0  0  0
  1  2  2  0  0  0  0
 30 31  1  0  0  0  0
 31 39  1  0  0  0  0
 31 32  2  0  0  0  0
  8  9  1  0  0  0  0
  9 17  1  0  0  0  0
  9 10  2  0  0  0  0
 18 19  1  0  0  0  0
 19 29  1  0  0  0  0
 19 20  2  0  0  0  0
 21 22  1  0  0  0  0
 22 23  1  0  0  0  0
 22 24  2  0  0  0  0
 30 33  1  0  0  0  0
  8 11  1  0  0  0  0
 39 40  1  0  0  0  0
 18 21  1  0  0  0  0
 29 30  1  0  0  0  0
  7  8  1  0  0  0  0
 17 18  1  0  0  0  0
  3  4  1  0  0  0  0
  3  5  1  0  0  0  0
  3  6  1  0  0  0  0
 33 36  1  0  0  0  0
 33 37  1  0  0  0  0
 33 38  1  0  0  0  0
 11 14  1  0  0  0  0
 11 15  1  0  0  0  0
 11 16  1  0  0  0  0
 40 42  1  0  0  0  0
 40 43  1  0  0  0  0
 40 44  1  0  0  0  0
 21 27  1  0  0  0  0
 21 28  1  0  0  0  0
 30 35  1  0  0  0  0
  8 13  1  0  0  0  0
 18 26  1  0  0  0  0
 39 41  1  0  0  0  0
  7 12  1  0  0  0  0
 29 34  1  0  0  0  0
 17 25  1  0  0  0  0
M  CHG  1  23  -1
M  END
$$$$

  -OEChem-05262214473D

 44 43  0     1  0  0  0  0  0999 V2000
   -4.0256   -1.8030   -2.1581 C   0  0  0  0  0  0  0  0  0  0  0  0
   -3.7513   -2.6782   -2.9709 O   0  0  0  0  0  0  0  0  0  0  0  0
   -5.3491   -1.1169   -2.2339 C   0  0  0  0  0  0  0  0  0  0  0  0
   -5.3223   -0.2211   -2.8750 H   0  0  0  0  0  0  0  0  0  0  0  0
   -6.1322   -1.7605   -2.6658 H   0  0  0  0  0  0  0  0  0  0  0  0
   -5.7568   -0.7715   -1.2704 H   0  0  0  0  0  0  0  0  0  0  0  0
   -3.2124   -1.3578   -1.1289 N   0  0  0  0  0  0  0  0  0  0  0  0
   -1.8971   -1.8843   -0.8752 C   0  0  2  0  0  0  0  0  0  0  0  0
   -1.2676   -1.0599    0.2399 C   0  0  0  0  0  0  0  0  0  0  0  0
   -1.6270    0.0833    0.5138 O   0  0  0  0  0  0  0  0  0  0  0  0
   -1.0364   -1.8506   -2.1285 C   0  0  0  0  0  0  0  0  0  0  0  0
   -3.5631   -0.6202   -0.5206 H   0  0  0  0  0  0  0  0  0  0  0  0
   -2.0301   -2.9174   -0.5360 H   0  0  0  0  0  0  0  0  0  0  0  0
   -0.8921   -0.8236   -2.4833 H   0  0  0  0  0  0  0  0  0  0  0  0
   -0.0457   -2.2777   -1.9410 H   0  0  0  0  0  0  0  0  0  0  0  0
   -1.5052   -2.4193   -2.9387 H   0  0  0  0  0  0  0  0  0  0  0  0
   -0.2267   -1.7335    0.8672 N   0  0  0  0  0  0  0  0  0  0  0  0
    0.5363   -1.1590    1.9465 C   0  0  2  0  0  0  0  0  0  0  0  0
   -0.1661   -1.5374    3.2454 C   0  0  0  0  0  0  0  0  0  0  0  0
   -0.9910   -2.4456    3.3216 O   0  0  0  0  0  0  0  0  0  0  0  0
    0.6466    0.3586    1.8188 C   0  0  0  0  0  0  0  0  0  0  0  0
    1.5040    0.8848    0.6606 C   0  0  0  0  0  0  0  0  0  0  0  0
    2.4423    0.1081    0.3186 O   0  5  0  0  0  0  0  0  0  0  0  0
    1.1912    2.0138    0.1933 O   0  0  0  0  0  0  0  0  0  0  0  0
   -0.0113   -2.6869    0.5854 H   0  0  0  0  0  0  0  0  0  0  0  0
    1.5247   -1.6316    1.9204 H   0  0  0  0  0  0  0  0  0  0  0  0
    1.0451    0.7797    2.7519 H   0  0  0  0  0  0  0  0  0  0  0  0
   -0.3533    0.7917    1.6851 H   0  0  0  0  0  0  0  0  0  0  0  0
    0.2757   -0.7758    4.3184 N   0  0  0  0  0  0  0  0  0  0  0  0
   -0.2138   -0.9630    5.6644 C   0  0  2  0  0  0  0  0  0  0  0  0
   -0.1745    0.3857    6.3708 C   0  0  0  0  0  0  0  0  0  0  0  0
    0.5561    1.3081    6.0154 O   0  0  0  0  0  0  0  0  0  0  0  0
    0.6135   -1.9944    6.4156 C   0  0  0  0  0  0  0  0  0  0  0  0
    0.9977   -0.0767    4.1708 H   0  0  0  0  0  0  0  0  0  0  0  0
   -1.2523   -1.3011    5.5791 H   0  0  0  0  0  0  0  0  0  0  0  0
    1.6571   -1.6730    6.5110 H   0  0  0  0  0  0  0  0  0  0  0  0
    0.2238   -2.1560    7.4261 H   0  0  0  0  0  0  0  0  0  0  0  0
    0.6085   -2.9556    5.8904 H   0  0  0  0  0  0  0  0  0  0  0  0
   -1.0197    0.4233    7.4710 N   0  0  0  0  0  0  0  0  0  0  0  0
   -1.1512    1.5889    8.3137 C   0  0  0  0  0  0  0  0  0  0  0  0
   -1.6030   -0.3814    7.6808 H   0  0  0  0  0  0  0  0  0  0  0  0
   -0.4474    1.5145    9.1558 H   0  0  0  0  0  0  0  0  0  0  0  0
   -0.9270    2.4922    7.7273 H   0  0  0  0  0  0  0  0  0  0  0  0
   -2.1795    1.6482    8.6996 H   0  0  0  0  0  0  0  0  0  0  0  0
  1  3  1  0  0  0  0
  1  7  1  0  0  0  0
  1  2  2  0  0  0  0
 30 31  1  0  0  0  0
 31 39  1  0  0  0  0
 31 32  2  0  0  0  0
  8  9  1  0  0  0  0
  9 17  1  0  0  0  0
  9 10  2  0  0  0  0
 18 19  1  0  0  0  0
 19 29  1  0  0  0  0
 19 20  2  0  0  0  0
 21 22  1  0  0  0  0
 22 23  1  0  0  0  0
 22 24  2  0  0  0  0
 30 33  1  0  0  0  0
  8 11  1  0  0  0  0
 39 40  1  0  0  0  0
 18 21  1  0  0  0  0
 29 30  1  0  0  0  0
  7  8  1  0  0  0  0
 17 18  1  0  0  0  0
  3  4  1  0  0  0  0
  3  5  1  0  0  0  0
  3  6  1  0  0  0  0
 33 36  1  0  0  0  0
 33 37  1  0  0  0  0
 33 38  1  0  0  0  0
 11 14  1  0  0  0  0
 11 15  1  0  0  0  0
 11 16  1  0  0  0  0
 40 42  1  0  0  0  0
 40 43  1  0  0  0  0
 40 44  1  0  0  0  0
 21 27  1  0  0  0  0
 21 28  1  0  0  0  0
 30 35  1  0  0  0  0
  8 13  1  0  0  0  0
 18 26  1  0  0  0  0
 39 41  1  0  0  0  0
  7 12  1  0  0  0  0
 29 34  1  0  0  0  0
 17 25  1  0  0  0  0
M  CHG  1  23  -1
M  END
$$$$

  -OEChem-05262214473D

 44 43  0     1  0  0  0  0  0999 V2000
   -4.0256   -1.8030   -2.1581 C   0  0  0  0  0  0  0  0  0  0  0  0
   -3.7513   -2.6782   -2.9709 O   0  0  0  0  0  0  0  0  0  0  0  0
   -5.3491   -1.1169   -2.2339 C   0  0  0  0  0  0  0  0  0  0  0  0
   -5.3223   -0.2211   -2.8750 H   0  0  0  0  0  0  0  0  0  0  0  0
   -6.1322   -1.7605   -2.6658 H   0  0  0  0  0  0  0  0  0  0  0  0
   -5.7568   -0.7715   -1.2704 H   0  0  0  0  0  0  0  0  0  0  0  0
   -3.2124   -1.3578   -1.1289 N   0  0  0  0  0  0  0  0  0  0  0  0
   -1.8971   -1.8843   -0.8752 C   0  0  2  0  0  0  0  0  0  0  0  0
   -1.2676   -1.0599    0.2399 C   0  0  0  0  0  0  0  0  0  0  0  0
   -1.6270    0.0833    0.5138 O   0  0  0  0  0  0  0  0  0  0  0  0
   -1.0364   -1.8506   -2.1285 C   0  0  0  0  0  0  0  0  0  0  0  0
   -3.5631   -0.6202   -0.5206 H   0  0  0  0  0  0  0  0  0  0  0  0
   -2.0301   -2.9174   -0.5360 H   0  0  0  0  0  0  0  0  0  0  0  0
   -0.8921   -0.8236   -2.4833 H   0  0  0  0  0  0  0  0  0  0  0  0
   -0.0457   -2.2777   -1.9410 H   0  0  0  0  0  0  0  0  0  0  0  0
   -1.5052   -2.4193   -2.9387 H   0  0  0  0  0  0  0  0  0  0  0  0
   -0.2267   -1.7335    0.8672 N   0  0  0  0  0  0  0  0  0  0  0  0
    0.5363   -1.1590    1.9465 C   0  0  2  0  0  0  0  0  0  0  0  0
   -0.1661   -1.5374    3.2454 C   0  0  0  0  0  0  0  0  0  0  0  0
   -0.7780   -2.5932    3.3938 O   0  0  0  0  0  0  0  0  0  0  0  0
    0.6466    0.3586    1.8188 C   0  0  0  0  0  0  0  0  0  0  0  0
    1.5040    0.8848    0.6606 C   0  0  0  0  0  0  0  0  0  0  0  0
    2.4423    0.1081    0.3186 O   0  5  0  0  0  0  0  0  0  0  0  0
    1.1912    2.0138    0.1933 O   0  0  0  0  0  0  0  0  0  0  0  0
   -0.0113   -2.6869    0.5854 H   0  0  0  0  0  0  0  0  0  0  0  0
    1.5247   -1.6316    1.9204 H   0  0  0  0  0  0  0  0  0  0  0  0
    1.0451    0.7797    2.7519 H   0  0  0  0  0  0  0  0  0  0  0  0
   -0.3533    0.7917    1.6851 H   0  0  0  0  0  0  0  0  0  0  0  0
    0.0156   -0.5808    4.2345 N   0  0  0  0  0  0  0  0  0  0  0  0
   -0.5247   -0.7210    5.5667 C   0  0  2  0  0  0  0  0  0  0  0  0
   -0.8335    0.6725    6.0980 C   0  0  0  0  0  0  0  0  0  0  0  0
   -0.2948    1.6896    5.6664 O   0  0  0  0  0  0  0  0  0  0  0  0
    0.4455   -1.4496    6.4835 C   0  0  0  0  0  0  0  0  0  0  0  0
    0.5782    0.2415    4.0366 H   0  0  0  0  0  0  0  0  0  0  0  0
   -1.4554   -1.2910    5.4722 H   0  0  0  0  0  0  0  0  0  0  0  0
    1.3841   -0.8936    6.5904 H   0  0  0  0  0  0  0  0  0  0  0  0
    0.0229   -1.5803    7.4851 H   0  0  0  0  0  0  0  0  0  0  0  0
    0.6897   -2.4401    6.0845 H   0  0  0  0  0  0  0  0  0  0  0  0
   -1.7495    0.6425    7.1402 N   0  0  0  0  0  0  0  0  0  0  0  0
   -2.1954    1.8358    7.8209 C   0  0  0  0  0  0  0  0  0  0  0  0
   -2.1592   -0.2439    7.4201 H   0  0  0  0  0  0  0  0  0  0  0  0
   -1.5598    2.0160    8.7004 H   0  0  0  0  0  0  0  0  0  0  0  0
   -2.1274    2.6948    7.1372 H   0  0  0  0  0  0  0  0  0  0  0  0
   -3.2390    1.7055    8.1434 H   0  0  0  0  0  0  0  0  0  0  0  0
  1  3  1  0  0  0  0
  1  7  1  0  0  0  0
  1  2  2  0  0  0  0
 30 31  1  0  0  0  0
 31 39  1  0  0  0  0
 31 32  2  0  0  0  0
  8  9  1  0  0  0  0
  9 17  1  0  0  0  0
  9 10  2  0  0  0  0
 18 19  1  0  0  0  0
 19 29  1  0  0  0  0
 19 20  2  0  0  0  0
 21 22  1  0  0  0  0
 22 23  1  0  0  0  0
 22 24  2  0  0  0  0
 30 33  1  0  0  0  0
  8 11  1  0  0  0  0
 39 40  1  0  0  0  0
 18 21  1  0  0  0  0
 29 30  1  0  0  0  0
  7  8  1  0  0  0  0
 17 18  1  0  0  0  0
  3  4  1  0  0  0  0
  3  5  1  0  0  0  0
  3  6  1  0  0  0  0
 33 36  1  0  0  0  0
 33 37  1  0  0  0  0
 33 38  1  0  0  0  0
 11 14  1  0  0  0  0
 11 15  1  0  0  0  0
 11 16  1  0  0  0  0
 40 42  1  0  0  0  0
 40 43  1  0  0  0  0
 40 44  1  0  0  0  0
 21 27  1  0  0  0  0
 21 28  1  0  0  0  0
 30 35  1  0  0  0  0
  8 13  1  0  0  0  0
 18 26  1  0  0  0  0
 39 41  1  0  0  0  0
  7 12  1  0  0  0  0
 29 34  1  0  0  0  0
 17 25  1  0  0  0  0
M  CHG  1  23  -1
M  END
$$$$

  -OEChem-05262214473D

 44 43  0     1  0  0  0  0  0999 V2000
   -4.0256   -1.8030   -2.1581 C   0  0  0  0  0  0  0  0  0  0  0  0
   -3.7513   -2.6782   -2.9709 O   0  0  0  0  0  0  0  0  0  0  0  0
   -5.3491   -1.1169   -2.2339 C   0  0  0  0  0  0  0  0  0  0  0  0
   -5.3223   -0.2211   -2.8750 H   0  0  0  0  0  0  0  0  0  0  0  0
   -6.1322   -1.7605   -2.6658 H   0  0  0  0  0  0  0  0  0  0  0  0
   -5.7568   -0.7715   -1.2704 H   0  0  0  0  0  0  0  0  0  0  0  0
   -3.2124   -1.3578   -1.1289 N   0  0  0  0  0  0  0  0  0  0  0  0
   -1.8971   -1.8843   -0.8752 C   0  0  2  0  0  0  0  0  0  0  0  0
   -1.2676   -1.0599    0.2399 C   0  0  0  0  0  0  0  0  0  0  0  0
   -1.6270    0.0833    0.5138 O   0  0  0  0  0  0  0  0  0  0  0  0
   -1.0364   -1.8506   -2.1285 C   0  0  0  0  0  0  0  0  0  0  0  0
   -3.5631   -0.6202   -0.5206 H   0  0  0  0  0  0  0  0  0  0  0  0
   -2.0301   -2.9174   -0.5360 H   0  0  0  0  0  0  0  0  0  0  0  0
   -0.8921   -0.8236   -2.4833 H   0  0  0  0  0  0  0  0  0  0  0  0
   -0.0457   -2.2777   -1.9410 H   0  0  0  0  0  0  0  0  0  0  0  0
   -1.5052   -2.4193   -2.9387 H   0  0  0  0  0  0  0  0  0  0  0  0
   -0.2267   -1.7335    0.8672 N   0  0  0  0  0  0  0  0  0  0  0  0
    0.5363   -1.1590    1.9465 C   0  0  2  0  0  0  0  0  0  0  0  0
   -0.1661   -1.5374    3.2454 C   0  0  0  0  0  0  0  0  0  0  0  0
   -0.5444   -2.6802    3.4948 O   0  0  0  0  0  0  0  0  0  0  0  0
    0.6466    0.3586    1.8188 C   0  0  0  0  0  0  0  0  0  0  0  0
    1.5040    0.8848    0.6606 C   0  0  0  0  0  0  0  0  0  0  0  0
    2.4423    0.1081    0.3186 O   0  5  0  0  0  0  0  0  0  0  0  0
    1.1912    2.0138    0.1933 O   0  0  0  0  0  0  0  0  0  0  0  0
   -0.0113   -2.6869    0.5854 H   0  0  0  0  0  0  0  0  0  0  0  0
    1.5247   -1.6316    1.9204 H   0  0  0  0  0  0  0  0  0  0  0  0
    1.0451    0.7797    2.7519 H   0  0  0  0  0  0  0  0  0  0  0  0
   -0.3533    0.7917    1.6851 H   0  0  0  0  0  0  0  0  0  0  0  0
   -0.2733   -0.4598    4.1136 N   0  0  0  0  0  0  0  0  0  0  0  0
   -0.8721   -0.5675    5.4236 C   0  0  2  0  0  0  0  0  0  0  0  0
   -1.5158    0.7716    5.7580 C   0  0  0  0  0  0  0  0  0  0  0  0
   -1.1783    1.8288    5.2292 O   0  0  0  0  0  0  0  0  0  0  0  0
    0.1588   -0.9523    6.4733 C   0  0  0  0  0  0  0  0  0  0  0  0
    0.1114    0.4403    3.8421 H   0  0  0  0  0  0  0  0  0  0  0  0
   -1.6470   -1.3388    5.3547 H   0  0  0  0  0  0  0  0  0  0  0  0
    0.9434   -0.1914    6.5566 H   0  0  0  0  0  0  0  0  0  0  0  0
   -0.3020   -1.0615    7.4606 H   0  0  0  0  0  0  0  0  0  0  0  0
    0.6419   -1.9010    6.2156 H   0  0  0  0  0  0  0  0  0  0  0  0
   -2.4816    0.6538    6.7477 N   0  0  0  0  0  0  0  0  0  0  0  0
   -3.2269    1.7851    7.2484 C   0  0  0  0  0  0  0  0  0  0  0  0
   -2.7099   -0.2648    7.1162 H   0  0  0  0  0  0  0  0  0  0  0  0
   -2.7156    2.2008    8.1292 H   0  0  0  0  0  0  0  0  0  0  0  0
   -3.2937    2.5553    6.4660 H   0  0  0  0  0  0  0  0  0  0  0  0
   -4.2392    1.4609    7.5313 H   0  0  0  0  0  0  0  0  0  0  0  0
  1  3  1  0  0  0  0
  1  7  1  0  0  0  0
  1  2  2  0  0  0  0
 30 31  1  0  0  0  0
 31 39  1  0  0  0  0
 31 32  2  0  0  0  0
  8  9  1  0  0  0  0
  9 17  1  0  0  0  0
  9 10  2  0  0  0  0
 18 19  1  0  0  0  0
 19 29  1  0  0  0  0
 19 20  2  0  0  0  0
 21 22  1  0  0  0  0
 22 23  1  0  0  0  0
 22 24  2  0  0  0  0
 30 33  1  0  0  0  0
  8 11  1  0  0  0  0
 39 40  1  0  0  0  0
 18 21  1  0  0  0  0
 29 30  1  0  0  0  0
  7  8  1  0  0  0  0
 17 18  1  0  0  0  0
  3  4  1  0  0  0  0
  3  5  1  0  0  0  0
  3  6  1  0  0  0  0
 33 36  1  0  0  0  0
 33 37  1  0  0  0  0
 33 38  1  0  0  0  0
 11 14  1  0  0  0  0
 11 15  1  0  0  0  0
 11 16  1  0  0  0  0
 40 42  1  0  0  0  0
 40 43  1  0  0  0  0
 40 44  1  0  0  0  0
 21 27  1  0  0  0  0
 21 28  1  0  0  0  0
 30 35  1  0  0  0  0
  8 13  1  0  0  0  0
 18 26  1  0  0  0  0
 39 41  1  0  0  0  0
  7 12  1  0  0  0  0
 29 34  1  0  0  0  0
 17 25  1  0  0  0  0
M  CHG  1  23  -1
M  END
$$$$

  -OEChem-05262214473D

 44 43  0     1  0  0  0  0  0999 V2000
   -4.0256   -1.8030   -2.1581 C   0  0  0  0  0  0  0  0  0  0  0  0
   -3.7513   -2.6782   -2.9709 O   0  0  0  0  0  0  0  0  0  0  0  0
   -5.3491   -1.1169   -2.2339 C   0  0  0  0  0  0  0  0  0  0  0  0
   -5.3223   -0.2211   -2.8750 H   0  0  0  0  0  0  0  0  0  0  0  0
   -6.1322   -1.7605   -2.6658 H   0  0  0  0  0  0  0  0  0  0  0  0
   -5.7568   -0.7715   -1.2704 H   0  0  0  0  0  0  0  0  0  0  0  0
   -3.2124   -1.3578   -1.1289 N   0  0  0  0  0  0  0  0  0  0  0  0
   -1.8971   -1.8843   -0.8752 C   0  0  2  0  0  0  0  0  0  0  0  0
   -1.2676   -1.0599    0.2399 C   0  0  0  0  0  0  0  0  0  0  0  0
   -1.6270    0.0833    0.5138 O   0  0  0  0  0  0  0  0  0  0  0  0
   -1.0364   -1.8506   -2.1285 C   0  0  0  0  0  0  0  0  0  0  0  0
   -3.5631   -0.6202   -0.5206 H   0  0  0  0  0  0  0  0  0  0  0  0
   -2.0301   -2.9174   -0.5360 H   0  0  0  0  0  0  0  0  0  0  0  0
   -0.8921   -0.8236   -2.4833 H   0  0  0  0  0  0  0  0  0  0  0  0
   -0.0457   -2.2777   -1.9410 H   0  0  0  0  0  0  0  0  0  0  0  0
   -1.5052   -2.4193   -2.9387 H   0  0  0  0  0  0  0  0  0  0  0  0
   -0.2267   -1.7335    0.8672 N   0  0  0  0  0  0  0  0  0  0  0  0
    0.5363   -1.1590    1.9465 C   0  0  2  0  0  0  0  0  0  0  0  0
   -0.1661   -1.5374    3.2454 C   0  0  0  0  0  0  0  0  0  0  0  0
   -0.3060   -2.7006    3.6177 O   0  0  0  0  0  0  0  0  0  0  0  0
    0.6466    0.3586    1.8188 C   0  0  0  0  0  0  0  0  0  0  0  0
    1.5040    0.8848    0.6606 C   0  0  0  0  0  0  0  0  0  0  0  0
    2.4423    0.1081    0.3186 O   0  5  0  0  0  0  0  0  0  0  0  0
    1.1912    2.0138    0.1933 O   0  0  0  0  0  0  0  0  0  0  0  0
   -0.0113   -2.6869    0.5854 H   0  0  0  0  0  0  0  0  0  0  0  0
    1.5247   -1.6316    1.9204 H   0  0  0  0  0  0  0  0  0  0  0  0
    1.0451    0.7797    2.7519 H   0  0  0  0  0  0  0  0  0  0  0  0
   -0.3533    0.7917    1.6851 H   0  0  0  0  0  0  0  0  0  0  0  0
   -0.5713   -0.4211    3.9637 N   0  0  0  0  0  0  0  0  0  0  0  0
   -1.2324   -0.5130    5.2447 C   0  0  2  0  0  0  0  0  0  0  0  0
   -2.1748    0.6764    5.3739 C   0  0  0  0  0  0  0  0  0  0  0  0
   -2.0344    1.7162    4.7335 O   0  0  0  0  0  0  0  0  0  0  0  0
   -0.2272   -0.5365    6.3857 C   0  0  0  0  0  0  0  0  0  0  0  0
   -0.3708    0.5062    3.6006 H   0  0  0  0  0  0  0  0  0  0  0  0
   -1.8140   -1.4412    5.2345 H   0  0  0  0  0  0  0  0  0  0  0  0
    0.3650    0.3855    6.4119 H   0  0  0  0  0  0  0  0  0  0  0  0
   -0.7286   -0.6349    7.3542 H   0  0  0  0  0  0  0  0  0  0  0  0
    0.4684   -1.3753    6.2750 H   0  0  0  0  0  0  0  0  0  0  0  0
   -3.1660    0.4564    6.3201 N   0  0  0  0  0  0  0  0  0  0  0  0
   -4.1752    1.4404    6.6352 C   0  0  0  0  0  0  0  0  0  0  0  0
   -3.2178   -0.4427    6.7898 H   0  0  0  0  0  0  0  0  0  0  0  0
   -3.8361    2.0563    7.4812 H   0  0  0  0  0  0  0  0  0  0  0  0
   -4.3464    2.0833    5.7593 H   0  0  0  0  0  0  0  0  0  0  0  0
   -5.1122    0.9311    6.9050 H   0  0  0  0  0  0  0  0  0  0  0  0
  1  3  1  0  0  0  0
  1  7  1  0  0  0  0
  1  2  2  0  0  0  0
 30 31  1  0  0  0  0
 31 39  1  0  0  0  0
 31 32  2  0  0  0  0
  8  9  1  0  0  0  0
  9 17  1  0  0  0  0
  9 10  2  0  0  0  0
 18 19  1  0  0  0  0
 19 29  1  0  0  0  0
 19 20  2  0  0  0  0
 21 22  1  0  0  0  0
 22 23  1  0  0  0  0
 22 24  2  0  0  0  0
 30 33  1  0  0  0  0
  8 11  1  0  0  0  0
 39 40  1  0  0  0  0
 18 21  1  0  0  0  0
 29 30  1  0  0  0  0
  7  8  1  0  0  0  0
 17 18  1  0  0  0  0
  3  4  1  0  0  0  0
  3  5  1  0  0  0  0
  3  6  1  0  0  0  0
 33 36  1  0  0  0  0
 33 37  1  0  0  0  0
 33 38  1  0  0  0  0
 11 14  1  0  0  0  0
 11 15  1  0  0  0  0
 11 16  1  0  0  0  0
 40 42  1  0  0  0  0
 40 43  1  0  0  0  0
 40 44  1  0  0  0  0
 21 27  1  0  0  0  0
 21 28  1  0  0  0  0
 30 35  1  0  0  0  0
  8 13  1  0  0  0  0
 18 26  1  0  0  0  0
 39 41  1  0  0  0  0
  7 12  1  0  0  0  0
 29 34  1  0  0  0  0
 17 25  1  0  0  0  0
M  CHG  1  23  -1
M  END
$$$$

  -OEChem-05262214473D

 44 43  0     1  0  0  0  0  0999 V2000
   -4.0256   -1.8030   -2.1581 C   0  0  0  0  0  0  0  0  0  0  0  0
   -3.7513   -2.6782   -2.9709 O   0  0  0  0  0  0  0  0  0  0  0  0
   -5.3491   -1.1169   -2.2339 C   0  0  0  0  0  0  0  0  0  0  0  0
   -5.3223   -0.2211   -2.8750 H   0  0  0  0  0  0  0  0  0  0  0  0
   -6.1322   -1.7605   -2.6658 H   0  0  0  0  0  0  0  0  0  0  0  0
   -5.7568   -0.7715   -1.2704 H   0  0  0  0  0  0  0  0  0  0  0  0
   -3.2124   -1.3578   -1.1289 N   0  0  0  0  0  0  0  0  0  0  0  0
   -1.8971   -1.8843   -0.8752 C   0  0  2  0  0  0  0  0  0  0  0  0
   -1.2676   -1.0599    0.2399 C   0  0  0  0  0  0  0  0  0  0  0  0
   -1.6270    0.0833    0.5138 O   0  0  0  0  0  0  0  0  0  0  0  0
   -1.0364   -1.8506   -2.1285 C   0  0  0  0  0  0  0  0  0  0  0  0
   -3.5631   -0.6202   -0.5206 H   0  0  0  0  0  0  0  0  0  0  0  0
   -2.0301   -2.9174   -0.5360 H   0  0  0  0  0  0  0  0  0  0  0  0
   -0.8921   -0.8236   -2.4833 H   0  0  0  0  0  0  0  0  0  0  0  0
   -0.0457   -2.2777   -1.9410 H   0  0  0  0  0  0  0  0  0  0  0  0
   -1.5052   -2.4193   -2.9387 H   0  0  0  0  0  0  0  0  0  0  0  0
   -0.2267   -1.7335    0.8672 N   0  0  0  0  0  0  0  0  0  0  0  0
    0.5363   -1.1590    1.9465 C   0  0  2  0  0  0  0  0  0  0  0  0
   -0.1661   -1.5374    3.2454 C   0  0  0  0  0  0  0  0  0  0  0  0
   -0.0791   -2.6531    3.7542 O   0  0  0  0  0  0  0  0  0  0  0  0
    0.6466    0.3586    1.8188 C   0  0  0  0  0  0  0  0  0  0  0  0
    1.5040    0.8848    0.6606 C   0  0  0  0  0  0  0  0  0  0  0  0
    2.4423    0.1081    0.3186 O   0  5  0  0  0  0  0  0  0  0  0  0
    1.1912    2.0138    0.1933 O   0  0  0  0  0  0  0  0  0  0  0  0
   -0.0113   -2.6869    0.5854 H   0  0  0  0  0  0  0  0  0  0  0  0
    1.5247   -1.6316    1.9204 H   0  0  0  0  0  0  0  0  0  0  0  0
    1.0451    0.7797    2.7519 H   0  0  0  0  0  0  0  0  0  0  0  0
   -0.3533    0.7917    1.6851 H   0  0  0  0  0  0  0  0  0  0  0  0
   -0.8580   -0.4672    3.7953 N   0  0  0  0  0  0  0  0  0  0  0  0
   -1.5809   -0.5610    5.0423 C   0  0  2  0  0  0  0  0  0  0  0  0
   -2.7657    0.3932    4.9719 C   0  0  0  0  0  0  0  0  0  0  0  0
   -2.8046    1.3596    4.2132 O   0  0  0  0  0  0  0  0  0  0  0  0
   -0.6862   -0.2304    6.2267 C   0  0  0  0  0  0  0  0  0  0  0  0
   -0.8356    0.4347    3.3284 H   0  0  0  0  0  0  0  0  0  0  0  0
   -1.9450   -1.5913    5.1200 H   0  0  0  0  0  0  0  0  0  0  0  0
   -0.3116    0.7980    6.1662 H   0  0  0  0  0  0  0  0  0  0  0  0
   -1.2279   -0.3297    7.1731 H   0  0  0  0  0  0  0  0  0  0  0  0
    0.1811   -0.8986    6.2585 H   0  0  0  0  0  0  0  0  0  0  0  0
   -3.7561    0.0639    5.8867 N   0  0  0  0  0  0  0  0  0  0  0  0
   -4.9759    0.8252    6.0231 C   0  0  0  0  0  0  0  0  0  0  0  0
   -3.6482   -0.7656    6.4630 H   0  0  0  0  0  0  0  0  0  0  0  0
   -4.8449    1.5922    6.8006 H   0  0  0  0  0  0  0  0  0  0  0  0
   -5.2138    1.3110    5.0653 H   0  0  0  0  0  0  0  0  0  0  0  0
   -5.7982    0.1521    6.3071 H   0  0  0  0  0  0  0  0  0  0  0  0
  1  3  1  0  0  0  0
  1  7  1  0  0  0  0
  1  2  2  0  0  0  0
 30 31  1  0  0  0  0
 31 39  1  0  0  0  0
 31 32  2  0  0  0  0
  8  9  1  0  0  0  0
  9 17  1  0  0  0  0
  9 10  2  0  0  0  0
 18 19  1  0  0  0  0
 19 29  1  0  0  0  0
 19 20  2  0  0  0  0
 21 22  1  0  0  0  0
 22 23  1  0  0  0  0
 22 24  2  0  0  0  0
 30 33  1  0  0  0  0
  8 11  1  0  0  0  0
 39 40  1  0  0  0  0
 18 21  1  0  0  0  0
 29 30  1  0  0  0  0
  7  8  1  0  0  0  0
 17 18  1  0  0  0  0
  3  4  1  0  0  0  0
  3  5  1  0  0  0  0
  3  6  1  0  0  0  0
 33 36  1  0  0  0  0
 33 37  1  0  0  0  0
 33 38  1  0  0  0  0
 11 14  1  0  0  0  0
 11 15  1  0  0  0  0
 11 16  1  0  0  0  0
 40 42  1  0  0  0  0
 40 43  1  0  0  0  0
 40 44  1  0  0  0  0
 21 27  1  0  0  0  0
 21 28  1  0  0  0  0
 30 35  1  0  0  0  0
  8 13  1  0  0  0  0
 18 26  1  0  0  0  0
 39 41  1  0  0  0  0
  7 12  1  0  0  0  0
 29 34  1  0  0  0  0
 17 25  1  0  0  0  0
M  CHG  1  23  -1
M  END
$$$$

  -OEChem-05262214473D

 44 43  0     1  0  0  0  0  0999 V2000
   -4.0256   -1.8030   -2.1581 C   0  0  0  0  0  0  0  0  0  0  0  0
   -3.7513   -2.6782   -2.9709 O   0  0  0  0  0  0  0  0  0  0  0  0
   -5.3491   -1.1169   -2.2339 C   0  0  0  0  0  0  0  0  0  0  0  0
   -5.3223   -0.2211   -2.8750 H   0  0  0  0  0  0  0  0  0  0  0  0
   -6.1322   -1.7605   -2.6658 H   0  0  0  0  0  0  0  0  0  0  0  0
   -5.7568   -0.7715   -1.2704 H   0  0  0  0  0  0  0  0  0  0  0  0
   -3.2124   -1.3578   -1.1289 N   0  0  0  0  0  0  0  0  0  0  0  0
   -1.8971   -1.8843   -0.8752 C   0  0  2  0  0  0  0  0  0  0  0  0
   -1.2676   -1.0599    0.2399 C   0  0  0  0  0  0  0  0  0  0  0  0
   -1.6270    0.0833    0.5138 O   0  0  0  0  0  0  0  0  0  0  0  0
   -1.0364   -1.8506   -2.1285 C   0  0  0  0  0  0  0  0  0  0  0  0
   -3.5631   -0.6202   -0.5206 H   0  0  0  0  0  0  0  0  0  0  0  0
   -2.0301   -2.9174   -0.5360 H   0  0  0  0  0  0  0  0  0  0  0  0
   -0.8921   -0.8236   -2.4833 H   0  0  0  0  0  0  0  0  0  0  0  0
   -0.0457   -2.2777   -1.9410 H   0  0  0  0  0  0  0  0  0  0  0  0
   -1.5052   -2.4193   -2.9387 H   0  0  0  0  0  0  0  0  0  0  0  0
   -0.2267   -1.7335    0.8672 N   0  0  0  0  0  0  0  0  0  0  0  0
    0.5363   -1.1590    1.9465 C   0  0  2  0  0  0  0  0  0  0  0  0
   -0.1661   -1.5374    3.2454 C   0  0  0  0  0  0  0  0  0  0  0  0
    0.1208   -2.5409    3.8950 O   0  0  0  0  0  0  0  0  0  0  0  0
    0.6466    0.3586    1.8188 C   0  0  0  0  0  0  0  0  0  0  0  0
    1.5040    0.8848    0.6606 C   0  0  0  0  0  0  0  0  0  0  0  0
    2.4423    0.1081    0.3186 O   0  5  0  0  0  0  0  0  0  0  0  0
    1.1912    2.0138    0.1933 O   0  0  0  0  0  0  0  0  0  0  0  0
   -0.0113   -2.6869    0.5854 H   0  0  0  0  0  0  0  0  0  0  0  0
    1.5247   -1.6316    1.9204 H   0  0  0  0  0  0  0  0  0  0  0  0
    1.0451    0.7797    2.7519 H   0  0  0  0  0  0  0  0  0  0  0  0
   -0.3533    0.7917    1.6851 H   0  0  0  0  0  0  0  0  0  0  0  0
   -1.1139   -0.5951    3.6196 N   0  0  0  0  0  0  0  0  0  0  0  0
   -1.8939   -0.7085    4.8301 C   0  0  2  0  0  0  0  0  0  0  0  0
   -3.2482   -0.0585    4.5795 C   0  0  0  0  0  0  0  0  0  0  0  0
   -3.4365    0.7832    3.7036 O   0  0  0  0  0  0  0  0  0  0  0  0
   -1.1868   -0.0548    6.0071 C   0  0  0  0  0  0  0  0  0  0  0  0
   -1.2513    0.2306    3.0442 H   0  0  0  0  0  0  0  0  0  0  0  0
   -2.0311   -1.7788    5.0188 H   0  0  0  0  0  0  0  0  0  0  0  0
   -1.0404    1.0179    5.8362 H   0  0  0  0  0  0  0  0  0  0  0  0
   -1.7659   -0.1665    6.9297 H   0  0  0  0  0  0  0  0  0  0  0  0
   -0.2004   -0.5035    6.1673 H   0  0  0  0  0  0  0  0  0  0  0  0
   -4.2117   -0.4971    5.4770 N   0  0  0  0  0  0  0  0  0  0  0  0
   -5.5742   -0.0187    5.4538 C   0  0  0  0  0  0  0  0  0  0  0  0
   -3.9716   -1.2112    6.1583 H   0  0  0  0  0  0  0  0  0  0  0  0
   -5.6733    0.8404    6.1337 H   0  0  0  0  0  0  0  0  0  0  0  0
   -5.8366    0.2909    4.4314 H   0  0  0  0  0  0  0  0  0  0  0  0
   -6.2507   -0.8230    5.7784 H   0  0  0  0  0  0  0  0  0  0  0  0
  1  3  1  0  0  0  0
  1  7  1  0  0  0  0
  1  2  2  0  0  0  0
 30 31  1  0  0  0  0
 31 39  1  0  0  0  0
 31 32  2  0  0  0  0
  8  9  1  0  0  0  0
  9 17  1  0  0  0  0
  9 10  2  0  0  0  0
 18 19  1  0  0  0  0
 19 29  1  0  0  0  0
 19 20  2  0  0  0  0
 21 22  1  0  0  0  0
 22 23  1  0  0  0  0
 22 24  2  0  0  0  0
 30 33  1  0  0  0  0
  8 11  1  0  0  0  0
 39 40  1  0  0  0  0
 18 21  1  0  0  0  0
 29 30  1  0  0  0  0
  7  8  1  0  0  0  0
 17 18  1  0  0  0  0
  3  4  1  0  0  0  0
  3  5  1  0  0  0  0
  3  6  1  0  0  0  0
 33 36  1  0  0  0  0
 33 37  1  0  0  0  0
 33 38  1  0  0  0  0
 11 14  1  0  0  0  0
 11 15  1  0  0  0  0
 11 16  1  0  0  0  0
 40 42  1  0  0  0  0
 40 43  1  0  0  0  0
 40 44  1  0  0  0  0
 21 27  1  0  0  0  0
 21 28  1  0  0  0  0
 30 35  1  0  0  0  0
  8 13  1  0  0  0  0
 18 26  1  0  0  0  0
 39 41  1  0  0  0  0
  7 12  1  0  0  0  0
 29 34  1  0  0  0  0
 17 25  1  0  0  0  0
M  CHG  1  23  -1
M  END
$$$$

  -OEChem-05262214473D

 44 43  0     1  0  0  0  0  0999 V2000
   -4.0256   -1.8030   -2.1581 C   0  0  0  0  0  0  0  0  0  0  0  0
   -3.7513   -2.6782   -2.9709 O   0  0  0  0  0  0  0  0  0  0  0  0
   -5.3491   -1.1169   -2.2339 C   0  0  0  0  0  0  0  0  0  0  0  0
   -5.3223   -0.2211   -2.8750 H   0  0  0  0  0  0  0  0  0  0  0  0
   -6.1322   -1.7605   -2.6658 H   0  0  0  0  0  0  0  0  0  0  0  0
   -5.7568   -0.7715   -1.2704 H   0  0  0  0  0  0  0  0  0  0  0  0
   -3.2124   -1.3578   -1.1289 N   0  0  0  0  0  0  0  0  0  0  0  0
   -1.8971   -1.8843   -0.8752 C   0  0  2  0  0  0  0  0  0  0  0  0
   -1.2676   -1.0599    0.2399 C   0  0  0  0  0  0  0  0  0  0  0  0
   -1.6270    0.0833    0.5138 O   0  0  0  0  0  0  0  0  0  0  0  0
   -1.0364   -1.8506   -2.1285 C   0  0  0  0  0  0  0  0  0  0  0  0
   -3.5631   -0.6202   -0.5206 H   0  0  0  0  0  0  0  0  0  0  0  0
   -2.0301   -2.9174   -0.5360 H   0  0  0  0  0  0  0  0  0  0  0  0
   -0.8921   -0.8236   -2.4833 H   0  0  0  0  0  0  0  0  0  0  0  0
   -0.0457   -2.2777   -1.9410 H   0  0  0  0  0  0  0  0  0  0  0  0
   -1.5052   -2.4193   -2.9387 H   0  0  0  0  0  0  0  0  0  0  0  0
   -0.2267   -1.7335    0.8672 N   0  0  0  0  0  0  0  0  0  0  0  0
    0.5363   -1.1590    1.9465 C   0  0  2  0  0  0  0  0  0  0  0  0
   -0.1661   -1.5374    3.2454 C   0  0  0  0  0  0  0  0  0  0  0  0
    0.2801   -2.3716    4.0304 O   0  0  0  0  0  0  0  0  0  0  0  0
    0.6466    0.3586    1.8188 C   0  0  0  0  0  0  0  0  0  0  0  0
    1.5040    0.8848    0.6606 C   0  0  0  0  0  0  0  0  0  0  0  0
    2.4423    0.1081    0.3186 O   0  5  0  0  0  0  0  0  0  0  0  0
    1.1912    2.0138    0.1933 O   0  0  0  0  0  0  0  0  0  0  0  0
   -0.0113   -2.6869    0.5854 H   0  0  0  0  0  0  0  0  0  0  0  0
    1.5247   -1.6316    1.9204 H   0  0  0  0  0  0  0  0  0  0  0  0
    1.0451    0.7797    2.7519 H   0  0  0  0  0  0  0  0  0  0  0  0
   -0.3533    0.7917    1.6851 H   0  0  0  0  0  0  0  0  0  0  0  0
   -1.3217   -0.7961    3.4487 N   0  0  0  0  0  0  0  0  0  0  0  0
   -2.1501   -0.9452    4.6226 C   0  0  2  0  0  0  0  0  0  0  0  0
   -3.5894   -0.6481    4.2232 C   0  0  0  0  0  0  0  0  0  0  0  0
   -3.8871    0.0263    3.2395 O   0  0  0  0  0  0  0  0  0  0  0  0
   -1.6949   -0.0219    5.7420 C   0  0  0  0  0  0  0  0  0  0  0  0
   -1.5896   -0.0920    2.7673 H   0  0  0  0  0  0  0  0  0  0  0  0
   -2.0664   -1.9909    4.9379 H   0  0  0  0  0  0  0  0  0  0  0  0
   -1.7716    1.0303    5.4445 H   0  0  0  0  0  0  0  0  0  0  0  0
   -2.3060   -0.1566    6.6406 H   0  0  0  0  0  0  0  0  0  0  0  0
   -0.6503   -0.2169    6.0075 H   0  0  0  0  0  0  0  0  0  0  0  0
   -4.5017   -1.1884    5.1188 N   0  0  0  0  0  0  0  0  0  0  0  0
   -5.9295   -1.0336    4.9661 C   0  0  0  0  0  0  0  0  0  0  0  0
   -4.1663   -1.7494    5.8963 H   0  0  0  0  0  0  0  0  0  0  0  0
   -6.2648   -0.1481    5.5259 H   0  0  0  0  0  0  0  0  0  0  0  0
   -6.1726   -0.9074    3.9007 H   0  0  0  0  0  0  0  0  0  0  0  0
   -6.4388   -1.9277    5.3549 H   0  0  0  0  0  0  0  0  0  0  0  0
  1  3  1  0  0  0  0
  1  7  1  0  0  0  0
  1  2  2  0  0  0  0
 30 31  1  0  0  0  0
 31 39  1  0  0  0  0
 31 32  2  0  0  0  0
  8  9  1  0  0  0  0
  9 17  1  0  0  0  0
  9 10  2  0  0  0  0
 18 19  1  0  0  0  0
 19 29  1  0  0  0  0
 19 20  2  0  0  0  0
 21 22  1  0  0  0  0
 22 23  1  0  0  0  0
 22 24  2  0  0  0  0
 30 33  1  0  0  0  0
  8 11  1  0  0  0  0
 39 40  1  0  0  0  0
 18 21  1  0  0  0  0
 29 30  1  0  0  0  0
  7  8  1  0  0  0  0
 17 18  1  0  0  0  0
  3  4  1  0  0  0  0
  3  5  1  0  0  0  0
  3  6  1  0  0  0  0
 33 36  1  0  0  0  0
 33 37  1  0  0  0  0
 33 38  1  0  0  0  0
 11 14  1  0  0  0  0
 11 15  1  0  0  0  0
 11 16  1  0  0  0  0
 40 42  1  0  0  0  0
 40 43  1  0  0  0  0
 40 44  1  0  0  0  0
 21 27  1  0  0  0  0
 21 28  1  0  0  0  0
 30 35  1  0  0  0  0
  8 13  1  0  0  0  0
 18 26  1  0  0  0  0
 39 41  1  0  0  0  0
  7 12  1  0  0  0  0
 29 34  1  0  0  0  0
 17 25  1  0  0  0  0
M  CHG  1  23  -1
M  END
$$$$

  -OEChem-05262214473D

 44 43  0     1  0  0  0  0  0999 V2000
   -4.0256   -1.8030   -2.1581 C   0  0  0  0  0  0  0  0  0  0  0  0
   -3.7513   -2.6782   -2.9709 O   0  0  0  0  0  0  0  0  0  0  0  0
   -5.3491   -1.1169   -2.2339 C   0  0  0  0  0  0  0  0  0  0  0  0
   -5.3223   -0.2211   -2.8750 H   0  0  0  0  0  0  0  0  0  0  0  0
   -6.1322   -1.7605   -2.6658 H   0  0  0  0  0  0  0  0  0  0  0  0
   -5.7568   -0.7715   -1.2704 H   0  0  0  0  0  0  0  0  0  0  0  0
   -3.2124   -1.3578   -1.1289 N   0  0  0  0  0  0  0  0  0  0  0  0
   -1.8971   -1.8843   -0.8752 C   0  0  2  0  0  0  0  0  0  0  0  0
   -1.2676   -1.0599    0.2399 C   0  0  0  0  0  0  0  0  0  0  0  0
   -1.6270    0.0833    0.5138 O   0  0  0  0  0  0  0  0  0  0  0  0
   -1.0364   -1.8506   -2.1285 C   0  0  0  0  0  0  0  0  0  0  0  0
   -3.5631   -0.6202   -0.5206 H   0  0  0  0  0  0  0  0  0  0  0  0
   -2.0301   -2.9174   -0.5360 H   0  0  0  0  0  0  0  0  0  0  0  0
   -0.8921   -0.8236   -2.4833 H   0  0  0  0  0  0  0  0  0  0  0  0
   -0.0457   -2.2777   -1.9410 H   0  0  0  0  0  0  0  0  0  0  0  0
   -1.5052   -2.4193   -2.9387 H   0  0  0  0  0  0  0  0  0  0  0  0
   -0.2267   -1.7335    0.8672 N   0  0  0  0  0  0  0  0  0  0  0  0
    0.5363   -1.1590    1.9465 C   0  0  2  0  0  0  0  0  0  0  0  0
   -0.1661   -1.5374    3.2454 C   0  0  0  0  0  0  0  0  0  0  0  0
    0.3879   -2.1569    4.1513 O   0  0  0  0  0  0  0  0  0  0  0  0
    0.6466    0.3586    1.8188 C   0  0  0  0  0  0  0  0  0  0  0  0
    1.5040    0.8848    0.6606 C   0  0  0  0  0  0  0  0  0  0  0  0
    2.4423    0.1081    0.3186 O   0  5  0  0  0  0  0  0  0  0  0  0
    1.1912    2.0138    0.1933 O   0  0  0  0  0  0  0  0  0  0  0  0
   -0.0113   -2.6869    0.5854 H   0  0  0  0  0  0  0  0  0  0  0  0
    1.5247   -1.6316    1.9204 H   0  0  0  0  0  0  0  0  0  0  0  0
    1.0451    0.7797    2.7519 H   0  0  0  0  0  0  0  0  0  0  0  0
   -0.3533    0.7917    1.6851 H   0  0  0  0  0  0  0  0  0  0  0  0
   -1.4670   -1.0564    3.2943 N   0  0  0  0  0  0  0  0  0  0  0  0
   -2.3320   -1.2551    4.4339 C   0  0  2  0  0  0  0  0  0  0  0  0
   -3.7661   -1.3353    3.9275 C   0  0  0  0  0  0  0  0  0  0  0  0
   -4.1255   -0.8595    2.8526 O   0  0  0  0  0  0  0  0  0  0  0  0
   -2.1760   -0.1338    5.4493 C   0  0  0  0  0  0  0  0  0  0  0  0
   -1.8274   -0.5113    2.5166 H   0  0  0  0  0  0  0  0  0  0  0  0
   -2.0485   -2.2133    4.8828 H   0  0  0  0  0  0  0  0  0  0  0  0
   -2.4555    0.8342    5.0176 H   0  0  0  0  0  0  0  0  0  0  0  0
   -2.8112   -0.3007    6.3255 H   0  0  0  0  0  0  0  0  0  0  0  0
   -1.1378   -0.0583    5.7901 H   0  0  0  0  0  0  0  0  0  0  0  0
   -4.6063   -1.9627    4.8367 N   0  0  0  0  0  0  0  0  0  0  0  0
   -6.0175   -2.1504    4.5931 C   0  0  0  0  0  0  0  0  0  0  0  0
   -4.2187   -2.3434    5.6949 H   0  0  0  0  0  0  0  0  0  0  0  0
   -6.5791   -1.3058    5.0187 H   0  0  0  0  0  0  0  0  0  0  0  0
   -6.1987   -2.2022    3.5094 H   0  0  0  0  0  0  0  0  0  0  0  0
   -6.3496   -3.0867    5.0656 H   0  0  0  0  0  0  0  0  0  0  0  0
  1  3  1  0  0  0  0
  1  7  1  0  0  0  0
  1  2  2  0  0  0  0
 30 31  1  0  0  0  0
 31 39  1  0  0  0  0
 31 32  2  0  0  0  0
  8  9  1  0  0  0  0
  9 17  1  0  0  0  0
  9 10  2  0  0  0  0
 18 19  1  0  0  0  0
 19 29  1  0  0  0  0
 19 20  2  0  0  0  0
 21 22  1  0  0  0  0
 22 23  1  0  0  0  0
 22 24  2  0  0  0  0
 30 33  1  0  0  0  0
  8 11  1  0  0  0  0
 39 40  1  0  0  0  0
 18 21  1  0  0  0  0
 29 30  1  0  0  0  0
  7  8  1  0  0  0  0
 17 18  1  0  0  0  0
  3  4  1  0  0  0  0
  3  5  1  0  0  0  0
  3  6  1  0  0  0  0
 33 36  1  0  0  0  0
 33 37  1  0  0  0  0
 33 38  1  0  0  0  0
 11 14  1  0  0  0  0
 11 15  1  0  0  0  0
 11 16  1  0  0  0  0
 40 42  1  0  0  0  0
 40 43  1  0  0  0  0
 40 44  1  0  0  0  0
 21 27  1  0  0  0  0
 21 28  1  0  0  0  0
 30 35  1  0  0  0  0
  8 13  1  0  0  0  0
 18 26  1  0  0  0  0
 39 41  1  0  0  0  0
  7 12  1  0  0  0  0
 29 34  1  0  0  0  0
 17 25  1  0  0  0  0
M  CHG  1  23  -1
M  END
$$$$

  -OEChem-05262214473D

 44 43  0     1  0  0  0  0  0999 V2000
   -4.0256   -1.8030   -2.1581 C   0  0  0  0  0  0  0  0  0  0  0  0
   -3.7513   -2.6782   -2.9709 O   0  0  0  0  0  0  0  0  0  0  0  0
   -5.3491   -1.1169   -2.2339 C   0  0  0  0  0  0  0  0  0  0  0  0
   -5.3223   -0.2211   -2.8750 H   0  0  0  0  0  0  0  0  0  0  0  0
   -6.1322   -1.7605   -2.6658 H   0  0  0  0  0  0  0  0  0  0  0  0
   -5.7568   -0.7715   -1.2704 H   0  0  0  0  0  0  0  0  0  0  0  0
   -3.2124   -1.3578   -1.1289 N   0  0  0  0  0  0  0  0  0  0  0  0
   -1.8971   -1.8843   -0.8752 C   0  0  2  0  0  0  0  0  0  0  0  0
   -1.2676   -1.0599    0.2399 C   0  0  0  0  0  0  0  0  0  0  0  0
   -1.6270    0.0833    0.5138 O   0  0  0  0  0  0  0  0  0  0  0  0
   -1.0364   -1.8506   -2.1285 C   0  0  0  0  0  0  0  0  0  0  0  0
   -3.5631   -0.6202   -0.5206 H   0  0  0  0  0  0  0  0  0  0  0  0
   -2.0301   -2.9174   -0.5360 H   0  0  0  0  0  0  0  0  0  0  0  0
   -0.8921   -0.8236   -2.4833 H   0  0  0  0  0  0  0  0  0  0  0  0
   -0.0457   -2.2777   -1.9410 H   0  0  0  0  0  0  0  0  0  0  0  0
   -1.5052   -2.4193   -2.9387 H   0  0  0  0  0  0  0  0  0  0  0  0
   -0.2267   -1.7335    0.8672 N   0  0  0  0  0  0  0  0  0  0  0  0
    0.5363   -1.1590    1.9465 C   0  0  2  0  0  0  0  0  0  0  0  0
   -0.1661   -1.5374    3.2454 C   0  0  0  0  0  0  0  0  0  0  0  0
    0.4369   -1.9112    4.2493 O   0  0  0  0  0  0  0  0  0  0  0  0
    0.6466    0.3586    1.8188 C   0  0  0  0  0  0  0  0  0  0  0  0
    1.5040    0.8848    0.6606 C   0  0  0  0  0  0  0  0  0  0  0  0
    2.4423    0.1081    0.3186 O   0  5  0  0  0  0  0  0  0  0  0  0
    1.1912    2.0138    0.1933 O   0  0  0  0  0  0  0  0  0  0  0  0
   -0.0113   -2.6869    0.5854 H   0  0  0  0  0  0  0  0  0  0  0  0
    1.5247   -1.6316    1.9204 H   0  0  0  0  0  0  0  0  0  0  0  0
    1.0451    0.7797    2.7519 H   0  0  0  0  0  0  0  0  0  0  0  0
   -0.3533    0.7917    1.6851 H   0  0  0  0  0  0  0  0  0  0  0  0
   -1.5401   -1.3583    3.1669 N   0  0  0  0  0  0  0  0  0  0  0  0
   -2.4273   -1.6171    4.2770 C   0  0  2  0  0  0  0  0  0  0  0  0
   -3.7662   -2.0733    3.7125 C   0  0  0  0  0  0  0  0  0  0  0  0
   -4.1356   -1.8139    2.5691 O   0  0  0  0  0  0  0  0  0  0  0  0
   -2.5972   -0.3828    5.1490 C   0  0  0  0  0  0  0  0  0  0  0  0
   -1.9486   -0.9986    2.3092 H   0  0  0  0  0  0  0  0  0  0  0  0
   -1.9786   -2.4307    4.8573 H   0  0  0  0  0  0  0  0  0  0  0  0
   -3.0454    0.4431    4.5847 H   0  0  0  0  0  0  0  0  0  0  0  0
   -3.2472   -0.5888    6.0058 H   0  0  0  0  0  0  0  0  0  0  0  0
   -1.6296   -0.0386    5.5299 H   0  0  0  0  0  0  0  0  0  0  0  0
   -4.5185   -2.7674    4.6498 N   0  0  0  0  0  0  0  0  0  0  0  0
   -5.8322   -3.2931    4.3605 C   0  0  0  0  0  0  0  0  0  0  0  0
   -4.1254   -2.9528    5.5679 H   0  0  0  0  0  0  0  0  0  0  0  0
   -6.5948   -2.5539    4.6467 H   0  0  0  0  0  0  0  0  0  0  0  0
   -5.9132   -3.5053    3.2842 H   0  0  0  0  0  0  0  0  0  0  0  0
   -5.9893   -4.2210    4.9300 H   0  0  0  0  0  0  0  0  0  0  0  0
  1  3  1  0  0  0  0
  1  7  1  0  0  0  0
  1  2  2  0  0  0  0
 30 31  1  0  0  0  0
 31 39  1  0  0  0  0
 31 32  2  0  0  0  0
  8  9  1  0  0  0  0
  9 17  1  0  0  0  0
  9 10  2  0  0  0  0
 18 19  1  0  0  0  0
 19 29  1  0  0  0  0
 19 20  2  0  0  0  0
 21 22  1  0  0  0  0
 22 23  1  0  0  0  0
 22 24  2  0  0  0  0
 30 33  1  0  0  0  0
  8 11  1  0  0  0  0
 39 40  1  0  0  0  0
 18 21  1  0  0  0  0
 29 30  1  0  0  0  0
  7  8  1  0  0  0  0
 17 18  1  0  0  0  0
  3  4  1  0  0  0  0
  3  5  1  0  0  0  0
  3  6  1  0  0  0  0
 33 36  1  0  0  0  0
 33 37  1  0  0  0  0
 33 38  1  0  0  0  0
 11 14  1  0  0  0  0
 11 15  1  0  0  0  0
 11 16  1  0  0  0  0
 40 42  1  0  0  0  0
 40 43  1  0  0  0  0
 40 44  1  0  0  0  0
 21 27  1  0  0  0  0
 21 28  1  0  0  0  0
 30 35  1  0  0  0  0
  8 13  1  0  0  0  0
 18 26  1  0  0  0  0
 39 41  1  0  0  0  0
  7 12  1  0  0  0  0
 29 34  1  0  0  0  0
 17 25  1  0  0  0  0
M  CHG  1  23  -1
M  END
$$$$

  -OEChem-05262214473D

 44 43  0     1  0  0  0  0  0999 V2000
   -4.0256   -1.8030   -2.1581 C   0  0  0  0  0  0  0  0  0  0  0  0
   -3.7513   -2.6782   -2.9709 O   0  0  0  0  0  0  0  0  0  0  0  0
   -5.3491   -1.1169   -2.2339 C   0  0  0  0  0  0  0  0  0  0  0  0
   -5.3223   -0.2211   -2.8750 H   0  0  0  0  0  0  0  0  0  0  0  0
   -6.1322   -1.7605   -2.6658 H   0  0  0  0  0  0  0  0  0  0  0  0
   -5.7568   -0.7715   -1.2704 H   0  0  0  0  0  0  0  0  0  0  0  0
   -3.2124   -1.3578   -1.1289 N   0  0  0  0  0  0  0  0  0  0  0  0
   -1.8971   -1.8843   -0.8752 C   0  0  2  0  0  0  0  0  0  0  0  0
   -1.2676   -1.0599    0.2399 C   0  0  0  0  0  0  0  0  0  0  0  0
   -1.6270    0.0833    0.5138 O   0  0  0  0  0  0  0  0  0  0  0  0
   -1.0364   -1.8506   -2.1285 C   0  0  0  0  0  0  0  0  0  0  0  0
   -3.5631   -0.6202   -0.5206 H   0  0  0  0  0  0  0  0  0  0  0  0
   -2.0301   -2.9174   -0.5360 H   0  0  0  0  0  0  0  0  0  0  0  0
   -0.8921   -0.8236   -2.4833 H   0  0  0  0  0  0  0  0  0  0  0  0
   -0.0457   -2.2777   -1.9410 H   0  0  0  0  0  0  0  0  0  0  0  0
   -1.5052   -2.4193   -2.9387 H   0  0  0  0  0  0  0  0  0  0  0  0
   -0.2267   -1.7335    0.8672 N   0  0  0  0  0  0  0  0  0  0  0  0
    0.5363   -1.1590    1.9465 C   0  0  2  0  0  0  0  0  0  0  0  0
   -0.1661   -1.5374    3.2454 C   0  0  0  0  0  0  0  0  0  0  0  0
    0.4238   -1.6515    4.3179 O   0  0  0  0  0  0  0  0  0  0  0  0
    0.6466    0.3586    1.8188 C   0  0  0  0  0  0  0  0  0  0  0  0
    1.5040    0.8848    0.6606 C   0  0  0  0  0  0  0  0  0  0  0  0
    2.4423    0.1081    0.3186 O   0  5  0  0  0  0  0  0  0  0  0  0
    1.1912    2.0138    0.1933 O   0  0  0  0  0  0  0  0  0  0  0  0
   -0.0113   -2.6869    0.5854 H   0  0  0  0  0  0  0  0  0  0  0  0
    1.5247   -1.6316    1.9204 H   0  0  0  0  0  0  0  0  0  0  0  0
    1.0451    0.7797    2.7519 H   0  0  0  0  0  0  0  0  0  0  0  0
   -0.3533    0.7917    1.6851 H   0  0  0  0  0  0  0  0  0  0  0  0
   -1.5360   -1.6812    3.0751 N   0  0  0  0  0  0  0  0  0  0  0  0
   -2.4294   -2.0065    4.1624 C   0  0  2  0  0  0  0  0  0  0  0  0
   -3.5897   -2.8119    3.5928 C   0  0  0  0  0  0  0  0  0  0  0  0
   -3.9166   -2.7717    2.4085 O   0  0  0  0  0  0  0  0  0  0  0  0
   -2.9298   -0.7521    4.8616 C   0  0  0  0  0  0  0  0  0  0  0  0
   -1.9448   -1.5208    2.1591 H   0  0  0  0  0  0  0  0  0  0  0  0
   -1.8616   -2.6284    4.8630 H   0  0  0  0  0  0  0  0  0  0  0  0
   -3.5011   -0.1164    4.1753 H   0  0  0  0  0  0  0  0  0  0  0  0
   -3.5843   -1.0014    5.7033 H   0  0  0  0  0  0  0  0  0  0  0  0
   -2.0924   -0.1590    5.2446 H   0  0  0  0  0  0  0  0  0  0  0  0
   -4.2442   -3.5475    4.5709 N   0  0  0  0  0  0  0  0  0  0  0  0
   -5.3863   -4.3838    4.2839 C   0  0  0  0  0  0  0  0  0  0  0  0
   -3.8928   -3.5359    5.5238 H   0  0  0  0  0  0  0  0  0  0  0  0
   -6.3108   -3.8072    4.4352 H   0  0  0  0  0  0  0  0  0  0  0  0
   -5.3356   -4.7280    3.2404 H   0  0  0  0  0  0  0  0  0  0  0  0
   -5.3823   -5.2534    4.9575 H   0  0  0  0  0  0  0  0  0  0  0  0
  1  3  1  0  0  0  0
  1  7  1  0  0  0  0
  1  2  2  0  0  0  0
 30 31  1  0  0  0  0
 31 39  1  0  0  0  0
 31 32  2  0  0  0  0
  8  9  1  0  0  0  0
  9 17  1  0  0  0  0
  9 10  2  0  0  0  0
 18 19  1  0  0  0  0
 19 29  1  0  0  0  0
 19 20  2  0  0  0  0
 21 22  1  0  0  0  0
 22 23  1  0  0  0  0
 22 24  2  0  0  0  0
 30 33  1  0  0  0  0
  8 11  1  0  0  0  0
 39 40  1  0  0  0  0
 18 21  1  0  0  0  0
 29 30  1  0  0  0  0
  7  8  1  0  0  0  0
 17 18  1  0  0  0  0
  3  4  1  0  0  0  0
  3  5  1  0  0  0  0
  3  6  1  0  0  0  0
 33 36  1  0  0  0  0
 33 37  1  0  0  0  0
 33 38  1  0  0  0  0
 11 14  1  0  0  0  0
 11 15  1  0  0  0  0
 11 16  1  0  0  0  0
 40 42  1  0  0  0  0
 40 43  1  0  0  0  0
 40 44  1  0  0  0  0
 21 27  1  0  0  0  0
 21 28  1  0  0  0  0
 30 35  1  0  0  0  0
  8 13  1  0  0  0  0
 18 26  1  0  0  0  0
 39 41  1  0  0  0  0
  7 12  1  0  0  0  0
 29 34  1  0  0  0  0
 17 25  1  0  0  0  0
M  CHG  1  23  -1
M  END
$$$$

  -OEChem-05262214473D

 44 43  0     1  0  0  0  0  0999 V2000
   -4.0256   -1.8030   -2.1581 C   0  0  0  0  0  0  0  0  0  0  0  0
   -3.7513   -2.6782   -2.9709 O   0  0  0  0  0  0  0  0  0  0  0  0
   -5.3491   -1.1169   -2.2339 C   0  0  0  0  0  0  0  0  0  0  0  0
   -5.3223   -0.2211   -2.8750 H   0  0  0  0  0  0  0  0  0  0  0  0
   -6.1322   -1.7605   -2.6658 H   0  0  0  0  0  0  0  0  0  0  0  0
   -5.7568   -0.7715   -1.2704 H   0  0  0  0  0  0  0  0  0  0  0  0
   -3.2124   -1.3578   -1.1289 N   0  0  0  0  0  0  0  0  0  0  0  0
   -1.8971   -1.8843   -0.8752 C   0  0  2  0  0  0  0  0  0  0  0  0
   -1.2676   -1.0599    0.2399 C   0  0  0  0  0  0  0  0  0  0  0  0
   -1.6270    0.0833    0.5138 O   0  0  0  0  0  0  0  0  0  0  0  0
   -1.0364   -1.8506   -2.1285 C   0  0  0  0  0  0  0  0  0  0  0  0
   -3.5631   -0.6202   -0.5206 H   0  0  0  0  0  0  0  0  0  0  0  0
   -2.0301   -2.9174   -0.5360 H   0  0  0  0  0  0  0  0  0  0  0  0
   -0.8921   -0.8236   -2.4833 H   0  0  0  0  0  0  0  0  0  0  0  0
   -0.0457   -2.2777   -1.9410 H   0  0  0  0  0  0  0  0  0  0  0  0
   -1.5052   -2.4193   -2.9387 H   0  0  0  0  0  0  0  0  0  0  0  0
   -0.2267   -1.7335    0.8672 N   0  0  0  0  0  0  0  0  0  0  0  0
    0.5363   -1.1590    1.9465 C   0  0  2  0  0  0  0  0  0  0  0  0
   -0.1661   -1.5374    3.2454 C   0  0  0  0  0  0  0  0  0  0  0  0
    0.3495   -1.3952    4.3523 O   0  0  0  0  0  0  0  0  0  0  0  0
    0.6466    0.3586    1.8188 C   0  0  0  0  0  0  0  0  0  0  0  0
    1.5040    0.8848    0.6606 C   0  0  0  0  0  0  0  0  0  0  0  0
    2.4423    0.1081    0.3186 O   0  5  0  0  0  0  0  0  0  0  0  0
    1.1912    2.0138    0.1933 O   0  0  0  0  0  0  0  0  0  0  0  0
   -0.0113   -2.6869    0.5854 H   0  0  0  0  0  0  0  0  0  0  0  0
    1.5247   -1.6316    1.9204 H   0  0  0  0  0  0  0  0  0  0  0  0
    1.0451    0.7797    2.7519 H   0  0  0  0  0  0  0  0  0  0  0  0
   -0.3533    0.7917    1.6851 H   0  0  0  0  0  0  0  0  0  0  0  0
   -1.4548   -2.0031    3.0252 N   0  0  0  0  0  0  0  0  0  0  0  0
   -2.3382   -2.3967    4.0981 C   0  0  2  0  0  0  0  0  0  0  0  0
   -3.2487   -3.5006    3.5766 C   0  0  0  0  0  0  0  0  0  0  0  0
   -3.4836   -3.6678    2.3816 O   0  0  0  0  0  0  0  0  0  0  0  0
   -3.1512   -1.2164    4.6066 C   0  0  0  0  0  0  0  0  0  0  0  0
   -1.8163   -2.0423    2.0767 H   0  0  0  0  0  0  0  0  0  0  0  0
   -1.7052   -2.7928    4.8997 H   0  0  0  0  0  0  0  0  0  0  0  0
   -3.7916   -0.8062    3.8173 H   0  0  0  0  0  0  0  0  0  0  0  0
   -3.7994   -1.5103    5.4388 H   0  0  0  0  0  0  0  0  0  0  0  0
   -2.4945   -0.4114    4.9537 H   0  0  0  0  0  0  0  0  0  0  0  0
   -3.8021   -4.2501    4.6053 N   0  0  0  0  0  0  0  0  0  0  0  0
   -4.7101   -5.3480    4.3686 C   0  0  0  0  0  0  0  0  0  0  0  0
   -3.5366   -4.0532    5.5657 H   0  0  0  0  0  0  0  0  0  0  0  0
   -5.7465   -4.9805    4.3986 H   0  0  0  0  0  0  0  0  0  0  0  0
   -4.5052   -5.7868    3.3810 H   0  0  0  0  0  0  0  0  0  0  0  0
   -4.5701   -6.1135    5.1461 H   0  0  0  0  0  0  0  0  0  0  0  0
  1  3  1  0  0  0  0
  1  7  1  0  0  0  0
  1  2  2  0  0  0  0
 30 31  1  0  0  0  0
 31 39  1  0  0  0  0
 31 32  2  0  0  0  0
  8  9  1  0  0  0  0
  9 17  1  0  0  0  0
  9 10  2  0  0  0  0
 18 19  1  0  0  0  0
 19 29  1  0  0  0  0
 19 20  2  0  0  0  0
 21 22  1  0  0  0  0
 22 23  1  0  0  0  0
 22 24  2  0  0  0  0
 30 33  1  0  0  0  0
  8 11  1  0  0  0  0
 39 40  1  0  0  0  0
 18 21  1  0  0  0  0
 29 30  1  0  0  0  0
  7  8  1  0  0  0  0
 17 18  1  0  0  0  0
  3  4  1  0  0  0  0
  3  5  1  0  0  0  0
  3  6  1  0  0  0  0
 33 36  1  0  0  0  0
 33 37  1  0  0  0  0
 33 38  1  0  0  0  0
 11 14  1  0  0  0  0
 11 15  1  0  0  0  0
 11 16  1  0  0  0  0
 40 42  1  0  0  0  0
 40 43  1  0  0  0  0
 40 44  1  0  0  0  0
 21 27  1  0  0  0  0
 21 28  1  0  0  0  0
 30 35  1  0  0  0  0
  8 13  1  0  0  0  0
 18 26  1  0  0  0  0
 39 41  1  0  0  0  0
  7 12  1  0  0  0  0
 29 34  1  0  0  0  0
 17 25  1  0  0  0  0
M  CHG  1  23  -1
M  END
$$$$

  -OEChem-05262214473D

 44 43  0     1  0  0  0  0  0999 V2000
   -4.0256   -1.8030   -2.1581 C   0  0  0  0  0  0  0  0  0  0  0  0
   -3.7513   -2.6782   -2.9709 O   0  0  0  0  0  0  0  0  0  0  0  0
   -5.3491   -1.1169   -2.2339 C   0  0  0  0  0  0  0  0  0  0  0  0
   -5.3223   -0.2211   -2.8750 H   0  0  0  0  0  0  0  0  0  0  0  0
   -6.1322   -1.7605   -2.6658 H   0  0  0  0  0  0  0  0  0  0  0  0
   -5.7568   -0.7715   -1.2704 H   0  0  0  0  0  0  0  0  0  0  0  0
   -3.2124   -1.3578   -1.1289 N   0  0  0  0  0  0  0  0  0  0  0  0
   -1.8971   -1.8843   -0.8752 C   0  0  2  0  0  0  0  0  0  0  0  0
   -1.2676   -1.0599    0.2399 C   0  0  0  0  0  0  0  0  0  0  0  0
   -1.6270    0.0833    0.5138 O   0  0  0  0  0  0  0  0  0  0  0  0
   -1.0364   -1.8506   -2.1285 C   0  0  0  0  0  0  0  0  0  0  0  0
   -3.5631   -0.6202   -0.5206 H   0  0  0  0  0  0  0  0  0  0  0  0
   -2.0301   -2.9174   -0.5360 H   0  0  0  0  0  0  0  0  0  0  0  0
   -0.8921   -0.8236   -2.4833 H   0  0  0  0  0  0  0  0  0  0  0  0
   -0.0457   -2.2777   -1.9410 H   0  0  0  0  0  0  0  0  0  0  0  0
   -1.5052   -2.4193   -2.9387 H   0  0  0  0  0  0  0  0  0  0  0  0
   -0.2267   -1.7335    0.8672 N   0  0  0  0  0  0  0  0  0  0  0  0
    0.5363   -1.1590    1.9465 C   0  0  2  0  0  0  0  0  0  0  0  0
   -0.1661   -1.5374    3.2454 C   0  0  0  0  0  0  0  0  0  0  0  0
    0.2189   -1.1601    4.3503 O   0  0  0  0  0  0  0  0  0  0  0  0
    0.6466    0.3586    1.8188 C   0  0  0  0  0  0  0  0  0  0  0  0
    1.5040    0.8848    0.6606 C   0  0  0  0  0  0  0  0  0  0  0  0
    2.4423    0.1081    0.3186 O   0  5  0  0  0  0  0  0  0  0  0  0
    1.1912    2.0138    0.1933 O   0  0  0  0  0  0  0  0  0  0  0  0
   -0.0113   -2.6869    0.5854 H   0  0  0  0  0  0  0  0  0  0  0  0
    1.5247   -1.6316    1.9204 H   0  0  0  0  0  0  0  0  0  0  0  0
    1.0451    0.7797    2.7519 H   0  0  0  0  0  0  0  0  0  0  0  0
   -0.3533    0.7917    1.6851 H   0  0  0  0  0  0  0  0  0  0  0  0
   -1.3022   -2.3022    3.0206 N   0  0  0  0  0  0  0  0  0  0  0  0
   -2.1599   -2.7612    4.0883 C   0  0  2  0  0  0  0  0  0  0  0  0
   -2.7663   -4.0926    3.6650 C   0  0  0  0  0  0  0  0  0  0  0  0
   -2.8660   -4.4411    2.4904 O   0  0  0  0  0  0  0  0  0  0  0  0
   -3.2463   -1.7442    4.4015 C   0  0  0  0  0  0  0  0  0  0  0  0
   -1.5719   -2.5275    2.0675 H   0  0  0  0  0  0  0  0  0  0  0  0
   -1.5203   -2.9127    4.9647 H   0  0  0  0  0  0  0  0  0  0  0  0
   -3.8971   -1.5792    3.5351 H   0  0  0  0  0  0  0  0  0  0  0  0
   -3.8780   -2.0809    5.2301 H   0  0  0  0  0  0  0  0  0  0  0  0
   -2.8085   -0.7786    4.6769 H   0  0  0  0  0  0  0  0  0  0  0  0
   -3.2224   -4.8270    4.7507 N   0  0  0  0  0  0  0  0  0  0  0  0
   -3.8498   -6.1202    4.6089 C   0  0  0  0  0  0  0  0  0  0  0  0
   -3.0812   -4.4693    5.6908 H   0  0  0  0  0  0  0  0  0  0  0  0
   -4.9403   -5.9936    4.5394 H   0  0  0  0  0  0  0  0  0  0  0  0
   -3.4787   -6.6096    3.6964 H   0  0  0  0  0  0  0  0  0  0  0  0
   -3.6080   -6.7427    5.4830 H   0  0  0  0  0  0  0  0  0  0  0  0
  1  3  1  0  0  0  0
  1  7  1  0  0  0  0
  1  2  2  0  0  0  0
 30 31  1  0  0  0  0
 31 39  1  0  0  0  0
 31 32  2  0  0  0  0
  8  9  1  0  0  0  0
  9 17  1  0  0  0  0
  9 10  2  0  0  0  0
 18 19  1  0  0  0  0
 19 29  1  0  0  0  0
 19 20  2  0  0  0  0
 21 22  1  0  0  0  0
 22 23  1  0  0  0  0
 22 24  2  0  0  0  0
 30 33  1  0  0  0  0
  8 11  1  0  0  0  0
 39 40  1  0  0  0  0
 18 21  1  0  0  0  0
 29 30  1  0  0  0  0
  7  8  1  0  0  0  0
 17 18  1  0  0  0  0
  3  4  1  0  0  0  0
  3  5  1  0  0  0  0
  3  6  1  0  0  0  0
 33 36  1  0  0  0  0
 33 37  1  0  0  0  0
 33 38  1  0  0  0  0
 11 14  1  0  0  0  0
 11 15  1  0  0  0  0
 11 16  1  0  0  0  0
 40 42  1  0  0  0  0
 40 43  1  0  0  0  0
 40 44  1  0  0  0  0
 21 27  1  0  0  0  0
 21 28  1  0  0  0  0
 30 35  1  0  0  0  0
  8 13  1  0  0  0  0
 18 26  1  0  0  0  0
 39 41  1  0  0  0  0
  7 12  1  0  0  0  0
 29 34  1  0  0  0  0
 17 25  1  0  0  0  0
M  CHG  1  23  -1
M  END
$$$$

  -OEChem-05262214473D

 44 43  0     1  0  0  0  0  0999 V2000
   -4.0256   -1.8030   -2.1581 C   0  0  0  0  0  0  0  0  0  0  0  0
   -3.7513   -2.6782   -2.9709 O   0  0  0  0  0  0  0  0  0  0  0  0
   -5.3491   -1.1169   -2.2339 C   0  0  0  0  0  0  0  0  0  0  0  0
   -5.3223   -0.2211   -2.8750 H   0  0  0  0  0  0  0  0  0  0  0  0
   -6.1322   -1.7605   -2.6658 H   0  0  0  0  0  0  0  0  0  0  0  0
   -5.7568   -0.7715   -1.2704 H   0  0  0  0  0  0  0  0  0  0  0  0
   -3.2124   -1.3578   -1.1289 N   0  0  0  0  0  0  0  0  0  0  0  0
   -1.8971   -1.8843   -0.8752 C   0  0  2  0  0  0  0  0  0  0  0  0
   -1.2676   -1.0599    0.2399 C   0  0  0  0  0  0  0  0  0  0  0  0
   -1.6270    0.0833    0.5138 O   0  0  0  0  0  0  0  0  0  0  0  0
   -1.0364   -1.8506   -2.1285 C   0  0  0  0  0  0  0  0  0  0  0  0
   -3.5631   -0.6202   -0.5206 H   0  0  0  0  0  0  0  0  0  0  0  0
   -2.0301   -2.9174   -0.5360 H   0  0  0  0  0  0  0  0  0  0  0  0
   -0.8921   -0.8236   -2.4833 H   0  0  0  0  0  0  0  0  0  0  0  0
   -0.0457   -2.2777   -1.9410 H   0  0  0  0  0  0  0  0  0  0  0  0
   -1.5052   -2.4193   -2.9387 H   0  0  0  0  0  0  0  0  0  0  0  0
   -0.2267   -1.7335    0.8672 N   0  0  0  0  0  0  0  0  0  0  0  0
    0.5363   -1.1590    1.9465 C   0  0  2  0  0  0  0  0  0  0  0  0
   -0.1661   -1.5374    3.2454 C   0  0  0  0  0  0  0  0  0  0  0  0
    0.0411   -0.9619    4.3118 O   0  0  0  0  0  0  0  0  0  0  0  0
    0.6466    0.3586    1.8188 C   0  0  0  0  0  0  0  0  0  0  0  0
    1.5040    0.8848    0.6606 C   0  0  0  0  0  0  0  0  0  0  0  0
    2.4423    0.1081    0.3186 O   0  5  0  0  0  0  0  0  0  0  0  0
    1.1912    2.0138    0.1933 O   0  0  0  0  0  0  0  0  0  0  0  0
   -0.0113   -2.6869    0.5854 H   0  0  0  0  0  0  0  0  0  0  0  0
    1.5247   -1.6316    1.9204 H   0  0  0  0  0  0  0  0  0  0  0  0
    1.0451    0.7797    2.7519 H   0  0  0  0  0  0  0  0  0  0  0  0
   -0.3533    0.7917    1.6851 H   0  0  0  0  0  0  0  0  0  0  0  0
   -1.0886   -2.5579    3.0616 N   0  0  0  0  0  0  0  0  0  0  0  0
   -1.9066   -3.0751    4.1338 C   0  0  2  0  0  0  0  0  0  0  0  0
   -2.1755   -4.5475    3.8519 C   0  0  0  0  0  0  0  0  0  0  0  0
   -2.1058   -5.0388    2.7273 O   0  0  0  0  0  0  0  0  0  0  0  0
   -3.2085   -2.2994    4.2602 C   0  0  0  0  0  0  0  0  0  0  0  0
   -1.2282   -2.9433    2.1322 H   0  0  0  0  0  0  0  0  0  0  0  0
   -1.3195   -2.9801    5.0537 H   0  0  0  0  0  0  0  0  0  0  0  0
   -3.8104   -2.3828    3.3479 H   0  0  0  0  0  0  0  0  0  0  0  0
   -3.8147   -2.6742    5.0915 H   0  0  0  0  0  0  0  0  0  0  0  0
   -3.0131   -1.2356    4.4332 H   0  0  0  0  0  0  0  0  0  0  0  0
   -2.5445   -5.2392    4.9972 N   0  0  0  0  0  0  0  0  0  0  0  0
   -2.8639   -6.6477    4.9884 C   0  0  0  0  0  0  0  0  0  0  0  0
   -2.5576   -4.7558    5.8904 H   0  0  0  0  0  0  0  0  0  0  0  0
   -3.9471   -6.7777    4.8480 H   0  0  0  0  0  0  0  0  0  0  0  0
   -2.3259   -7.1404    4.1651 H   0  0  0  0  0  0  0  0  0  0  0  0
   -2.5616   -7.0981    5.9453 H   0  0  0  0  0  0  0  0  0  0  0  0
  1  3  1  0  0  0  0
  1  7  1  0  0  0  0
  1  2  2  0  0  0  0
 30 31  1  0  0  0  0
 31 39  1  0  0  0  0
 31 32  2  0  0  0  0
  8  9  1  0  0  0  0
  9 17  1  0  0  0  0
  9 10  2  0  0  0  0
 18 19  1  0  0  0  0
 19 29  1  0  0  0  0
 19 20  2  0  0  0  0
 21 22  1  0  0  0  0
 22 23  1  0  0  0  0
 22 24  2  0  0  0  0
 30 33  1  0  0  0  0
  8 11  1  0  0  0  0
 39 40  1  0  0  0  0
 18 21  1  0  0  0  0
 29 30  1  0  0  0  0
  7  8  1  0  0  0  0
 17 18  1  0  0  0  0
  3  4  1  0  0  0  0
  3  5  1  0  0  0  0
  3  6  1  0  0  0  0
 33 36  1  0  0  0  0
 33 37  1  0  0  0  0
 33 38  1  0  0  0  0
 11 14  1  0  0  0  0
 11 15  1  0  0  0  0
 11 16  1  0  0  0  0
 40 42  1  0  0  0  0
 40 43  1  0  0  0  0
 40 44  1  0  0  0  0
 21 27  1  0  0  0  0
 21 28  1  0  0  0  0
 30 35  1  0  0  0  0
  8 13  1  0  0  0  0
 18 26  1  0  0  0  0
 39 41  1  0  0  0  0
  7 12  1  0  0  0  0
 29 34  1  0  0  0  0
 17 25  1  0  0  0  0
M  CHG  1  23  -1
M  END
$$$$

  -OEChem-05262214473D

 44 43  0     1  0  0  0  0  0999 V2000
   -4.0256   -1.8030   -2.1581 C   0  0  0  0  0  0  0  0  0  0  0  0
   -3.7513   -2.6782   -2.9709 O   0  0  0  0  0  0  0  0  0  0  0  0
   -5.3491   -1.1169   -2.2339 C   0  0  0  0  0  0  0  0  0  0  0  0
   -5.3223   -0.2211   -2.8750 H   0  0  0  0  0  0  0  0  0  0  0  0
   -6.1322   -1.7605   -2.6658 H   0  0  0  0  0  0  0  0  0  0  0  0
   -5.7568   -0.7715   -1.2704 H   0  0  0  0  0  0  0  0  0  0  0  0
   -3.2124   -1.3578   -1.1289 N   0  0  0  0  0  0  0  0  0  0  0  0
   -1.8971   -1.8843   -0.8752 C   0  0  2  0  0  0  0  0  0  0  0  0
   -1.2676   -1.0599    0.2399 C   0  0  0  0  0  0  0  0  0  0  0  0
   -1.6270    0.0833    0.5138 O   0  0  0  0  0  0  0  0  0  0  0  0
   -1.0364   -1.8506   -2.1285 C   0  0  0  0  0  0  0  0  0  0  0  0
   -3.5631   -0.6202   -0.5206 H   0  0  0  0  0  0  0  0  0  0  0  0
   -2.0301   -2.9174   -0.5360 H   0  0  0  0  0  0  0  0  0  0  0  0
   -0.8921   -0.8236   -2.4833 H   0  0  0  0  0  0  0  0  0  0  0  0
   -0.0457   -2.2777   -1.9410 H   0  0  0  0  0  0  0  0  0  0  0  0
   -1.5052   -2.4193   -2.9387 H   0  0  0  0  0  0  0  0  0  0  0  0
   -0.2267   -1.7335    0.8672 N   0  0  0  0  0  0  0  0  0  0  0  0
    0.5363   -1.1590    1.9465 C   0  0  2  0  0  0  0  0  0  0  0  0
   -0.1661   -1.5374    3.2454 C   0  0  0  0  0  0  0  0  0  0  0  0
   -0.1719   -0.8143    4.2396 O   0  0  0  0  0  0  0  0  0  0  0  0
    0.6466    0.3586    1.8188 C   0  0  0  0  0  0  0  0  0  0  0  0
    1.5040    0.8848    0.6606 C   0  0  0  0  0  0  0  0  0  0  0  0
    2.4423    0.1081    0.3186 O   0  5  0  0  0  0  0  0  0  0  0  0
    1.1912    2.0138    0.1933 O   0  0  0  0  0  0  0  0  0  0  0  0
   -0.0113   -2.6869    0.5854 H   0  0  0  0  0  0  0  0  0  0  0  0
    1.5247   -1.6316    1.9204 H   0  0  0  0  0  0  0  0  0  0  0  0
    1.0451    0.7797    2.7519 H   0  0  0  0  0  0  0  0  0  0  0  0
   -0.3533    0.7917    1.6851 H   0  0  0  0  0  0  0  0  0  0  0  0
   -0.8285   -2.7529    3.1454 N   0  0  0  0  0  0  0  0  0  0  0  0
   -1.5957   -3.3171    4.2314 C   0  0  2  0  0  0  0  0  0  0  0  0
   -1.5165   -4.8343    4.1247 C   0  0  0  0  0  0  0  0  0  0  0  0
   -1.2550   -5.4202    3.0762 O   0  0  0  0  0  0  0  0  0  0  0  0
   -3.0405   -2.8441    4.1923 C   0  0  0  0  0  0  0  0  0  0  0  0
   -0.8087   -3.2615    2.2664 H   0  0  0  0  0  0  0  0  0  0  0  0
   -1.1163   -2.9902    5.1606 H   0  0  0  0  0  0  0  0  0  0  0  0
   -3.5374   -3.1622    3.2685 H   0  0  0  0  0  0  0  0  0  0  0  0
   -3.6137   -3.2499    5.0324 H   0  0  0  0  0  0  0  0  0  0  0  0
   -3.0942   -1.7511    4.2391 H   0  0  0  0  0  0  0  0  0  0  0  0
   -1.8146   -5.4583    5.3280 N   0  0  0  0  0  0  0  0  0  0  0  0
   -1.8196   -6.8945    5.4811 C   0  0  0  0  0  0  0  0  0  0  0  0
   -2.0014   -4.8933    6.1511 H   0  0  0  0  0  0  0  0  0  0  0  0
   -2.8347   -7.2792    5.3034 H   0  0  0  0  0  0  0  0  0  0  0  0
   -1.1254   -7.3429    4.7552 H   0  0  0  0  0  0  0  0  0  0  0  0
   -1.5022   -7.1554    6.5015 H   0  0  0  0  0  0  0  0  0  0  0  0
  1  3  1  0  0  0  0
  1  7  1  0  0  0  0
  1  2  2  0  0  0  0
 30 31  1  0  0  0  0
 31 39  1  0  0  0  0
 31 32  2  0  0  0  0
  8  9  1  0  0  0  0
  9 17  1  0  0  0  0
  9 10  2  0  0  0  0
 18 19  1  0  0  0  0
 19 29  1  0  0  0  0
 19 20  2  0  0  0  0
 21 22  1  0  0  0  0
 22 23  1  0  0  0  0
 22 24  2  0  0  0  0
 30 33  1  0  0  0  0
  8 11  1  0  0  0  0
 39 40  1  0  0  0  0
 18 21  1  0  0  0  0
 29 30  1  0  0  0  0
  7  8  1  0  0  0  0
 17 18  1  0  0  0  0
  3  4  1  0  0  0  0
  3  5  1  0  0  0  0
  3  6  1  0  0  0  0
 33 36  1  0  0  0  0
 33 37  1  0  0  0  0
 33 38  1  0  0  0  0
 11 14  1  0  0  0  0
 11 15  1  0  0  0  0
 11 16  1  0  0  0  0
 40 42  1  0  0  0  0
 40 43  1  0  0  0  0
 40 44  1  0  0  0  0
 21 27  1  0  0  0  0
 21 28  1  0  0  0  0
 30 35  1  0  0  0  0
  8 13  1  0  0  0  0
 18 26  1  0  0  0  0
 39 41  1  0  0  0  0
  7 12  1  0  0  0  0
 29 34  1  0  0  0  0
 17 25  1  0  0  0  0
M  CHG  1  23  -1
M  END
$$$$

  -OEChem-05262214473D

 44 43  0     1  0  0  0  0  0999 V2000
   -4.0256   -1.8030   -2.1581 C   0  0  0  0  0  0  0  0  0  0  0  0
   -3.7513   -2.6782   -2.9709 O   0  0  0  0  0  0  0  0  0  0  0  0
   -5.3491   -1.1169   -2.2339 C   0  0  0  0  0  0  0  0  0  0  0  0
   -5.3223   -0.2211   -2.8750 H   0  0  0  0  0  0  0  0  0  0  0  0
   -6.1322   -1.7605   -2.6658 H   0  0  0  0  0  0  0  0  0  0  0  0
   -5.7568   -0.7715   -1.2704 H   0  0  0  0  0  0  0  0  0  0  0  0
   -3.2124   -1.3578   -1.1289 N   0  0  0  0  0  0  0  0  0  0  0  0
   -1.8971   -1.8843   -0.8752 C   0  0  2  0  0  0  0  0  0  0  0  0
   -1.2676   -1.0599    0.2399 C   0  0  0  0  0  0  0  0  0  0  0  0
   -1.6270    0.0833    0.5138 O   0  0  0  0  0  0  0  0  0  0  0  0
   -1.0364   -1.8506   -2.1285 C   0  0  0  0  0  0  0  0  0  0  0  0
   -3.5631   -0.6202   -0.5206 H   0  0  0  0  0  0  0  0  0  0  0  0
   -2.0301   -2.9174   -0.5360 H   0  0  0  0  0  0  0  0  0  0  0  0
   -0.8921   -0.8236   -2.4833 H   0  0  0  0  0  0  0  0  0  0  0  0
   -0.0457   -2.2777   -1.9410 H   0  0  0  0  0  0  0  0  0  0  0  0
   -1.5052   -2.4193   -2.9387 H   0  0  0  0  0  0  0  0  0  0  0  0
   -0.2267   -1.7335    0.8672 N   0  0  0  0  0  0  0  0  0  0  0  0
    0.5363   -1.1590    1.9465 C   0  0  2  0  0  0  0  0  0  0  0  0
   -0.1661   -1.5374    3.2454 C   0  0  0  0  0  0  0  0  0  0  0  0
   -0.4056   -0.7274    4.1386 O   0  0  0  0  0  0  0  0  0  0  0  0
    0.6466    0.3586    1.8188 C   0  0  0  0  0  0  0  0  0  0  0  0
    1.5040    0.8848    0.6606 C   0  0  0  0  0  0  0  0  0  0  0  0
    2.4423    0.1081    0.3186 O   0  5  0  0  0  0  0  0  0  0  0  0
    1.1912    2.0138    0.1933 O   0  0  0  0  0  0  0  0  0  0  0  0
   -0.0113   -2.6869    0.5854 H   0  0  0  0  0  0  0  0  0  0  0  0
    1.5247   -1.6316    1.9204 H   0  0  0  0  0  0  0  0  0  0  0  0
    1.0451    0.7797    2.7519 H   0  0  0  0  0  0  0  0  0  0  0  0
   -0.3533    0.7917    1.6851 H   0  0  0  0  0  0  0  0  0  0  0  0
   -0.5396   -2.8739    3.2664 N   0  0  0  0  0  0  0  0  0  0  0  0
   -1.2483   -3.4706    4.3746 C   0  0  2  0  0  0  0  0  0  0  0  0
   -0.8342   -4.9334    4.4647 C   0  0  0  0  0  0  0  0  0  0  0  0
   -0.3714   -5.5594    3.5135 O   0  0  0  0  0  0  0  0  0  0  0  0
   -2.7538   -3.3414    4.2025 C   0  0  0  0  0  0  0  0  0  0  0  0
   -0.3420   -3.4603    2.4608 H   0  0  0  0  0  0  0  0  0  0  0  0
   -0.9247   -2.9425    5.2781 H   0  0  0  0  0  0  0  0  0  0  0  0
   -3.0966   -3.8644    3.3023 H   0  0  0  0  0  0  0  0  0  0  0  0
   -3.2889   -3.7687    5.0570 H   0  0  0  0  0  0  0  0  0  0  0  0
   -3.0465   -2.2901    4.1080 H   0  0  0  0  0  0  0  0  0  0  0  0
   -1.0826   -5.4696    5.7205 N   0  0  0  0  0  0  0  0  0  0  0  0
   -0.7882   -6.8438    6.0536 C   0  0  0  0  0  0  0  0  0  0  0  0
   -1.4507   -4.8723    6.4550 H   0  0  0  0  0  0  0  0  0  0  0  0
   -1.6789   -7.4640    5.8746 H   0  0  0  0  0  0  0  0  0  0  0  0
    0.0409   -7.2035    5.4265 H   0  0  0  0  0  0  0  0  0  0  0  0
   -0.5019   -6.9108    7.1136 H   0  0  0  0  0  0  0  0  0  0  0  0
  1  3  1  0  0  0  0
  1  7  1  0  0  0  0
  1  2  2  0  0  0  0
 30 31  1  0  0  0  0
 31 39  1  0  0  0  0
 31 32  2  0  0  0  0
  8  9  1  0  0  0  0
  9 17  1  0  0  0  0
  9 10  2  0  0  0  0
 18 19  1  0  0  0  0
 19 29  1  0  0  0  0
 19 20  2  0  0  0  0
 21 22  1  0  0  0  0
 22 23  1  0  0  0  0
 22 24  2  0  0  0  0
 30 33  1  0  0  0  0
  8 11  1  0  0  0  0
 39 40  1  0  0  0  0
 18 21  1  0  0  0  0
 29 30  1  0  0  0  0
  7  8  1  0  0  0  0
 17 18  1  0  0  0  0
  3  4  1  0  0  0  0
  3  5  1  0  0  0  0
  3  6  1  0  0  0  0
 33 36  1  0  0  0  0
 33 37  1  0  0  0  0
 33 38  1  0  0  0  0
 11 14  1  0  0  0  0
 11 15  1  0  0  0  0
 11 16  1  0  0  0  0
 40 42  1  0  0  0  0
 40 43  1  0  0  0  0
 40 44  1  0  0  0  0
 21 27  1  0  0  0  0
 21 28  1  0  0  0  0
 30 35  1  0  0  0  0
  8 13  1  0  0  0  0
 18 26  1  0  0  0  0
 39 41  1  0  0  0  0
  7 12  1  0  0  0  0
 29 34  1  0  0  0  0
 17 25  1  0  0  0  0
M  CHG  1  23  -1
M  END
$$$$

  -OEChem-05262214473D

 44 43  0     1  0  0  0  0  0999 V2000
   -4.0256   -1.8030   -2.1581 C   0  0  0  0  0  0  0  0  0  0  0  0
   -3.7513   -2.6782   -2.9709 O   0  0  0  0  0  0  0  0  0  0  0  0
   -5.3491   -1.1169   -2.2339 C   0  0  0  0  0  0  0  0  0  0  0  0
   -5.3223   -0.2211   -2.8750 H   0  0  0  0  0  0  0  0  0  0  0  0
   -6.1322   -1.7605   -2.6658 H   0  0  0  0  0  0  0  0  0  0  0  0
   -5.7568   -0.7715   -1.2704 H   0  0  0  0  0  0  0  0  0  0  0  0
   -3.2124   -1.3578   -1.1289 N   0  0  0  0  0  0  0  0  0  0  0  0
   -1.8971   -1.8843   -0.8752 C   0  0  2  0  0  0  0  0  0  0  0  0
   -1.2676   -1.0599    0.2399 C   0  0  0  0  0  0  0  0  0  0  0  0
   -1.6270    0.0833    0.5138 O   0  0  0  0  0  0  0  0  0  0  0  0
   -1.0364   -1.8506   -2.1285 C   0  0  0  0  0  0  0  0  0  0  0  0
   -3.5631   -0.6202   -0.5206 H   0  0  0  0  0  0  0  0  0  0  0  0
   -2.0301   -2.9174   -0.5360 H   0  0  0  0  0  0  0  0  0  0  0  0
   -0.8921   -0.8236   -2.4833 H   0  0  0  0  0  0  0  0  0  0  0  0
   -0.0457   -2.2777   -1.9410 H   0  0  0  0  0  0  0  0  0  0  0  0
   -1.5052   -2.4193   -2.9387 H   0  0  0  0  0  0  0  0  0  0  0  0
   -0.2267   -1.7335    0.8672 N   0  0  0  0  0  0  0  0  0  0  0  0
    0.5363   -1.1590    1.9465 C   0  0  2  0  0  0  0  0  0  0  0  0
   -0.1661   -1.5374    3.2454 C   0  0  0  0  0  0  0  0  0  0  0  0
   -0.6440   -0.7070    4.0157 O   0  0  0  0  0  0  0  0  0  0  0  0
    0.6466    0.3586    1.8188 C   0  0  0  0  0  0  0  0  0  0  0  0
    1.5040    0.8848    0.6606 C   0  0  0  0  0  0  0  0  0  0  0  0
    2.4423    0.1081    0.3186 O   0  5  0  0  0  0  0  0  0  0  0  0
    1.1912    2.0138    0.1933 O   0  0  0  0  0  0  0  0  0  0  0  0
   -0.0113   -2.6869    0.5854 H   0  0  0  0  0  0  0  0  0  0  0  0
    1.5247   -1.6316    1.9204 H   0  0  0  0  0  0  0  0  0  0  0  0
    1.0451    0.7797    2.7519 H   0  0  0  0  0  0  0  0  0  0  0  0
   -0.3533    0.7917    1.6851 H   0  0  0  0  0  0  0  0  0  0  0  0
   -0.2416   -2.9127    3.4162 N   0  0  0  0  0  0  0  0  0  0  0  0
   -0.8881   -3.5251    4.5535 C   0  0  2  0  0  0  0  0  0  0  0  0
   -0.1752   -4.8382    4.8488 C   0  0  0  0  0  0  0  0  0  0  0  0
    0.4847   -5.4469    4.0091 O   0  0  0  0  0  0  0  0  0  0  0  0
   -2.3678   -3.7573    4.2901 C   0  0  0  0  0  0  0  0  0  0  0  0
    0.1403   -3.5262    2.7024 H   0  0  0  0  0  0  0  0  0  0  0  0
   -0.7577   -2.8400    5.3982 H   0  0  0  0  0  0  0  0  0  0  0  0
   -2.5183   -4.4413    3.4469 H   0  0  0  0  0  0  0  0  0  0  0  0
   -2.8623   -4.1953    5.1634 H   0  0  0  0  0  0  0  0  0  0  0  0
   -2.8730   -2.8159    4.0486 H   0  0  0  0  0  0  0  0  0  0  0  0
   -0.3982   -5.2723    6.1481 N   0  0  0  0  0  0  0  0  0  0  0  0
    0.1602   -6.4991    6.6668 C   0  0  0  0  0  0  0  0  0  0  0  0
   -0.9428   -4.6944    6.7815 H   0  0  0  0  0  0  0  0  0  0  0  0
   -0.5584   -7.3194    6.5226 H   0  0  0  0  0  0  0  0  0  0  0  0
    1.0936   -6.7315    6.1332 H   0  0  0  0  0  0  0  0  0  0  0  0
    0.3710   -6.3810    7.7399 H   0  0  0  0  0  0  0  0  0  0  0  0
  1  3  1  0  0  0  0
  1  7  1  0  0  0  0
  1  2  2  0  0  0  0
 30 31  1  0  0  0  0
 31 39  1  0  0  0  0
 31 32  2  0  0  0  0
  8  9  1  0  0  0  0
  9 17  1  0  0  0  0
  9 10  2  0  0  0  0
 18 19  1  0  0  0  0
 19 29  1  0  0  0  0
 19 20  2  0  0  0  0
 21 22  1  0  0  0  0
 22 23  1  0  0  0  0
 22 24  2  0  0  0  0
 30 33  1  0  0  0  0
  8 11  1  0  0  0  0
 39 40  1  0  0  0  0
 18 21  1  0  0  0  0
 29 30  1  0  0  0  0
  7  8  1  0  0  0  0
 17 18  1  0  0  0  0
  3  4  1  0  0  0  0
  3  5  1  0  0  0  0
  3  6  1  0  0  0  0
 33 36  1  0  0  0  0
 33 37  1  0  0  0  0
 33 38  1  0  0  0  0
 11 14  1  0  0  0  0
 11 15  1  0  0  0  0
 11 16  1  0  0  0  0
 40 42  1  0  0  0  0
 40 43  1  0  0  0  0
 40 44  1  0  0  0  0
 21 27  1  0  0  0  0
 21 28  1  0  0  0  0
 30 35  1  0  0  0  0
  8 13  1  0  0  0  0
 18 26  1  0  0  0  0
 39 41  1  0  0  0  0
  7 12  1  0  0  0  0
 29 34  1  0  0  0  0
 17 25  1  0  0  0  0
M  CHG  1  23  -1
M  END
$$$$

  -OEChem-05262214473D

 44 43  0     1  0  0  0  0  0999 V2000
   -4.0256   -1.8030   -2.1581 C   0  0  0  0  0  0  0  0  0  0  0  0
   -3.7513   -2.6782   -2.9709 O   0  0  0  0  0  0  0  0  0  0  0  0
   -5.3491   -1.1169   -2.2339 C   0  0  0  0  0  0  0  0  0  0  0  0
   -5.3223   -0.2211   -2.8750 H   0  0  0  0  0  0  0  0  0  0  0  0
   -6.1322   -1.7605   -2.6658 H   0  0  0  0  0  0  0  0  0  0  0  0
   -5.7568   -0.7715   -1.2704 H   0  0  0  0  0  0  0  0  0  0  0  0
   -3.2124   -1.3578   -1.1289 N   0  0  0  0  0  0  0  0  0  0  0  0
   -1.8971   -1.8843   -0.8752 C   0  0  2  0  0  0  0  0  0  0  0  0
   -1.2676   -1.0599    0.2399 C   0  0  0  0  0  0  0  0  0  0  0  0
   -1.6270    0.0833    0.5138 O   0  0  0  0  0  0  0  0  0  0  0  0
   -1.0364   -1.8506   -2.1285 C   0  0  0  0  0  0  0  0  0  0  0  0
   -3.5631   -0.6202   -0.5206 H   0  0  0  0  0  0  0  0  0  0  0  0
   -2.0301   -2.9174   -0.5360 H   0  0  0  0  0  0  0  0  0  0  0  0
   -0.8921   -0.8236   -2.4833 H   0  0  0  0  0  0  0  0  0  0  0  0
   -0.0457   -2.2777   -1.9410 H   0  0  0  0  0  0  0  0  0  0  0  0
   -1.5052   -2.4193   -2.9387 H   0  0  0  0  0  0  0  0  0  0  0  0
   -0.2267   -1.7335    0.8672 N   0  0  0  0  0  0  0  0  0  0  0  0
    0.5363   -1.1590    1.9465 C   0  0  2  0  0  0  0  0  0  0  0  0
   -0.1661   -1.5374    3.2454 C   0  0  0  0  0  0  0  0  0  0  0  0
   -0.8708   -0.7545    3.8792 O   0  0  0  0  0  0  0  0  0  0  0  0
    0.6466    0.3586    1.8188 C   0  0  0  0  0  0  0  0  0  0  0  0
    1.5040    0.8848    0.6606 C   0  0  0  0  0  0  0  0  0  0  0  0
    2.4423    0.1081    0.3186 O   0  5  0  0  0  0  0  0  0  0  0  0
    1.1912    2.0138    0.1933 O   0  0  0  0  0  0  0  0  0  0  0  0
   -0.0113   -2.6869    0.5854 H   0  0  0  0  0  0  0  0  0  0  0  0
    1.5247   -1.6316    1.9204 H   0  0  0  0  0  0  0  0  0  0  0  0
    1.0451    0.7797    2.7519 H   0  0  0  0  0  0  0  0  0  0  0  0
   -0.3533    0.7917    1.6851 H   0  0  0  0  0  0  0  0  0  0  0  0
    0.0451   -2.8665    3.5847 N   0  0  0  0  0  0  0  0  0  0  0  0
   -0.5396   -3.4771    4.7559 C   0  0  2  0  0  0  0  0  0  0  0  0
    0.4157   -4.5550    5.2508 C   0  0  0  0  0  0  0  0  0  0  0  0
    1.2549   -5.0902    4.5295 O   0  0  0  0  0  0  0  0  0  0  0  0
   -1.9088   -4.0634    4.4491 C   0  0  0  0  0  0  0  0  0  0  0  0
    0.6051   -3.4547    2.9745 H   0  0  0  0  0  0  0  0  0  0  0  0
   -0.6267   -2.6900    5.5128 H   0  0  0  0  0  0  0  0  0  0  0  0
   -1.8416   -4.8538    3.6927 H   0  0  0  0  0  0  0  0  0  0  0  0
   -2.3629   -4.5006    5.3445 H   0  0  0  0  0  0  0  0  0  0  0  0
   -2.5857   -3.2926    4.0651 H   0  0  0  0  0  0  0  0  0  0  0  0
    0.1919   -4.8797    6.5815 N   0  0  0  0  0  0  0  0  0  0  0  0
    0.9608   -5.8839    7.2789 C   0  0  0  0  0  0  0  0  0  0  0  0
   -0.5125   -4.3716    7.1082 H   0  0  0  0  0  0  0  0  0  0  0  0
    0.4504   -6.8554    7.2032 H   0  0  0  0  0  0  0  0  0  0  0  0
    1.9609   -5.9591    6.8271 H   0  0  0  0  0  0  0  0  0  0  0  0
    1.0571   -5.6020    8.3378 H   0  0  0  0  0  0  0  0  0  0  0  0
  1  3  1  0  0  0  0
  1  7  1  0  0  0  0
  1  2  2  0  0  0  0
 30 31  1  0  0  0  0
 31 39  1  0  0  0  0
 31 32  2  0  0  0  0
  8  9  1  0  0  0  0
  9 17  1  0  0  0  0
  9 10  2  0  0  0  0
 18 19  1  0  0  0  0
 19 29  1  0  0  0  0
 19 20  2  0  0  0  0
 21 22  1  0  0  0  0
 22 23  1  0  0  0  0
 22 24  2  0  0  0  0
 30 33  1  0  0  0  0
  8 11  1  0  0  0  0
 39 40  1  0  0  0  0
 18 21  1  0  0  0  0
 29 30  1  0  0  0  0
  7  8  1  0  0  0  0
 17 18  1  0  0  0  0
  3  4  1  0  0  0  0
  3  5  1  0  0  0  0
  3  6  1  0  0  0  0
 33 36  1  0  0  0  0
 33 37  1  0  0  0  0
 33 38  1  0  0  0  0
 11 14  1  0  0  0  0
 11 15  1  0  0  0  0
 11 16  1  0  0  0  0
 40 42  1  0  0  0  0
 40 43  1  0  0  0  0
 40 44  1  0  0  0  0
 21 27  1  0  0  0  0
 21 28  1  0  0  0  0
 30 35  1  0  0  0  0
  8 13  1  0  0  0  0
 18 26  1  0  0  0  0
 39 41  1  0  0  0  0
  7 12  1  0  0  0  0
 29 34  1  0  0  0  0
 17 25  1  0  0  0  0
M  CHG  1  23  -1
M  END
$$$$

  -OEChem-05262214473D

 44 43  0     1  0  0  0  0  0999 V2000
   -4.0256   -1.8030   -2.1581 C   0  0  0  0  0  0  0  0  0  0  0  0
   -3.7513   -2.6782   -2.9709 O   0  0  0  0  0  0  0  0  0  0  0  0
   -5.3491   -1.1169   -2.2339 C   0  0  0  0  0  0  0  0  0  0  0  0
   -5.3223   -0.2211   -2.8750 H   0  0  0  0  0  0  0  0  0  0  0  0
   -6.1322   -1.7605   -2.6658 H   0  0  0  0  0  0  0  0  0  0  0  0
   -5.7568   -0.7715   -1.2704 H   0  0  0  0  0  0  0  0  0  0  0  0
   -3.2124   -1.3578   -1.1289 N   0  0  0  0  0  0  0  0  0  0  0  0
   -1.8971   -1.8843   -0.8752 C   0  0  2  0  0  0  0  0  0  0  0  0
   -1.2676   -1.0599    0.2399 C   0  0  0  0  0  0  0  0  0  0  0  0
   -1.6270    0.0833    0.5138 O   0  0  0  0  0  0  0  0  0  0  0  0
   -1.0364   -1.8506   -2.1285 C   0  0  0  0  0  0  0  0  0  0  0  0
   -3.5631   -0.6202   -0.5206 H   0  0  0  0  0  0  0  0  0  0  0  0
   -2.0301   -2.9174   -0.5360 H   0  0  0  0  0  0  0  0  0  0  0  0
   -0.8921   -0.8236   -2.4833 H   0  0  0  0  0  0  0  0  0  0  0  0
   -0.0457   -2.2777   -1.9410 H   0  0  0  0  0  0  0  0  0  0  0  0
   -1.5052   -2.4193   -2.9387 H   0  0  0  0  0  0  0  0  0  0  0  0
   -0.2267   -1.7335    0.8672 N   0  0  0  0  0  0  0  0  0  0  0  0
    0.5363   -1.1590    1.9465 C   0  0  2  0  0  0  0  0  0  0  0  0
   -0.1661   -1.5374    3.2454 C   0  0  0  0  0  0  0  0  0  0  0  0
   -1.0707   -0.8667    3.7384 O   0  0  0  0  0  0  0  0  0  0  0  0
    0.6466    0.3586    1.8188 C   0  0  0  0  0  0  0  0  0  0  0  0
    1.5040    0.8848    0.6606 C   0  0  0  0  0  0  0  0  0  0  0  0
    2.4423    0.1081    0.3186 O   0  5  0  0  0  0  0  0  0  0  0  0
    1.1912    2.0138    0.1933 O   0  0  0  0  0  0  0  0  0  0  0  0
   -0.0113   -2.6869    0.5854 H   0  0  0  0  0  0  0  0  0  0  0  0
    1.5247   -1.6316    1.9204 H   0  0  0  0  0  0  0  0  0  0  0  0
    1.0451    0.7797    2.7519 H   0  0  0  0  0  0  0  0  0  0  0  0
   -0.3533    0.7917    1.6851 H   0  0  0  0  0  0  0  0  0  0  0  0
    0.3011   -2.7386    3.7604 N   0  0  0  0  0  0  0  0  0  0  0  0
   -0.2266   -3.3296    4.9681 C   0  0  2  0  0  0  0  0  0  0  0  0
    0.8982   -4.1033    5.6433 C   0  0  0  0  0  0  0  0  0  0  0  0
    1.8868   -4.5138    5.0391 O   0  0  0  0  0  0  0  0  0  0  0  0
   -1.4082   -4.2389    4.6687 C   0  0  0  0  0  0  0  0  0  0  0  0
    1.0208   -3.2507    3.2587 H   0  0  0  0  0  0  0  0  0  0  0  0
   -0.5406   -2.5025    5.6140 H   0  0  0  0  0  0  0  0  0  0  0  0
   -1.1129   -5.0737    4.0226 H   0  0  0  0  0  0  0  0  0  0  0  0
   -1.8249   -4.6637    5.5879 H   0  0  0  0  0  0  0  0  0  0  0  0
   -2.2041   -3.6877    4.1563 H   0  0  0  0  0  0  0  0  0  0  0  0
    0.6475   -4.3187    6.9912 N   0  0  0  0  0  0  0  0  0  0  0  0
    1.5592   -5.0401    7.8482 C   0  0  0  0  0  0  0  0  0  0  0  0
   -0.1890   -3.9259    7.4129 H   0  0  0  0  0  0  0  0  0  0  0  0
    1.2788   -6.1035    7.8701 H   0  0  0  0  0  0  0  0  0  0  0  0
    2.5838   -4.9390    7.4610 H   0  0  0  0  0  0  0  0  0  0  0  0
    1.5096   -4.6269    8.8665 H   0  0  0  0  0  0  0  0  0  0  0  0
  1  3  1  0  0  0  0
  1  7  1  0  0  0  0
  1  2  2  0  0  0  0
 30 31  1  0  0  0  0
 31 39  1  0  0  0  0
 31 32  2  0  0  0  0
  8  9  1  0  0  0  0
  9 17  1  0  0  0  0
  9 10  2  0  0  0  0
 18 19  1  0  0  0  0
 19 29  1  0  0  0  0
 19 20  2  0  0  0  0
 21 22  1  0  0  0  0
 22 23  1  0  0  0  0
 22 24  2  0  0  0  0
 30 33  1  0  0  0  0
  8 11  1  0  0  0  0
 39 40  1  0  0  0  0
 18 21  1  0  0  0  0
 29 30  1  0  0  0  0
  7  8  1  0  0  0  0
 17 18  1  0  0  0  0
  3  4  1  0  0  0  0
  3  5  1  0  0  0  0
  3  6  1  0  0  0  0
 33 36  1  0  0  0  0
 33 37  1  0  0  0  0
 33 38  1  0  0  0  0
 11 14  1  0  0  0  0
 11 15  1  0  0  0  0
 11 16  1  0  0  0  0
 40 42  1  0  0  0  0
 40 43  1  0  0  0  0
 40 44  1  0  0  0  0
 21 27  1  0  0  0  0
 21 28  1  0  0  0  0
 30 35  1  0  0  0  0
  8 13  1  0  0  0  0
 18 26  1  0  0  0  0
 39 41  1  0  0  0  0
  7 12  1  0  0  0  0
 29 34  1  0  0  0  0
 17 25  1  0  0  0  0
M  CHG  1  23  -1
M  END
$$$$

  -OEChem-05262214473D

 44 43  0     1  0  0  0  0  0999 V2000
   -4.0256   -1.8030   -2.1581 C   0  0  0  0  0  0  0  0  0  0  0  0
   -3.7513   -2.6782   -2.9709 O   0  0  0  0  0  0  0  0  0  0  0  0
   -5.3491   -1.1169   -2.2339 C   0  0  0  0  0  0  0  0  0  0  0  0
   -5.3223   -0.2211   -2.8750 H   0  0  0  0  0  0  0  0  0  0  0  0
   -6.1322   -1.7605   -2.6658 H   0  0  0  0  0  0  0  0  0  0  0  0
   -5.7568   -0.7715   -1.2704 H   0  0  0  0  0  0  0  0  0  0  0  0
   -3.2124   -1.3578   -1.1289 N   0  0  0  0  0  0  0  0  0  0  0  0
   -1.8971   -1.8843   -0.8752 C   0  0  2  0  0  0  0  0  0  0  0  0
   -1.2676   -1.0599    0.2399 C   0  0  0  0  0  0  0  0  0  0  0  0
   -1.6270    0.0833    0.5138 O   0  0  0  0  0  0  0  0  0  0  0  0
   -1.0364   -1.8506   -2.1285 C   0  0  0  0  0  0  0  0  0  0  0  0
   -3.5631   -0.6202   -0.5206 H   0  0  0  0  0  0  0  0  0  0  0  0
   -2.0301   -2.9174   -0.5360 H   0  0  0  0  0  0  0  0  0  0  0  0
   -0.8921   -0.8236   -2.4833 H   0  0  0  0  0  0  0  0  0  0  0  0
   -0.0457   -2.2777   -1.9410 H   0  0  0  0  0  0  0  0  0  0  0  0
   -1.5052   -2.4193   -2.9387 H   0  0  0  0  0  0  0  0  0  0  0  0
   -0.2267   -1.7335    0.8672 N   0  0  0  0  0  0  0  0  0  0  0  0
    0.5363   -1.1590    1.9465 C   0  0  2  0  0  0  0  0  0  0  0  0
   -0.1661   -1.5374    3.2454 C   0  0  0  0  0  0  0  0  0  0  0  0
   -1.2300   -1.0359    3.6030 O   0  0  0  0  0  0  0  0  0  0  0  0
    0.6466    0.3586    1.8188 C   0  0  0  0  0  0  0  0  0  0  0  0
    1.5040    0.8848    0.6606 C   0  0  0  0  0  0  0  0  0  0  0  0
    2.4423    0.1081    0.3186 O   0  5  0  0  0  0  0  0  0  0  0  0
    1.1912    2.0138    0.1933 O   0  0  0  0  0  0  0  0  0  0  0  0
   -0.0113   -2.6869    0.5854 H   0  0  0  0  0  0  0  0  0  0  0  0
    1.5247   -1.6316    1.9204 H   0  0  0  0  0  0  0  0  0  0  0  0
    1.0451    0.7797    2.7519 H   0  0  0  0  0  0  0  0  0  0  0  0
   -0.3533    0.7917    1.6851 H   0  0  0  0  0  0  0  0  0  0  0  0
    0.5088   -2.5376    3.9312 N   0  0  0  0  0  0  0  0  0  0  0  0
    0.0296   -3.0929    5.1756 C   0  0  2  0  0  0  0  0  0  0  0  0
    1.2394   -3.5137    5.9995 C   0  0  0  0  0  0  0  0  0  0  0  0
    2.3373   -3.7569    5.5031 O   0  0  0  0  0  0  0  0  0  0  0  0
   -0.9001   -4.2718    4.9338 C   0  0  0  0  0  0  0  0  0  0  0  0
    1.3591   -2.9280    3.5356 H   0  0  0  0  0  0  0  0  0  0  0  0
   -0.5053   -2.2903    5.6948 H   0  0  0  0  0  0  0  0  0  0  0  0
   -0.3817   -5.0861    4.4144 H   0  0  0  0  0  0  0  0  0  0  0  0
   -1.2849   -4.6736    5.8770 H   0  0  0  0  0  0  0  0  0  0  0  0
   -1.7543   -3.9743    4.3161 H   0  0  0  0  0  0  0  0  0  0  0  0
    0.9375   -3.6275    7.3494 N   0  0  0  0  0  0  0  0  0  0  0  0
    1.9144   -4.0251    8.3360 C   0  0  0  0  0  0  0  0  0  0  0  0
    0.0057   -3.3877    7.6749 H   0  0  0  0  0  0  0  0  0  0  0  0
    1.8703   -5.1151    8.4779 H   0  0  0  0  0  0  0  0  0  0  0  0
    2.9197   -3.7407    7.9917 H   0  0  0  0  0  0  0  0  0  0  0  0
    1.6976   -3.5222    9.2899 H   0  0  0  0  0  0  0  0  0  0  0  0
  1  3  1  0  0  0  0
  1  7  1  0  0  0  0
  1  2  2  0  0  0  0
 30 31  1  0  0  0  0
 31 39  1  0  0  0  0
 31 32  2  0  0  0  0
  8  9  1  0  0  0  0
  9 17  1  0  0  0  0
  9 10  2  0  0  0  0
 18 19  1  0  0  0  0
 19 29  1  0  0  0  0
 19 20  2  0  0  0  0
 21 22  1  0  0  0  0
 22 23  1  0  0  0  0
 22 24  2  0  0  0  0
 30 33  1  0  0  0  0
  8 11  1  0  0  0  0
 39 40  1  0  0  0  0
 18 21  1  0  0  0  0
 29 30  1  0  0  0  0
  7  8  1  0  0  0  0
 17 18  1  0  0  0  0
  3  4  1  0  0  0  0
  3  5  1  0  0  0  0
  3  6  1  0  0  0  0
 33 36  1  0  0  0  0
 33 37  1  0  0  0  0
 33 38  1  0  0  0  0
 11 14  1  0  0  0  0
 11 15  1  0  0  0  0
 11 16  1  0  0  0  0
 40 42  1  0  0  0  0
 40 43  1  0  0  0  0
 40 44  1  0  0  0  0
 21 27  1  0  0  0  0
 21 28  1  0  0  0  0
 30 35  1  0  0  0  0
  8 13  1  0  0  0  0
 18 26  1  0  0  0  0
 39 41  1  0  0  0  0
  7 12  1  0  0  0  0
 29 34  1  0  0  0  0
 17 25  1  0  0  0  0
M  CHG  1  23  -1
M  END
$$$$

  -OEChem-05262214473D

 44 43  0     1  0  0  0  0  0999 V2000
   -4.0256   -1.8030   -2.1581 C   0  0  0  0  0  0  0  0  0  0  0  0
   -3.7513   -2.6782   -2.9709 O   0  0  0  0  0  0  0  0  0  0  0  0
   -5.3491   -1.1169   -2.2339 C   0  0  0  0  0  0  0  0  0  0  0  0
   -5.3223   -0.2211   -2.8750 H   0  0  0  0  0  0  0  0  0  0  0  0
   -6.1322   -1.7605   -2.6658 H   0  0  0  0  0  0  0  0  0  0  0  0
   -5.7568   -0.7715   -1.2704 H   0  0  0  0  0  0  0  0  0  0  0  0
   -3.2124   -1.3578   -1.1289 N   0  0  0  0  0  0  0  0  0  0  0  0
   -1.8971   -1.8843   -0.8752 C   0  0  2  0  0  0  0  0  0  0  0  0
   -1.2676   -1.0599    0.2399 C   0  0  0  0  0  0  0  0  0  0  0  0
   -1.6270    0.0833    0.5138 O   0  0  0  0  0  0  0  0  0  0  0  0
   -1.0364   -1.8506   -2.1285 C   0  0  0  0  0  0  0  0  0  0  0  0
   -3.5631   -0.6202   -0.5206 H   0  0  0  0  0  0  0  0  0  0  0  0
   -2.0301   -2.9174   -0.5360 H   0  0  0  0  0  0  0  0  0  0  0  0
   -0.8921   -0.8236   -2.4833 H   0  0  0  0  0  0  0  0  0  0  0  0
   -0.0457   -2.2777   -1.9410 H   0  0  0  0  0  0  0  0  0  0  0  0
   -1.5052   -2.4193   -2.9387 H   0  0  0  0  0  0  0  0  0  0  0  0
   -0.2267   -1.7335    0.8672 N   0  0  0  0  0  0  0  0  0  0  0  0
    0.5363   -1.1590    1.9465 C   0  0  2  0  0  0  0  0  0  0  0  0
   -0.1661   -1.5374    3.2454 C   0  0  0  0  0  0  0  0  0  0  0  0
   -1.3378   -1.2507    3.4821 O   0  0  0  0  0  0  0  0  0  0  0  0
    0.6466    0.3586    1.8188 C   0  0  0  0  0  0  0  0  0  0  0  0
    1.5040    0.8848    0.6606 C   0  0  0  0  0  0  0  0  0  0  0  0
    2.4423    0.1081    0.3186 O   0  5  0  0  0  0  0  0  0  0  0  0
    1.1912    2.0138    0.1933 O   0  0  0  0  0  0  0  0  0  0  0  0
   -0.0113   -2.6869    0.5854 H   0  0  0  0  0  0  0  0  0  0  0  0
    1.5247   -1.6316    1.9204 H   0  0  0  0  0  0  0  0  0  0  0  0
    1.0451    0.7797    2.7519 H   0  0  0  0  0  0  0  0  0  0  0  0
   -0.3533    0.7917    1.6851 H   0  0  0  0  0  0  0  0  0  0  0  0
    0.6542   -2.2774    4.0856 N   0  0  0  0  0  0  0  0  0  0  0  0
    0.2116   -2.7830    5.3642 C   0  0  2  0  0  0  0  0  0  0  0  0
    1.4161   -2.8265    6.2952 C   0  0  0  0  0  0  0  0  0  0  0  0
    2.5758   -2.8711    5.8901 O   0  0  0  0  0  0  0  0  0  0  0  0
   -0.4190   -4.1600    5.2265 C   0  0  0  0  0  0  0  0  0  0  0  0
    1.5969   -2.5087    3.7864 H   0  0  0  0  0  0  0  0  0  0  0  0
   -0.5232   -2.0679    5.7499 H   0  0  0  0  0  0  0  0  0  0  0  0
    0.3022   -4.8900    4.8413 H   0  0  0  0  0  0  0  0  0  0  0  0
   -0.7797   -4.5296    6.1921 H   0  0  0  0  0  0  0  0  0  0  0  0
   -1.2668   -4.1328    4.5335 H   0  0  0  0  0  0  0  0  0  0  0  0
    1.0421   -2.8532    7.6315 N   0  0  0  0  0  0  0  0  0  0  0  0
    2.0024   -2.9083    8.7089 C   0  0  0  0  0  0  0  0  0  0  0  0
    0.0581   -2.7937    7.8763 H   0  0  0  0  0  0  0  0  0  0  0  0
    2.1846   -3.9573    8.9851 H   0  0  0  0  0  0  0  0  0  0  0  0
    2.9458   -2.4459    8.3830 H   0  0  0  0  0  0  0  0  0  0  0  0
    1.6085   -2.3632    9.5793 H   0  0  0  0  0  0  0  0  0  0  0  0
  1  3  1  0  0  0  0
  1  7  1  0  0  0  0
  1  2  2  0  0  0  0
 30 31  1  0  0  0  0
 31 39  1  0  0  0  0
 31 32  2  0  0  0  0
  8  9  1  0  0  0  0
  9 17  1  0  0  0  0
  9 10  2  0  0  0  0
 18 19  1  0  0  0  0
 19 29  1  0  0  0  0
 19 20  2  0  0  0  0
 21 22  1  0  0  0  0
 22 23  1  0  0  0  0
 22 24  2  0  0  0  0
 30 33  1  0  0  0  0
  8 11  1  0  0  0  0
 39 40  1  0  0  0  0
 18 21  1  0  0  0  0
 29 30  1  0  0  0  0
  7  8  1  0  0  0  0
 17 18  1  0  0  0  0
  3  4  1  0  0  0  0
  3  5  1  0  0  0  0
  3  6  1  0  0  0  0
 33 36  1  0  0  0  0
 33 37  1  0  0  0  0
 33 38  1  0  0  0  0
 11 14  1  0  0  0  0
 11 15  1  0  0  0  0
 11 16  1  0  0  0  0
 40 42  1  0  0  0  0
 40 43  1  0  0  0  0
 40 44  1  0  0  0  0
 21 27  1  0  0  0  0
 21 28  1  0  0  0  0
 30 35  1  0  0  0  0
  8 13  1  0  0  0  0
 18 26  1  0  0  0  0
 39 41  1  0  0  0  0
  7 12  1  0  0  0  0
 29 34  1  0  0  0  0
 17 25  1  0  0  0  0
M  CHG  1  23  -1
M  END
$$$$

  -OEChem-05262214473D

 44 43  0     1  0  0  0  0  0999 V2000
   -4.0256   -1.8030   -2.1581 C   0  0  0  0  0  0  0  0  0  0  0  0
   -3.7513   -2.6782   -2.9709 O   0  0  0  0  0  0  0  0  0  0  0  0
   -5.3491   -1.1169   -2.2339 C   0  0  0  0  0  0  0  0  0  0  0  0
   -5.3223   -0.2211   -2.8750 H   0  0  0  0  0  0  0  0  0  0  0  0
   -6.1322   -1.7605   -2.6658 H   0  0  0  0  0  0  0  0  0  0  0  0
   -5.7568   -0.7715   -1.2704 H   0  0  0  0  0  0  0  0  0  0  0  0
   -3.2124   -1.3578   -1.1289 N   0  0  0  0  0  0  0  0  0  0  0  0
   -1.8971   -1.8843   -0.8752 C   0  0  2  0  0  0  0  0  0  0  0  0
   -1.2676   -1.0599    0.2399 C   0  0  0  0  0  0  0  0  0  0  0  0
   -1.6270    0.0833    0.5138 O   0  0  0  0  0  0  0  0  0  0  0  0
   -1.0364   -1.8506   -2.1285 C   0  0  0  0  0  0  0  0  0  0  0  0
   -3.5631   -0.6202   -0.5206 H   0  0  0  0  0  0  0  0  0  0  0  0
   -2.0301   -2.9174   -0.5360 H   0  0  0  0  0  0  0  0  0  0  0  0
   -0.8921   -0.8236   -2.4833 H   0  0  0  0  0  0  0  0  0  0  0  0
   -0.0457   -2.2777   -1.9410 H   0  0  0  0  0  0  0  0  0  0  0  0
   -1.5052   -2.4193   -2.9387 H   0  0  0  0  0  0  0  0  0  0  0  0
   -0.2267   -1.7335    0.8672 N   0  0  0  0  0  0  0  0  0  0  0  0
    0.5363   -1.1590    1.9465 C   0  0  2  0  0  0  0  0  0  0  0  0
   -0.1661   -1.5374    3.2454 C   0  0  0  0  0  0  0  0  0  0  0  0
   -1.3869   -1.4963    3.3840 O   0  0  0  0  0  0  0  0  0  0  0  0
    0.6466    0.3586    1.8188 C   0  0  0  0  0  0  0  0  0  0  0  0
    1.5040    0.8848    0.6606 C   0  0  0  0  0  0  0  0  0  0  0  0
    2.4423    0.1081    0.3186 O   0  5  0  0  0  0  0  0  0  0  0  0
    1.1912    2.0138    0.1933 O   0  0  0  0  0  0  0  0  0  0  0  0
   -0.0113   -2.6869    0.5854 H   0  0  0  0  0  0  0  0  0  0  0  0
    1.5247   -1.6316    1.9204 H   0  0  0  0  0  0  0  0  0  0  0  0
    1.0451    0.7797    2.7519 H   0  0  0  0  0  0  0  0  0  0  0  0
   -0.3533    0.7917    1.6851 H   0  0  0  0  0  0  0  0  0  0  0  0
    0.7272   -1.9755    4.2131 N   0  0  0  0  0  0  0  0  0  0  0  0
    0.3068   -2.4210    5.5212 C   0  0  2  0  0  0  0  0  0  0  0  0
    1.4162   -2.0885    6.5103 C   0  0  0  0  0  0  0  0  0  0  0  0
    2.5859   -1.9168    6.1735 O   0  0  0  0  0  0  0  0  0  0  0  0
    0.0022   -3.9109    5.5268 C   0  0  0  0  0  0  0  0  0  0  0  0
    1.7180   -2.0214    3.9938 H   0  0  0  0  0  0  0  0  0  0  0  0
   -0.5931   -1.8505    5.7755 H   0  0  0  0  0  0  0  0  0  0  0  0
    0.8921   -4.4989    5.2742 H   0  0  0  0  0  0  0  0  0  0  0  0
   -0.3437   -4.2415    6.5118 H   0  0  0  0  0  0  0  0  0  0  0  0
   -0.7749   -4.1526    4.7937 H   0  0  0  0  0  0  0  0  0  0  0  0
    0.9543   -2.0485    7.8184 N   0  0  0  0  0  0  0  0  0  0  0  0
    1.8172   -1.7656    8.9416 C   0  0  0  0  0  0  0  0  0  0  0  0
   -0.0352   -2.1844    8.0034 H   0  0  0  0  0  0  0  0  0  0  0  0
    2.2003   -2.7093    9.3571 H   0  0  0  0  0  0  0  0  0  0  0  0
    2.6604   -1.1428    8.6082 H   0  0  0  0  0  0  0  0  0  0  0  0
    1.2481   -1.2289    9.7149 H   0  0  0  0  0  0  0  0  0  0  0  0
  1  3  1  0  0  0  0
  1  7  1  0  0  0  0
  1  2  2  0  0  0  0
 30 31  1  0  0  0  0
 31 39  1  0  0  0  0
 31 32  2  0  0  0  0
  8  9  1  0  0  0  0
  9 17  1  0  0  0  0
  9 10  2  0  0  0  0
 18 19  1  0  0  0  0
 19 29  1  0  0  0  0
 19 20  2  0  0  0  0
 21 22  1  0  0  0  0
 22 23  1  0  0  0  0
 22 24  2  0  0  0  0
 30 33  1  0  0  0  0
  8 11  1  0  0  0  0
 39 40  1  0  0  0  0
 18 21  1  0  0  0  0
 29 30  1  0  0  0  0
  7  8  1  0  0  0  0
 17 18  1  0  0  0  0
  3  4  1  0  0  0  0
  3  5  1  0  0  0  0
  3  6  1  0  0  0  0
 33 36  1  0  0  0  0
 33 37  1  0  0  0  0
 33 38  1  0  0  0  0
 11 14  1  0  0  0  0
 11 15  1  0  0  0  0
 11 16  1  0  0  0  0
 40 42  1  0  0  0  0
 40 43  1  0  0  0  0
 40 44  1  0  0  0  0
 21 27  1  0  0  0  0
 21 28  1  0  0  0  0
 30 35  1  0  0  0  0
  8 13  1  0  0  0  0
 18 26  1  0  0  0  0
 39 41  1  0  0  0  0
  7 12  1  0  0  0  0
 29 34  1  0  0  0  0
 17 25  1  0  0  0  0
M  CHG  1  23  -1
M  END
$$$$

  -OEChem-05262214473D

 44 43  0     1  0  0  0  0  0999 V2000
   -4.0256   -1.8030   -2.1581 C   0  0  0  0  0  0  0  0  0  0  0  0
   -3.7513   -2.6782   -2.9709 O   0  0  0  0  0  0  0  0  0  0  0  0
   -5.3491   -1.1169   -2.2339 C   0  0  0  0  0  0  0  0  0  0  0  0
   -5.3223   -0.2211   -2.8750 H   0  0  0  0  0  0  0  0  0  0  0  0
   -6.1322   -1.7605   -2.6658 H   0  0  0  0  0  0  0  0  0  0  0  0
   -5.7568   -0.7715   -1.2704 H   0  0  0  0  0  0  0  0  0  0  0  0
   -3.2124   -1.3578   -1.1289 N   0  0  0  0  0  0  0  0  0  0  0  0
   -1.8971   -1.8843   -0.8752 C   0  0  2  0  0  0  0  0  0  0  0  0
   -1.2676   -1.0599    0.2399 C   0  0  0  0  0  0  0  0  0  0  0  0
   -1.6270    0.0833    0.5138 O   0  0  0  0  0  0  0  0  0  0  0  0
   -1.0364   -1.8506   -2.1285 C   0  0  0  0  0  0  0  0  0  0  0  0
   -3.5631   -0.6202   -0.5206 H   0  0  0  0  0  0  0  0  0  0  0  0
   -2.0301   -2.9174   -0.5360 H   0  0  0  0  0  0  0  0  0  0  0  0
   -0.8921   -0.8236   -2.4833 H   0  0  0  0  0  0  0  0  0  0  0  0
   -0.0457   -2.2777   -1.9410 H   0  0  0  0  0  0  0  0  0  0  0  0
   -1.5052   -2.4193   -2.9387 H   0  0  0  0  0  0  0  0  0  0  0  0
   -0.2267   -1.7335    0.8672 N   0  0  0  0  0  0  0  0  0  0  0  0
    0.5363   -1.1590    1.9465 C   0  0  2  0  0  0  0  0  0  0  0  0
   -0.1661   -1.5374    3.2454 C   0  0  0  0  0  0  0  0  0  0  0  0
   -1.3738   -1.7561    3.3155 O   0  0  0  0  0  0  0  0  0  0  0  0
    0.6466    0.3586    1.8188 C   0  0  0  0  0  0  0  0  0  0  0  0
    1.5040    0.8848    0.6606 C   0  0  0  0  0  0  0  0  0  0  0  0
    2.4423    0.1081    0.3186 O   0  5  0  0  0  0  0  0  0  0  0  0
    1.1912    2.0138    0.1933 O   0  0  0  0  0  0  0  0  0  0  0  0
   -0.0113   -2.6869    0.5854 H   0  0  0  0  0  0  0  0  0  0  0  0
    1.5247   -1.6316    1.9204 H   0  0  0  0  0  0  0  0  0  0  0  0
    1.0451    0.7797    2.7519 H   0  0  0  0  0  0  0  0  0  0  0  0
   -0.3533    0.7917    1.6851 H   0  0  0  0  0  0  0  0  0  0  0  0
    0.7231   -1.6525    4.3049 N   0  0  0  0  0  0  0  0  0  0  0  0
    0.3089   -2.0316    5.6357 C   0  0  2  0  0  0  0  0  0  0  0  0
    1.2397   -1.3499    6.6300 C   0  0  0  0  0  0  0  0  0  0  0  0
    2.3669   -0.9589    6.3341 O   0  0  0  0  0  0  0  0  0  0  0  0
    0.3348   -3.5416    5.8142 C   0  0  0  0  0  0  0  0  0  0  0  0
    1.7142   -1.4992    4.1439 H   0  0  0  0  0  0  0  0  0  0  0  0
   -0.7102   -1.6528    5.7697 H   0  0  0  0  0  0  0  0  0  0  0  0
    1.3478   -3.9394    5.6836 H   0  0  0  0  0  0  0  0  0  0  0  0
   -0.0066   -3.8289    6.8142 H   0  0  0  0  0  0  0  0  0  0  0  0
   -0.3122   -4.0321    5.0790 H   0  0  0  0  0  0  0  0  0  0  0  0
    0.6800   -1.2683    7.8974 N   0  0  0  0  0  0  0  0  0  0  0  0
    1.3713   -0.6750    9.0181 C   0  0  0  0  0  0  0  0  0  0  0  0
   -0.2678   -1.6012    8.0474 H   0  0  0  0  0  0  0  0  0  0  0  0
    1.9163   -1.4559    9.5686 H   0  0  0  0  0  0  0  0  0  0  0  0
    2.0828    0.0798    8.6520 H   0  0  0  0  0  0  0  0  0  0  0  0
    0.6412   -0.1965    9.6874 H   0  0  0  0  0  0  0  0  0  0  0  0
  1  3  1  0  0  0  0
  1  7  1  0  0  0  0
  1  2  2  0  0  0  0
 30 31  1  0  0  0  0
 31 39  1  0  0  0  0
 31 32  2  0  0  0  0
  8  9  1  0  0  0  0
  9 17  1  0  0  0  0
  9 10  2  0  0  0  0
 18 19  1  0  0  0  0
 19 29  1  0  0  0  0
 19 20  2  0  0  0  0
 21 22  1  0  0  0  0
 22 23  1  0  0  0  0
 22 24  2  0  0  0  0
 30 33  1  0  0  0  0
  8 11  1  0  0  0  0
 39 40  1  0  0  0  0
 18 21  1  0  0  0  0
 29 30  1  0  0  0  0
  7  8  1  0  0  0  0
 17 18  1  0  0  0  0
  3  4  1  0  0  0  0
  3  5  1  0  0  0  0
  3  6  1  0  0  0  0
 33 36  1  0  0  0  0
 33 37  1  0  0  0  0
 33 38  1  0  0  0  0
 11 14  1  0  0  0  0
 11 15  1  0  0  0  0
 11 16  1  0  0  0  0
 40 42  1  0  0  0  0
 40 43  1  0  0  0  0
 40 44  1  0  0  0  0
 21 27  1  0  0  0  0
 21 28  1  0  0  0  0
 30 35  1  0  0  0  0
  8 13  1  0  0  0  0
 18 26  1  0  0  0  0
 39 41  1  0  0  0  0
  7 12  1  0  0  0  0
 29 34  1  0  0  0  0
 17 25  1  0  0  0  0
M  CHG  1  23  -1
M  END
$$$$

  -OEChem-05262214473D

 44 43  0     1  0  0  0  0  0999 V2000
   -4.0256   -1.8030   -2.1581 C   0  0  0  0  0  0  0  0  0  0  0  0
   -3.7513   -2.6782   -2.9709 O   0  0  0  0  0  0  0  0  0  0  0  0
   -5.3491   -1.1169   -2.2339 C   0  0  0  0  0  0  0  0  0  0  0  0
   -5.3223   -0.2211   -2.8750 H   0  0  0  0  0  0  0  0  0  0  0  0
   -6.1322   -1.7605   -2.6658 H   0  0  0  0  0  0  0  0  0  0  0  0
   -5.7568   -0.7715   -1.2704 H   0  0  0  0  0  0  0  0  0  0  0  0
   -3.2124   -1.3578   -1.1289 N   0  0  0  0  0  0  0  0  0  0  0  0
   -1.8971   -1.8843   -0.8752 C   0  0  2  0  0  0  0  0  0  0  0  0
   -1.2676   -1.0599    0.2399 C   0  0  0  0  0  0  0  0  0  0  0  0
   -1.6270    0.0833    0.5138 O   0  0  0  0  0  0  0  0  0  0  0  0
   -1.0364   -1.8506   -2.1285 C   0  0  0  0  0  0  0  0  0  0  0  0
   -3.5631   -0.6202   -0.5206 H   0  0  0  0  0  0  0  0  0  0  0  0
   -2.0301   -2.9174   -0.5360 H   0  0  0  0  0  0  0  0  0  0  0  0
   -0.8921   -0.8236   -2.4833 H   0  0  0  0  0  0  0  0  0  0  0  0
   -0.0457   -2.2777   -1.9410 H   0  0  0  0  0  0  0  0  0  0  0  0
   -1.5052   -2.4193   -2.9387 H   0  0  0  0  0  0  0  0  0  0  0  0
   -0.2267   -1.7335    0.8672 N   0  0  0  0  0  0  0  0  0  0  0  0
    0.5363   -1.1590    1.9465 C   0  0  2  0  0  0  0  0  0  0  0  0
   -0.1661   -1.5374    3.2454 C   0  0  0  0  0  0  0  0  0  0  0  0
   -1.2994   -2.0123    3.2810 O   0  0  0  0  0  0  0  0  0  0  0  0
    0.6466    0.3586    1.8188 C   0  0  0  0  0  0  0  0  0  0  0  0
    1.5040    0.8848    0.6606 C   0  0  0  0  0  0  0  0  0  0  0  0
    2.4423    0.1081    0.3186 O   0  5  0  0  0  0  0  0  0  0  0  0
    1.1912    2.0138    0.1933 O   0  0  0  0  0  0  0  0  0  0  0  0
   -0.0113   -2.6869    0.5854 H   0  0  0  0  0  0  0  0  0  0  0  0
    1.5247   -1.6316    1.9204 H   0  0  0  0  0  0  0  0  0  0  0  0
    1.0451    0.7797    2.7519 H   0  0  0  0  0  0  0  0  0  0  0  0
   -0.3533    0.7917    1.6851 H   0  0  0  0  0  0  0  0  0  0  0  0
    0.6419   -1.3306    4.3548 N   0  0  0  0  0  0  0  0  0  0  0  0
    0.2177   -1.6414    5.7001 C   0  0  2  0  0  0  0  0  0  0  0  0
    0.8986   -0.6612    6.6462 C   0  0  0  0  0  0  0  0  0  0  0  0
    1.9339   -0.0628    6.3610 O   0  0  0  0  0  0  0  0  0  0  0  0
    0.5562   -3.0773    6.0692 C   0  0  0  0  0  0  0  0  0  0  0  0
    1.5857   -0.9777    4.2263 H   0  0  0  0  0  0  0  0  0  0  0  0
   -0.8665   -1.4884    5.7331 H   0  0  0  0  0  0  0  0  0  0  0  0
    1.6383   -3.2496    6.0416 H   0  0  0  0  0  0  0  0  0  0  0  0
    0.2085   -3.3200    7.0788 H   0  0  0  0  0  0  0  0  0  0  0  0
    0.0899   -3.7797    5.3699 H   0  0  0  0  0  0  0  0  0  0  0  0
    0.2379   -0.5658    7.8630 N   0  0  0  0  0  0  0  0  0  0  0  0
    0.6951    0.2893    8.9334 C   0  0  0  0  0  0  0  0  0  0  0  0
   -0.6240   -1.0840    8.0055 H   0  0  0  0  0  0  0  0  0  0  0  0
    1.3520   -0.2827    9.6052 H   0  0  0  0  0  0  0  0  0  0  0  0
    1.2524    1.1386    8.5115 H   0  0  0  0  0  0  0  0  0  0  0  0
   -0.1710    0.6636    9.4988 H   0  0  0  0  0  0  0  0  0  0  0  0
  1  3  1  0  0  0  0
  1  7  1  0  0  0  0
  1  2  2  0  0  0  0
 30 31  1  0  0  0  0
 31 39  1  0  0  0  0
 31 32  2  0  0  0  0
  8  9  1  0  0  0  0
  9 17  1  0  0  0  0
  9 10  2  0  0  0  0
 18 19  1  0  0  0  0
 19 29  1  0  0  0  0
 19 20  2  0  0  0  0
 21 22  1  0  0  0  0
 22 23  1  0  0  0  0
 22 24  2  0  0  0  0
 30 33  1  0  0  0  0
  8 11  1  0  0  0  0
 39 40  1  0  0  0  0
 18 21  1  0  0  0  0
 29 30  1  0  0  0  0
  7  8  1  0  0  0  0
 17 18  1  0  0  0  0
  3  4  1  0  0  0  0
  3  5  1  0  0  0  0
  3  6  1  0  0  0  0
 33 36  1  0  0  0  0
 33 37  1  0  0  0  0
 33 38  1  0  0  0  0
 11 14  1  0  0  0  0
 11 15  1  0  0  0  0
 11 16  1  0  0  0  0
 40 42  1  0  0  0  0
 40 43  1  0  0  0  0
 40 44  1  0  0  0  0
 21 27  1  0  0  0  0
 21 28  1  0  0  0  0
 30 35  1  0  0  0  0
  8 13  1  0  0  0  0
 18 26  1  0  0  0  0
 39 41  1  0  0  0  0
  7 12  1  0  0  0  0
 29 34  1  0  0  0  0
 17 25  1  0  0  0  0
M  CHG  1  23  -1
M  END
$$$$

  -OEChem-05262214473D

 44 43  0     1  0  0  0  0  0999 V2000
   -4.0256   -1.8030   -2.1581 C   0  0  0  0  0  0  0  0  0  0  0  0
   -3.7513   -2.6782   -2.9709 O   0  0  0  0  0  0  0  0  0  0  0  0
   -5.3491   -1.1169   -2.2339 C   0  0  0  0  0  0  0  0  0  0  0  0
   -5.3223   -0.2211   -2.8750 H   0  0  0  0  0  0  0  0  0  0  0  0
   -6.1322   -1.7605   -2.6658 H   0  0  0  0  0  0  0  0  0  0  0  0
   -5.7568   -0.7715   -1.2704 H   0  0  0  0  0  0  0  0  0  0  0  0
   -3.2124   -1.3578   -1.1289 N   0  0  0  0  0  0  0  0  0  0  0  0
   -1.8971   -1.8843   -0.8752 C   0  0  2  0  0  0  0  0  0  0  0  0
   -1.2676   -1.0599    0.2399 C   0  0  0  0  0  0  0  0  0  0  0  0
   -1.6270    0.0833    0.5138 O   0  0  0  0  0  0  0  0  0  0  0  0
   -1.0364   -1.8506   -2.1285 C   0  0  0  0  0  0  0  0  0  0  0  0
   -3.5631   -0.6202   -0.5206 H   0  0  0  0  0  0  0  0  0  0  0  0
   -2.0301   -2.9174   -0.5360 H   0  0  0  0  0  0  0  0  0  0  0  0
   -0.8921   -0.8236   -2.4833 H   0  0  0  0  0  0  0  0  0  0  0  0
   -0.0457   -2.2777   -1.9410 H   0  0  0  0  0  0  0  0  0  0  0  0
   -1.5052   -2.4193   -2.9387 H   0  0  0  0  0  0  0  0  0  0  0  0
   -0.2267   -1.7335    0.8672 N   0  0  0  0  0  0  0  0  0  0  0  0
    0.5363   -1.1590    1.9465 C   0  0  2  0  0  0  0  0  0  0  0  0
    0.0733   -1.8325    3.2333 C   0  0  0  0  0  0  0  0  0  0  0  0
   -0.7679   -2.7286    3.2558 O   0  0  0  0  0  0  0  0  0  0  0  0
    0.3458    0.3535    2.0341 C   0  0  0  0  0  0  0  0  0  0  0  0
    0.9487    1.1839    0.8939 C   0  0  0  0  0  0  0  0  0  0  0  0
    1.9691    0.6614    0.3585 O   0  5  0  0  0  0  0  0  0  0  0  0
    0.3784    2.2769    0.6278 O   0  0  0  0  0  0  0  0  0  0  0  0
   -0.0113   -2.6869    0.5854 H   0  0  0  0  0  0  0  0  0  0  0  0
    1.5856   -1.4161    1.7626 H   0  0  0  0  0  0  0  0  0  0  0  0
    0.7648    0.7243    2.9796 H   0  0  0  0  0  0  0  0  0  0  0  0
   -0.7261    0.5902    2.0559 H   0  0  0  0  0  0  0  0  0  0  0  0
    0.7482   -1.3507    4.3462 N   0  0  0  0  0  0  0  0  0  0  0  0
    0.5127   -1.8507    5.6807 C   0  0  2  0  0  0  0  0  0  0  0  0
    0.7539   -0.7095    6.6600 C   0  0  0  0  0  0  0  0  0  0  0  0
    1.4506    0.2675    6.3931 O   0  0  0  0  0  0  0  0  0  0  0  0
    1.4130   -3.0356    5.9946 C   0  0  0  0  0  0  0  0  0  0  0  0
    1.4643   -0.6402    4.2271 H   0  0  0  0  0  0  0  0  0  0  0  0
   -0.5391   -2.1537    5.7239 H   0  0  0  0  0  0  0  0  0  0  0  0
    2.4709   -2.7513    5.9561 H   0  0  0  0  0  0  0  0  0  0  0  0
    1.2133   -3.4313    6.9958 H   0  0  0  0  0  0  0  0  0  0  0  0
    1.2595   -3.8439    5.2715 H   0  0  0  0  0  0  0  0  0  0  0  0
    0.1347   -0.9309    7.8822 N   0  0  0  0  0  0  0  0  0  0  0  0
    0.2248    0.0011    8.9819 C   0  0  0  0  0  0  0  0  0  0  0  0
   -0.4390   -1.7594    8.0088 H   0  0  0  0  0  0  0  0  0  0  0  0
    1.0701   -0.2753    9.6292 H   0  0  0  0  0  0  0  0  0  0  0  0
    0.3803    1.0169    8.5897 H   0  0  0  0  0  0  0  0  0  0  0  0
   -0.7079   -0.0283    9.5645 H   0  0  0  0  0  0  0  0  0  0  0  0
  1  3  1  0  0  0  0
  1  7  1  0  0  0  0
  1  2  2  0  0  0  0
 30 31  1  0  0  0  0
 31 39  1  0  0  0  0
 31 32  2  0  0  0  0
  8  9  1  0  0  0  0
  9 17  1  0  0  0  0
  9 10  2  0  0  0  0
 18 19  1  0  0  0  0
 19 29  1  0  0  0  0
 19 20  2  0  0  0  0
 21 22  1  0  0  0  0
 22 23  1  0  0  0  0
 22 24  2  0  0  0  0
 30 33  1  0  0  0  0
  8 11  1  0  0  0  0
 39 40  1  0  0  0  0
 18 21  1  0  0  0  0
 29 30  1  0  0  0  0
  7  8  1  0  0  0  0
 17 18  1  0  0  0  0
  3  4  1  0  0  0  0
  3  5  1  0  0  0  0
  3  6  1  0  0  0  0
 33 36  1  0  0  0  0
 33 37  1  0  0  0  0
 33 38  1  0  0  0  0
 11 14  1  0  0  0  0
 11 15  1  0  0  0  0
 11 16  1  0  0  0  0
 40 42  1  0  0  0  0
 40 43  1  0  0  0  0
 40 44  1  0  0  0  0
 21 27  1  0  0  0  0
 21 28  1  0  0  0  0
 30 35  1  0  0  0  0
  8 13  1  0  0  0  0
 18 26  1  0  0  0  0
 39 41  1  0  0  0  0
  7 12  1  0  0  0  0
 29 34  1  0  0  0  0
 17 25  1  0  0  0  0
M  CHG  1  23  -1
M  END
$$$$

  -OEChem-05262214473D

 44 43  0     1  0  0  0  0  0999 V2000
   -4.0256   -1.8030   -2.1581 C   0  0  0  0  0  0  0  0  0  0  0  0
   -3.7513   -2.6782   -2.9709 O   0  0  0  0  0  0  0  0  0  0  0  0
   -5.3491   -1.1169   -2.2339 C   0  0  0  0  0  0  0  0  0  0  0  0
   -5.3223   -0.2211   -2.8750 H   0  0  0  0  0  0  0  0  0  0  0  0
   -6.1322   -1.7605   -2.6658 H   0  0  0  0  0  0  0  0  0  0  0  0
   -5.7568   -0.7715   -1.2704 H   0  0  0  0  0  0  0  0  0  0  0  0
   -3.2124   -1.3578   -1.1289 N   0  0  0  0  0  0  0  0  0  0  0  0
   -1.8971   -1.8843   -0.8752 C   0  0  2  0  0  0  0  0  0  0  0  0
   -1.2676   -1.0599    0.2399 C   0  0  0  0  0  0  0  0  0  0  0  0
   -1.6270    0.0833    0.5138 O   0  0  0  0  0  0  0  0  0  0  0  0
   -1.0364   -1.8506   -2.1285 C   0  0  0  0  0  0  0  0  0  0  0  0
   -3.5631   -0.6202   -0.5206 H   0  0  0  0  0  0  0  0  0  0  0  0
   -2.0301   -2.9174   -0.5360 H   0  0  0  0  0  0  0  0  0  0  0  0
   -0.8921   -0.8236   -2.4833 H   0  0  0  0  0  0  0  0  0  0  0  0
   -0.0457   -2.2777   -1.9410 H   0  0  0  0  0  0  0  0  0  0  0  0
   -1.5052   -2.4193   -2.9387 H   0  0  0  0  0  0  0  0  0  0  0  0
   -0.2267   -1.7335    0.8672 N   0  0  0  0  0  0  0  0  0  0  0  0
    0.5363   -1.1590    1.9465 C   0  0  2  0  0  0  0  0  0  0  0  0
    0.0733   -1.8325    3.2333 C   0  0  0  0  0  0  0  0  0  0  0  0
   -0.5530   -2.8902    3.2486 O   0  0  0  0  0  0  0  0  0  0  0  0
    0.3458    0.3535    2.0341 C   0  0  0  0  0  0  0  0  0  0  0  0
    0.9487    1.1839    0.8939 C   0  0  0  0  0  0  0  0  0  0  0  0
    1.9691    0.6614    0.3585 O   0  5  0  0  0  0  0  0  0  0  0  0
    0.3784    2.2769    0.6278 O   0  0  0  0  0  0  0  0  0  0  0  0
   -0.0113   -2.6869    0.5854 H   0  0  0  0  0  0  0  0  0  0  0  0
    1.5856   -1.4161    1.7626 H   0  0  0  0  0  0  0  0  0  0  0  0
    0.7648    0.7243    2.9796 H   0  0  0  0  0  0  0  0  0  0  0  0
   -0.7261    0.5902    2.0559 H   0  0  0  0  0  0  0  0  0  0  0  0
    0.4873   -1.1400    4.3626 N   0  0  0  0  0  0  0  0  0  0  0  0
    0.2018   -1.5909    5.7048 C   0  0  2  0  0  0  0  0  0  0  0  0
    0.0708   -0.3627    6.5957 C   0  0  0  0  0  0  0  0  0  0  0  0
    0.5699    0.7253    6.3158 O   0  0  0  0  0  0  0  0  0  0  0  0
    1.2890   -2.5218    6.2189 C   0  0  0  0  0  0  0  0  0  0  0  0
    1.0439   -0.2971    4.2554 H   0  0  0  0  0  0  0  0  0  0  0  0
   -0.7580   -2.1174    5.6642 H   0  0  0  0  0  0  0  0  0  0  0  0
    2.2582   -2.0119    6.2665 H   0  0  0  0  0  0  0  0  0  0  0  0
    1.0569   -2.8853    7.2254 H   0  0  0  0  0  0  0  0  0  0  0  0
    1.4022   -3.3899    5.5605 H   0  0  0  0  0  0  0  0  0  0  0  0
   -0.6322   -0.6356    7.7608 N   0  0  0  0  0  0  0  0  0  0  0  0
   -0.8797    0.3634    8.7742 C   0  0  0  0  0  0  0  0  0  0  0  0
   -1.0266   -1.5610    7.9013 H   0  0  0  0  0  0  0  0  0  0  0  0
   -0.0810    0.3257    9.5296 H   0  0  0  0  0  0  0  0  0  0  0  0
   -0.8980    1.3602    8.3095 H   0  0  0  0  0  0  0  0  0  0  0  0
   -1.8489    0.1652    9.2552 H   0  0  0  0  0  0  0  0  0  0  0  0
  1  3  1  0  0  0  0
  1  7  1  0  0  0  0
  1  2  2  0  0  0  0
 30 31  1  0  0  0  0
 31 39  1  0  0  0  0
 31 32  2  0  0  0  0
  8  9  1  0  0  0  0
  9 17  1  0  0  0  0
  9 10  2  0  0  0  0
 18 19  1  0  0  0  0
 19 29  1  0  0  0  0
 19 20  2  0  0  0  0
 21 22  1  0  0  0  0
 22 23  1  0  0  0  0
 22 24  2  0  0  0  0
 30 33  1  0  0  0  0
  8 11  1  0  0  0  0
 39 40  1  0  0  0  0
 18 21  1  0  0  0  0
 29 30  1  0  0  0  0
  7  8  1  0  0  0  0
 17 18  1  0  0  0  0
  3  4  1  0  0  0  0
  3  5  1  0  0  0  0
  3  6  1  0  0  0  0
 33 36  1  0  0  0  0
 33 37  1  0  0  0  0
 33 38  1  0  0  0  0
 11 14  1  0  0  0  0
 11 15  1  0  0  0  0
 11 16  1  0  0  0  0
 40 42  1  0  0  0  0
 40 43  1  0  0  0  0
 40 44  1  0  0  0  0
 21 27  1  0  0  0  0
 21 28  1  0  0  0  0
 30 35  1  0  0  0  0
  8 13  1  0  0  0  0
 18 26  1  0  0  0  0
 39 41  1  0  0  0  0
  7 12  1  0  0  0  0
 29 34  1  0  0  0  0
 17 25  1  0  0  0  0
M  CHG  1  23  -1
M  END
$$$$

  -OEChem-05262214473D

 44 43  0     1  0  0  0  0  0999 V2000
   -4.0256   -1.8030   -2.1581 C   0  0  0  0  0  0  0  0  0  0  0  0
   -3.7513   -2.6782   -2.9709 O   0  0  0  0  0  0  0  0  0  0  0  0
   -5.3491   -1.1169   -2.2339 C   0  0  0  0  0  0  0  0  0  0  0  0
   -5.3223   -0.2211   -2.8750 H   0  0  0  0  0  0  0  0  0  0  0  0
   -6.1322   -1.7605   -2.6658 H   0  0  0  0  0  0  0  0  0  0  0  0
   -5.7568   -0.7715   -1.2704 H   0  0  0  0  0  0  0  0  0  0  0  0
   -3.2124   -1.3578   -1.1289 N   0  0  0  0  0  0  0  0  0  0  0  0
   -1.8971   -1.8843   -0.8752 C   0  0  2  0  0  0  0  0  0  0  0  0
   -1.2676   -1.0599    0.2399 C   0  0  0  0  0  0  0  0  0  0  0  0
   -1.6270    0.0833    0.5138 O   0  0  0  0  0  0  0  0  0  0  0  0
   -1.0364   -1.8506   -2.1285 C   0  0  0  0  0  0  0  0  0  0  0  0
   -3.5631   -0.6202   -0.5206 H   0  0  0  0  0  0  0  0  0  0  0  0
   -2.0301   -2.9174   -0.5360 H   0  0  0  0  0  0  0  0  0  0  0  0
   -0.8921   -0.8236   -2.4833 H   0  0  0  0  0  0  0  0  0  0  0  0
   -0.0457   -2.2777   -1.9410 H   0  0  0  0  0  0  0  0  0  0  0  0
   -1.5052   -2.4193   -2.9387 H   0  0  0  0  0  0  0  0  0  0  0  0
   -0.2267   -1.7335    0.8672 N   0  0  0  0  0  0  0  0  0  0  0  0
    0.5363   -1.1590    1.9465 C   0  0  2  0  0  0  0  0  0  0  0  0
    0.0733   -1.8325    3.2333 C   0  0  0  0  0  0  0  0  0  0  0  0
   -0.3092   -2.9999    3.2788 O   0  0  0  0  0  0  0  0  0  0  0  0
    0.3458    0.3535    2.0341 C   0  0  0  0  0  0  0  0  0  0  0  0
    0.9487    1.1839    0.8939 C   0  0  0  0  0  0  0  0  0  0  0  0
    1.9691    0.6614    0.3585 O   0  5  0  0  0  0  0  0  0  0  0  0
    0.3784    2.2769    0.6278 O   0  0  0  0  0  0  0  0  0  0  0  0
   -0.0113   -2.6869    0.5854 H   0  0  0  0  0  0  0  0  0  0  0  0
    1.5856   -1.4161    1.7626 H   0  0  0  0  0  0  0  0  0  0  0  0
    0.7648    0.7243    2.9796 H   0  0  0  0  0  0  0  0  0  0  0  0
   -0.7261    0.5902    2.0559 H   0  0  0  0  0  0  0  0  0  0  0  0
    0.1874   -0.9923    4.3321 N   0  0  0  0  0  0  0  0  0  0  0  0
   -0.1580   -1.4061    5.6722 C   0  0  2  0  0  0  0  0  0  0  0  0
   -0.6573   -0.1820    6.4283 C   0  0  0  0  0  0  0  0  0  0  0  0
   -0.3720    0.9690    6.1045 O   0  0  0  0  0  0  0  0  0  0  0  0
    1.0314   -2.0350    6.3810 C   0  0  0  0  0  0  0  0  0  0  0  0
    0.5596   -0.0554    4.2077 H   0  0  0  0  0  0  0  0  0  0  0  0
   -0.9706   -2.1348    5.5786 H   0  0  0  0  0  0  0  0  0  0  0  0
    1.8556   -1.3198    6.4840 H   0  0  0  0  0  0  0  0  0  0  0  0
    0.7604   -2.3740    7.3863 H   0  0  0  0  0  0  0  0  0  0  0  0
    1.4078   -2.8974    5.8202 H   0  0  0  0  0  0  0  0  0  0  0  0
   -1.4237   -0.5274    7.5327 N   0  0  0  0  0  0  0  0  0  0  0  0
   -2.0019    0.4557    8.4187 C   0  0  0  0  0  0  0  0  0  0  0  0
   -1.6252   -1.5062    7.7146 H   0  0  0  0  0  0  0  0  0  0  0  0
   -1.3129    0.6470    9.2546 H   0  0  0  0  0  0  0  0  0  0  0  0
   -2.1757    1.3905    7.8656 H   0  0  0  0  0  0  0  0  0  0  0  0
   -2.9579    0.0785    8.8108 H   0  0  0  0  0  0  0  0  0  0  0  0
  1  3  1  0  0  0  0
  1  7  1  0  0  0  0
  1  2  2  0  0  0  0
 30 31  1  0  0  0  0
 31 39  1  0  0  0  0
 31 32  2  0  0  0  0
  8  9  1  0  0  0  0
  9 17  1  0  0  0  0
  9 10  2  0  0  0  0
 18 19  1  0  0  0  0
 19 29  1  0  0  0  0
 19 20  2  0  0  0  0
 21 22  1  0  0  0  0
 22 23  1  0  0  0  0
 22 24  2  0  0  0  0
 30 33  1  0  0  0  0
  8 11  1  0  0  0  0
 39 40  1  0  0  0  0
 18 21  1  0  0  0  0
 29 30  1  0  0  0  0
  7  8  1  0  0  0  0
 17 18  1  0  0  0  0
  3  4  1  0  0  0  0
  3  5  1  0  0  0  0
  3  6  1  0  0  0  0
 33 36  1  0  0  0  0
 33 37  1  0  0  0  0
 33 38  1  0  0  0  0
 11 14  1  0  0  0  0
 11 15  1  0  0  0  0
 11 16  1  0  0  0  0
 40 42  1  0  0  0  0
 40 43  1  0  0  0  0
 40 44  1  0  0  0  0
 21 27  1  0  0  0  0
 21 28  1  0  0  0  0
 30 35  1  0  0  0  0
  8 13  1  0  0  0  0
 18 26  1  0  0  0  0
 39 41  1  0  0  0  0
  7 12  1  0  0  0  0
 29 34  1  0  0  0  0
 17 25  1  0  0  0  0
M  CHG  1  23  -1
M  END
$$$$

  -OEChem-05262214473D

 44 43  0     1  0  0  0  0  0999 V2000
   -4.0256   -1.8030   -2.1581 C   0  0  0  0  0  0  0  0  0  0  0  0
   -3.7513   -2.6782   -2.9709 O   0  0  0  0  0  0  0  0  0  0  0  0
   -5.3491   -1.1169   -2.2339 C   0  0  0  0  0  0  0  0  0  0  0  0
   -5.3223   -0.2211   -2.8750 H   0  0  0  0  0  0  0  0  0  0  0  0
   -6.1322   -1.7605   -2.6658 H   0  0  0  0  0  0  0  0  0  0  0  0
   -5.7568   -0.7715   -1.2704 H   0  0  0  0  0  0  0  0  0  0  0  0
   -3.2124   -1.3578   -1.1289 N   0  0  0  0  0  0  0  0  0  0  0  0
   -1.8971   -1.8843   -0.8752 C   0  0  2  0  0  0  0  0  0  0  0  0
   -1.2676   -1.0599    0.2399 C   0  0  0  0  0  0  0  0  0  0  0  0
   -1.6270    0.0833    0.5138 O   0  0  0  0  0  0  0  0  0  0  0  0
   -1.0364   -1.8506   -2.1285 C   0  0  0  0  0  0  0  0  0  0  0  0
   -3.5631   -0.6202   -0.5206 H   0  0  0  0  0  0  0  0  0  0  0  0
   -2.0301   -2.9174   -0.5360 H   0  0  0  0  0  0  0  0  0  0  0  0
   -0.8921   -0.8236   -2.4833 H   0  0  0  0  0  0  0  0  0  0  0  0
   -0.0457   -2.2777   -1.9410 H   0  0  0  0  0  0  0  0  0  0  0  0
   -1.5052   -2.4193   -2.9387 H   0  0  0  0  0  0  0  0  0  0  0  0
   -0.2267   -1.7335    0.8672 N   0  0  0  0  0  0  0  0  0  0  0  0
    0.5363   -1.1590    1.9465 C   0  0  2  0  0  0  0  0  0  0  0  0
    0.0733   -1.8325    3.2333 C   0  0  0  0  0  0  0  0  0  0  0  0
   -0.0533   -3.0502    3.3446 O   0  0  0  0  0  0  0  0  0  0  0  0
    0.3458    0.3535    2.0341 C   0  0  0  0  0  0  0  0  0  0  0  0
    0.9487    1.1839    0.8939 C   0  0  0  0  0  0  0  0  0  0  0  0
    1.9691    0.6614    0.3585 O   0  5  0  0  0  0  0  0  0  0  0  0
    0.3784    2.2769    0.6278 O   0  0  0  0  0  0  0  0  0  0  0  0
   -0.0113   -2.6869    0.5854 H   0  0  0  0  0  0  0  0  0  0  0  0
    1.5856   -1.4161    1.7626 H   0  0  0  0  0  0  0  0  0  0  0  0
    0.7648    0.7243    2.9796 H   0  0  0  0  0  0  0  0  0  0  0  0
   -0.7261    0.5902    2.0559 H   0  0  0  0  0  0  0  0  0  0  0  0
   -0.1311   -0.9175    4.2566 N   0  0  0  0  0  0  0  0  0  0  0  0
   -0.5423   -1.3086    5.5849 C   0  0  2  0  0  0  0  0  0  0  0  0
   -1.3810   -0.1797    6.1692 C   0  0  0  0  0  0  0  0  0  0  0  0
   -1.3109    0.9821    5.7736 O   0  0  0  0  0  0  0  0  0  0  0  0
    0.6577   -1.6083    6.4698 C   0  0  0  0  0  0  0  0  0  0  0  0
    0.0445    0.0686    4.0873 H   0  0  0  0  0  0  0  0  0  0  0  0
   -1.1623   -2.2048    5.4730 H   0  0  0  0  0  0  0  0  0  0  0  0
    1.2907   -0.7221    6.5935 H   0  0  0  0  0  0  0  0  0  0  0  0
    0.3438   -1.9322    7.4676 H   0  0  0  0  0  0  0  0  0  0  0  0
    1.2759   -2.4000    6.0331 H   0  0  0  0  0  0  0  0  0  0  0  0
   -2.1857   -0.6138    7.2133 N   0  0  0  0  0  0  0  0  0  0  0  0
   -3.0654    0.2717    7.9399 C   0  0  0  0  0  0  0  0  0  0  0  0
   -2.1940   -1.5987    7.4616 H   0  0  0  0  0  0  0  0  0  0  0  0
   -2.5415    0.6666    8.8228 H   0  0  0  0  0  0  0  0  0  0  0  0
   -3.3657    1.1057    7.2885 H   0  0  0  0  0  0  0  0  0  0  0  0
   -3.9594   -0.2825    8.2616 H   0  0  0  0  0  0  0  0  0  0  0  0
  1  3  1  0  0  0  0
  1  7  1  0  0  0  0
  1  2  2  0  0  0  0
 30 31  1  0  0  0  0
 31 39  1  0  0  0  0
 31 32  2  0  0  0  0
  8  9  1  0  0  0  0
  9 17  1  0  0  0  0
  9 10  2  0  0  0  0
 18 19  1  0  0  0  0
 19 29  1  0  0  0  0
 19 20  2  0  0  0  0
 21 22  1  0  0  0  0
 22 23  1  0  0  0  0
 22 24  2  0  0  0  0
 30 33  1  0  0  0  0
  8 11  1  0  0  0  0
 39 40  1  0  0  0  0
 18 21  1  0  0  0  0
 29 30  1  0  0  0  0
  7  8  1  0  0  0  0
 17 18  1  0  0  0  0
  3  4  1  0  0  0  0
  3  5  1  0  0  0  0
  3  6  1  0  0  0  0
 33 36  1  0  0  0  0
 33 37  1  0  0  0  0
 33 38  1  0  0  0  0
 11 14  1  0  0  0  0
 11 15  1  0  0  0  0
 11 16  1  0  0  0  0
 40 42  1  0  0  0  0
 40 43  1  0  0  0  0
 40 44  1  0  0  0  0
 21 27  1  0  0  0  0
 21 28  1  0  0  0  0
 30 35  1  0  0  0  0
  8 13  1  0  0  0  0
 18 26  1  0  0  0  0
 39 41  1  0  0  0  0
  7 12  1  0  0  0  0
 29 34  1  0  0  0  0
 17 25  1  0  0  0  0
M  CHG  1  23  -1
M  END
$$$$

  -OEChem-05262214473D

 44 43  0     1  0  0  0  0  0999 V2000
   -4.0256   -1.8030   -2.1581 C   0  0  0  0  0  0  0  0  0  0  0  0
   -3.7513   -2.6782   -2.9709 O   0  0  0  0  0  0  0  0  0  0  0  0
   -5.3491   -1.1169   -2.2339 C   0  0  0  0  0  0  0  0  0  0  0  0
   -5.3223   -0.2211   -2.8750 H   0  0  0  0  0  0  0  0  0  0  0  0
   -6.1322   -1.7605   -2.6658 H   0  0  0  0  0  0  0  0  0  0  0  0
   -5.7568   -0.7715   -1.2704 H   0  0  0  0  0  0  0  0  0  0  0  0
   -3.2124   -1.3578   -1.1289 N   0  0  0  0  0  0  0  0  0  0  0  0
   -1.8971   -1.8843   -0.8752 C   0  0  2  0  0  0  0  0  0  0  0  0
   -1.2676   -1.0599    0.2399 C   0  0  0  0  0  0  0  0  0  0  0  0
   -1.6270    0.0833    0.5138 O   0  0  0  0  0  0  0  0  0  0  0  0
   -1.0364   -1.8506   -2.1285 C   0  0  0  0  0  0  0  0  0  0  0  0
   -3.5631   -0.6202   -0.5206 H   0  0  0  0  0  0  0  0  0  0  0  0
   -2.0301   -2.9174   -0.5360 H   0  0  0  0  0  0  0  0  0  0  0  0
   -0.8921   -0.8236   -2.4833 H   0  0  0  0  0  0  0  0  0  0  0  0
   -0.0457   -2.2777   -1.9410 H   0  0  0  0  0  0  0  0  0  0  0  0
   -1.5052   -2.4193   -2.9387 H   0  0  0  0  0  0  0  0  0  0  0  0
   -0.2267   -1.7335    0.8672 N   0  0  0  0  0  0  0  0  0  0  0  0
    0.5363   -1.1590    1.9465 C   0  0  2  0  0  0  0  0  0  0  0  0
    0.0733   -1.8325    3.2333 C   0  0  0  0  0  0  0  0  0  0  0  0
    0.1974   -3.0377    3.4413 O   0  0  0  0  0  0  0  0  0  0  0  0
    0.3458    0.3535    2.0341 C   0  0  0  0  0  0  0  0  0  0  0  0
    0.9487    1.1839    0.8939 C   0  0  0  0  0  0  0  0  0  0  0  0
    1.9691    0.6614    0.3585 O   0  5  0  0  0  0  0  0  0  0  0  0
    0.3784    2.2769    0.6278 O   0  0  0  0  0  0  0  0  0  0  0  0
   -0.0113   -2.6869    0.5854 H   0  0  0  0  0  0  0  0  0  0  0  0
    1.5856   -1.4161    1.7626 H   0  0  0  0  0  0  0  0  0  0  0  0
    0.7648    0.7243    2.9796 H   0  0  0  0  0  0  0  0  0  0  0  0
   -0.7261    0.5902    2.0559 H   0  0  0  0  0  0  0  0  0  0  0  0
   -0.4465   -0.9207    4.1415 N   0  0  0  0  0  0  0  0  0  0  0  0
   -0.9247   -1.3054    5.4490 C   0  0  2  0  0  0  0  0  0  0  0  0
   -2.0510   -0.3559    5.8359 C   0  0  0  0  0  0  0  0  0  0  0  0
   -2.1828    0.7635    5.3455 O   0  0  0  0  0  0  0  0  0  0  0  0
    0.1933   -1.2709    6.4794 C   0  0  0  0  0  0  0  0  0  0  0  0
   -0.4663    0.0663    3.9023 H   0  0  0  0  0  0  0  0  0  0  0  0
   -1.3201   -2.3226    5.3546 H   0  0  0  0  0  0  0  0  0  0  0  0
    0.6020   -0.2596    6.5878 H   0  0  0  0  0  0  0  0  0  0  0  0
   -0.1644   -1.5901    7.4638 H   0  0  0  0  0  0  0  0  0  0  0  0
    1.0155   -1.9317    6.1845 H   0  0  0  0  0  0  0  0  0  0  0  0
   -2.8664   -0.8889    6.8245 N   0  0  0  0  0  0  0  0  0  0  0  0
   -3.9977   -0.1759    7.3701 C   0  0  0  0  0  0  0  0  0  0  0  0
   -2.6943   -1.8322    7.1593 H   0  0  0  0  0  0  0  0  0  0  0  0
   -3.6831    0.3831    8.2637 H   0  0  0  0  0  0  0  0  0  0  0  0
   -4.3869    0.5253    6.6173 H   0  0  0  0  0  0  0  0  0  0  0  0
   -4.7851   -0.8932    7.6449 H   0  0  0  0  0  0  0  0  0  0  0  0
  1  3  1  0  0  0  0
  1  7  1  0  0  0  0
  1  2  2  0  0  0  0
 30 31  1  0  0  0  0
 31 39  1  0  0  0  0
 31 32  2  0  0  0  0
  8  9  1  0  0  0  0
  9 17  1  0  0  0  0
  9 10  2  0  0  0  0
 18 19  1  0  0  0  0
 19 29  1  0  0  0  0
 19 20  2  0  0  0  0
 21 22  1  0  0  0  0
 22 23  1  0  0  0  0
 22 24  2  0  0  0  0
 30 33  1  0  0  0  0
  8 11  1  0  0  0  0
 39 40  1  0  0  0  0
 18 21  1  0  0  0  0
 29 30  1  0  0  0  0
  7  8  1  0  0  0  0
 17 18  1  0  0  0  0
  3  4  1  0  0  0  0
  3  5  1  0  0  0  0
  3  6  1  0  0  0  0
 33 36  1  0  0  0  0
 33 37  1  0  0  0  0
 33 38  1  0  0  0  0
 11 14  1  0  0  0  0
 11 15  1  0  0  0  0
 11 16  1  0  0  0  0
 40 42  1  0  0  0  0
 40 43  1  0  0  0  0
 40 44  1  0  0  0  0
 21 27  1  0  0  0  0
 21 28  1  0  0  0  0
 30 35  1  0  0  0  0
  8 13  1  0  0  0  0
 18 26  1  0  0  0  0
 39 41  1  0  0  0  0
  7 12  1  0  0  0  0
 29 34  1  0  0  0  0
 17 25  1  0  0  0  0
M  CHG  1  23  -1
M  END
$$$$

  -OEChem-05262214473D

 44 43  0     1  0  0  0  0  0999 V2000
   -4.0256   -1.8030   -2.1581 C   0  0  0  0  0  0  0  0  0  0  0  0
   -3.7513   -2.6782   -2.9709 O   0  0  0  0  0  0  0  0  0  0  0  0
   -5.3491   -1.1169   -2.2339 C   0  0  0  0  0  0  0  0  0  0  0  0
   -5.3223   -0.2211   -2.8750 H   0  0  0  0  0  0  0  0  0  0  0  0
   -6.1322   -1.7605   -2.6658 H   0  0  0  0  0  0  0  0  0  0  0  0
   -5.7568   -0.7715   -1.2704 H   0  0  0  0  0  0  0  0  0  0  0  0
   -3.2124   -1.3578   -1.1289 N   0  0  0  0  0  0  0  0  0  0  0  0
   -1.8971   -1.8843   -0.8752 C   0  0  2  0  0  0  0  0  0  0  0  0
   -1.2676   -1.0599    0.2399 C   0  0  0  0  0  0  0  0  0  0  0  0
   -1.6270    0.0833    0.5138 O   0  0  0  0  0  0  0  0  0  0  0  0
   -1.0364   -1.8506   -2.1285 C   0  0  0  0  0  0  0  0  0  0  0  0
   -3.5631   -0.6202   -0.5206 H   0  0  0  0  0  0  0  0  0  0  0  0
   -2.0301   -2.9174   -0.5360 H   0  0  0  0  0  0  0  0  0  0  0  0
   -0.8921   -0.8236   -2.4833 H   0  0  0  0  0  0  0  0  0  0  0  0
   -0.0457   -2.2777   -1.9410 H   0  0  0  0  0  0  0  0  0  0  0  0
   -1.5052   -2.4193   -2.9387 H   0  0  0  0  0  0  0  0  0  0  0  0
   -0.2267   -1.7335    0.8672 N   0  0  0  0  0  0  0  0  0  0  0  0
    0.5363   -1.1590    1.9465 C   0  0  2  0  0  0  0  0  0  0  0  0
    0.0733   -1.8325    3.2333 C   0  0  0  0  0  0  0  0  0  0  0  0
    0.4258   -2.9633    3.5624 O   0  0  0  0  0  0  0  0  0  0  0  0
    0.3458    0.3535    2.0341 C   0  0  0  0  0  0  0  0  0  0  0  0
    0.9487    1.1839    0.8939 C   0  0  0  0  0  0  0  0  0  0  0  0
    1.9691    0.6614    0.3585 O   0  5  0  0  0  0  0  0  0  0  0  0
    0.3784    2.2769    0.6278 O   0  0  0  0  0  0  0  0  0  0  0  0
   -0.0113   -2.6869    0.5854 H   0  0  0  0  0  0  0  0  0  0  0  0
    1.5856   -1.4161    1.7626 H   0  0  0  0  0  0  0  0  0  0  0  0
    0.7648    0.7243    2.9796 H   0  0  0  0  0  0  0  0  0  0  0  0
   -0.7261    0.5902    2.0559 H   0  0  0  0  0  0  0  0  0  0  0  0
   -0.7372   -1.0018    3.9944 N   0  0  0  0  0  0  0  0  0  0  0  0
   -1.2793   -1.3964    5.2738 C   0  0  2  0  0  0  0  0  0  0  0  0
   -2.6214   -0.6988    5.4512 C   0  0  0  0  0  0  0  0  0  0  0  0
   -2.9283    0.3283    4.8495 O   0  0  0  0  0  0  0  0  0  0  0  0
   -0.3301   -1.0456    6.4089 C   0  0  0  0  0  0  0  0  0  0  0  0
   -0.9381   -0.0621    3.6653 H   0  0  0  0  0  0  0  0  0  0  0  0
   -1.4332   -2.4802    5.2314 H   0  0  0  0  0  0  0  0  0  0  0  0
   -0.1637    0.0362    6.4672 H   0  0  0  0  0  0  0  0  0  0  0  0
   -0.7296   -1.3710    7.3751 H   0  0  0  0  0  0  0  0  0  0  0  0
    0.6444   -1.5244    6.2642 H   0  0  0  0  0  0  0  0  0  0  0  0
   -3.4193   -1.3338    6.3927 N   0  0  0  0  0  0  0  0  0  0  0  0
   -4.7353   -0.8568    6.7484 C   0  0  0  0  0  0  0  0  0  0  0  0
   -3.0919   -2.1909    6.8286 H   0  0  0  0  0  0  0  0  0  0  0  0
   -4.6600   -0.1840    7.6154 H   0  0  0  0  0  0  0  0  0  0  0  0
   -5.1698   -0.3113    5.8978 H   0  0  0  0  0  0  0  0  0  0  0  0
   -5.3787   -1.7120    7.0028 H   0  0  0  0  0  0  0  0  0  0  0  0
  1  3  1  0  0  0  0
  1  7  1  0  0  0  0
  1  2  2  0  0  0  0
 30 31  1  0  0  0  0
 31 39  1  0  0  0  0
 31 32  2  0  0  0  0
  8  9  1  0  0  0  0
  9 17  1  0  0  0  0
  9 10  2  0  0  0  0
 18 19  1  0  0  0  0
 19 29  1  0  0  0  0
 19 20  2  0  0  0  0
 21 22  1  0  0  0  0
 22 23  1  0  0  0  0
 22 24  2  0  0  0  0
 30 33  1  0  0  0  0
  8 11  1  0  0  0  0
 39 40  1  0  0  0  0
 18 21  1  0  0  0  0
 29 30  1  0  0  0  0
  7  8  1  0  0  0  0
 17 18  1  0  0  0  0
  3  4  1  0  0  0  0
  3  5  1  0  0  0  0
  3  6  1  0  0  0  0
 33 36  1  0  0  0  0
 33 37  1  0  0  0  0
 33 38  1  0  0  0  0
 11 14  1  0  0  0  0
 11 15  1  0  0  0  0
 11 16  1  0  0  0  0
 40 42  1  0  0  0  0
 40 43  1  0  0  0  0
 40 44  1  0  0  0  0
 21 27  1  0  0  0  0
 21 28  1  0  0  0  0
 30 35  1  0  0  0  0
  8 13  1  0  0  0  0
 18 26  1  0  0  0  0
 39 41  1  0  0  0  0
  7 12  1  0  0  0  0
 29 34  1  0  0  0  0
 17 25  1  0  0  0  0
M  CHG  1  23  -1
M  END
$$$$

  -OEChem-05262214473D

 44 43  0     1  0  0  0  0  0999 V2000
   -4.0256   -1.8030   -2.1581 C   0  0  0  0  0  0  0  0  0  0  0  0
   -3.7513   -2.6782   -2.9709 O   0  0  0  0  0  0  0  0  0  0  0  0
   -5.3491   -1.1169   -2.2339 C   0  0  0  0  0  0  0  0  0  0  0  0
   -5.3223   -0.2211   -2.8750 H   0  0  0  0  0  0  0  0  0  0  0  0
   -6.1322   -1.7605   -2.6658 H   0  0  0  0  0  0  0  0  0  0  0  0
   -5.7568   -0.7715   -1.2704 H   0  0  0  0  0  0  0  0  0  0  0  0
   -3.2124   -1.3578   -1.1289 N   0  0  0  0  0  0  0  0  0  0  0  0
   -1.8971   -1.8843   -0.8752 C   0  0  2  0  0  0  0  0  0  0  0  0
   -1.2676   -1.0599    0.2399 C   0  0  0  0  0  0  0  0  0  0  0  0
   -1.6270    0.0833    0.5138 O   0  0  0  0  0  0  0  0  0  0  0  0
   -1.0364   -1.8506   -2.1285 C   0  0  0  0  0  0  0  0  0  0  0  0
   -3.5631   -0.6202   -0.5206 H   0  0  0  0  0  0  0  0  0  0  0  0
   -2.0301   -2.9174   -0.5360 H   0  0  0  0  0  0  0  0  0  0  0  0
   -0.8921   -0.8236   -2.4833 H   0  0  0  0  0  0  0  0  0  0  0  0
   -0.0457   -2.2777   -1.9410 H   0  0  0  0  0  0  0  0  0  0  0  0
   -1.5052   -2.4193   -2.9387 H   0  0  0  0  0  0  0  0  0  0  0  0
   -0.2267   -1.7335    0.8672 N   0  0  0  0  0  0  0  0  0  0  0  0
    0.5363   -1.1590    1.9465 C   0  0  2  0  0  0  0  0  0  0  0  0
    0.0733   -1.8325    3.2333 C   0  0  0  0  0  0  0  0  0  0  0  0
    0.6162   -2.8320    3.6997 O   0  0  0  0  0  0  0  0  0  0  0  0
    0.3458    0.3535    2.0341 C   0  0  0  0  0  0  0  0  0  0  0  0
    0.9487    1.1839    0.8939 C   0  0  0  0  0  0  0  0  0  0  0  0
    1.9691    0.6614    0.3585 O   0  5  0  0  0  0  0  0  0  0  0  0
    0.3784    2.2769    0.6278 O   0  0  0  0  0  0  0  0  0  0  0  0
   -0.0113   -2.6869    0.5854 H   0  0  0  0  0  0  0  0  0  0  0  0
    1.5856   -1.4161    1.7626 H   0  0  0  0  0  0  0  0  0  0  0  0
    0.7648    0.7243    2.9796 H   0  0  0  0  0  0  0  0  0  0  0  0
   -0.7261    0.5902    2.0559 H   0  0  0  0  0  0  0  0  0  0  0  0
   -0.9835   -1.1552    3.8255 N   0  0  0  0  0  0  0  0  0  0  0  0
   -1.5819   -1.5756    5.0711 C   0  0  2  0  0  0  0  0  0  0  0  0
   -3.0536   -1.1848    5.0414 C   0  0  0  0  0  0  0  0  0  0  0  0
   -3.4966   -0.2940    4.3194 O   0  0  0  0  0  0  0  0  0  0  0  0
   -0.8768   -0.9479    6.2634 C   0  0  0  0  0  0  0  0  0  0  0  0
   -1.3387   -0.3078    3.3926 H   0  0  0  0  0  0  0  0  0  0  0  0
   -1.4940   -2.6668    5.1118 H   0  0  0  0  0  0  0  0  0  0  0  0
   -0.9542    0.1452    6.2398 H   0  0  0  0  0  0  0  0  0  0  0  0
   -1.3132   -1.2898    7.2076 H   0  0  0  0  0  0  0  0  0  0  0  0
    0.1878   -1.2057    6.2666 H   0  0  0  0  0  0  0  0  0  0  0  0
   -3.8068   -1.9183    5.9473 N   0  0  0  0  0  0  0  0  0  0  0  0
   -5.2279   -1.7245    6.1171 C   0  0  0  0  0  0  0  0  0  0  0  0
   -3.3599   -2.6502    6.4918 H   0  0  0  0  0  0  0  0  0  0  0  0
   -5.4056   -0.9963    6.9221 H   0  0  0  0  0  0  0  0  0  0  0  0
   -5.6610   -1.3469    5.1791 H   0  0  0  0  0  0  0  0  0  0  0  0
   -5.6998   -2.6830    6.3791 H   0  0  0  0  0  0  0  0  0  0  0  0
  1  3  1  0  0  0  0
  1  7  1  0  0  0  0
  1  2  2  0  0  0  0
 30 31  1  0  0  0  0
 31 39  1  0  0  0  0
 31 32  2  0  0  0  0
  8  9  1  0  0  0  0
  9 17  1  0  0  0  0
  9 10  2  0  0  0  0
 18 19  1  0  0  0  0
 19 29  1  0  0  0  0
 19 20  2  0  0  0  0
 21 22  1  0  0  0  0
 22 23  1  0  0  0  0
 22 24  2  0  0  0  0
 30 33  1  0  0  0  0
  8 11  1  0  0  0  0
 39 40  1  0  0  0  0
 18 21  1  0  0  0  0
 29 30  1  0  0  0  0
  7  8  1  0  0  0  0
 17 18  1  0  0  0  0
  3  4  1  0  0  0  0
  3  5  1  0  0  0  0
  3  6  1  0  0  0  0
 33 36  1  0  0  0  0
 33 37  1  0  0  0  0
 33 38  1  0  0  0  0
 11 14  1  0  0  0  0
 11 15  1  0  0  0  0
 11 16  1  0  0  0  0
 40 42  1  0  0  0  0
 40 43  1  0  0  0  0
 40 44  1  0  0  0  0
 21 27  1  0  0  0  0
 21 28  1  0  0  0  0
 30 35  1  0  0  0  0
  8 13  1  0  0  0  0
 18 26  1  0  0  0  0
 39 41  1  0  0  0  0
  7 12  1  0  0  0  0
 29 34  1  0  0  0  0
 17 25  1  0  0  0  0
M  CHG  1  23  -1
M  END
$$$$

  -OEChem-05262214473D

 44 43  0     1  0  0  0  0  0999 V2000
   -4.0256   -1.8030   -2.1581 C   0  0  0  0  0  0  0  0  0  0  0  0
   -3.7513   -2.6782   -2.9709 O   0  0  0  0  0  0  0  0  0  0  0  0
   -5.3491   -1.1169   -2.2339 C   0  0  0  0  0  0  0  0  0  0  0  0
   -5.3223   -0.2211   -2.8750 H   0  0  0  0  0  0  0  0  0  0  0  0
   -6.1322   -1.7605   -2.6658 H   0  0  0  0  0  0  0  0  0  0  0  0
   -5.7568   -0.7715   -1.2704 H   0  0  0  0  0  0  0  0  0  0  0  0
   -3.2124   -1.3578   -1.1289 N   0  0  0  0  0  0  0  0  0  0  0  0
   -1.8971   -1.8843   -0.8752 C   0  0  2  0  0  0  0  0  0  0  0  0
   -1.2676   -1.0599    0.2399 C   0  0  0  0  0  0  0  0  0  0  0  0
   -1.6270    0.0833    0.5138 O   0  0  0  0  0  0  0  0  0  0  0  0
   -1.0364   -1.8506   -2.1285 C   0  0  0  0  0  0  0  0  0  0  0  0
   -3.5631   -0.6202   -0.5206 H   0  0  0  0  0  0  0  0  0  0  0  0
   -2.0301   -2.9174   -0.5360 H   0  0  0  0  0  0  0  0  0  0  0  0
   -0.8921   -0.8236   -2.4833 H   0  0  0  0  0  0  0  0  0  0  0  0
   -0.0457   -2.2777   -1.9410 H   0  0  0  0  0  0  0  0  0  0  0  0
   -1.5052   -2.4193   -2.9387 H   0  0  0  0  0  0  0  0  0  0  0  0
   -0.2267   -1.7335    0.8672 N   0  0  0  0  0  0  0  0  0  0  0  0
    0.5363   -1.1590    1.9465 C   0  0  2  0  0  0  0  0  0  0  0  0
    0.0733   -1.8325    3.2333 C   0  0  0  0  0  0  0  0  0  0  0  0
    0.7558   -2.6527    3.8437 O   0  0  0  0  0  0  0  0  0  0  0  0
    0.3458    0.3535    2.0341 C   0  0  0  0  0  0  0  0  0  0  0  0
    0.9487    1.1839    0.8939 C   0  0  0  0  0  0  0  0  0  0  0  0
    1.9691    0.6614    0.3585 O   0  5  0  0  0  0  0  0  0  0  0  0
    0.3784    2.2769    0.6278 O   0  0  0  0  0  0  0  0  0  0  0  0
   -0.0113   -2.6869    0.5854 H   0  0  0  0  0  0  0  0  0  0  0  0
    1.5856   -1.4161    1.7626 H   0  0  0  0  0  0  0  0  0  0  0  0
    0.7648    0.7243    2.9796 H   0  0  0  0  0  0  0  0  0  0  0  0
   -0.7261    0.5902    2.0559 H   0  0  0  0  0  0  0  0  0  0  0  0
   -1.1686   -1.3705    3.6463 N   0  0  0  0  0  0  0  0  0  0  0  0
   -1.8118   -1.8308    4.8549 C   0  0  2  0  0  0  0  0  0  0  0  0
   -3.3179   -1.7809    4.6343 C   0  0  0  0  0  0  0  0  0  0  0  0
   -3.8489   -1.0609    3.7912 O   0  0  0  0  0  0  0  0  0  0  0  0
   -1.4096   -0.9844    6.0526 C   0  0  0  0  0  0  0  0  0  0  0  0
   -1.6408   -0.6541    3.1027 H   0  0  0  0  0  0  0  0  0  0  0  0
   -1.4982   -2.8697    5.0041 H   0  0  0  0  0  0  0  0  0  0  0  0
   -1.7155    0.0599    5.9213 H   0  0  0  0  0  0  0  0  0  0  0  0
   -1.8756   -1.3521    6.9727 H   0  0  0  0  0  0  0  0  0  0  0  0
   -0.3232   -0.9975    6.1918 H   0  0  0  0  0  0  0  0  0  0  0  0
   -4.0025   -2.6026    5.5188 N   0  0  0  0  0  0  0  0  0  0  0  0
   -5.4420   -2.7199    5.5191 C   0  0  0  0  0  0  0  0  0  0  0  0
   -3.4798   -3.1788    6.1720 H   0  0  0  0  0  0  0  0  0  0  0  0
   -5.8690   -1.9982    6.2310 H   0  0  0  0  0  0  0  0  0  0  0  0
   -5.8270   -2.5111    4.5101 H   0  0  0  0  0  0  0  0  0  0  0  0
   -5.7265   -3.7401    5.8162 H   0  0  0  0  0  0  0  0  0  0  0  0
  1  3  1  0  0  0  0
  1  7  1  0  0  0  0
  1  2  2  0  0  0  0
 30 31  1  0  0  0  0
 31 39  1  0  0  0  0
 31 32  2  0  0  0  0
  8  9  1  0  0  0  0
  9 17  1  0  0  0  0
  9 10  2  0  0  0  0
 18 19  1  0  0  0  0
 19 29  1  0  0  0  0
 19 20  2  0  0  0  0
 21 22  1  0  0  0  0
 22 23  1  0  0  0  0
 22 24  2  0  0  0  0
 30 33  1  0  0  0  0
  8 11  1  0  0  0  0
 39 40  1  0  0  0  0
 18 21  1  0  0  0  0
 29 30  1  0  0  0  0
  7  8  1  0  0  0  0
 17 18  1  0  0  0  0
  3  4  1  0  0  0  0
  3  5  1  0  0  0  0
  3  6  1  0  0  0  0
 33 36  1  0  0  0  0
 33 37  1  0  0  0  0
 33 38  1  0  0  0  0
 11 14  1  0  0  0  0
 11 15  1  0  0  0  0
 11 16  1  0  0  0  0
 40 42  1  0  0  0  0
 40 43  1  0  0  0  0
 40 44  1  0  0  0  0
 21 27  1  0  0  0  0
 21 28  1  0  0  0  0
 30 35  1  0  0  0  0
  8 13  1  0  0  0  0
 18 26  1  0  0  0  0
 39 41  1  0  0  0  0
  7 12  1  0  0  0  0
 29 34  1  0  0  0  0
 17 25  1  0  0  0  0
M  CHG  1  23  -1
M  END
$$$$

  -OEChem-05262214473D

 44 43  0     1  0  0  0  0  0999 V2000
   -4.0256   -1.8030   -2.1581 C   0  0  0  0  0  0  0  0  0  0  0  0
   -3.7513   -2.6782   -2.9709 O   0  0  0  0  0  0  0  0  0  0  0  0
   -5.3491   -1.1169   -2.2339 C   0  0  0  0  0  0  0  0  0  0  0  0
   -5.3223   -0.2211   -2.8750 H   0  0  0  0  0  0  0  0  0  0  0  0
   -6.1322   -1.7605   -2.6658 H   0  0  0  0  0  0  0  0  0  0  0  0
   -5.7568   -0.7715   -1.2704 H   0  0  0  0  0  0  0  0  0  0  0  0
   -3.2124   -1.3578   -1.1289 N   0  0  0  0  0  0  0  0  0  0  0  0
   -1.8971   -1.8843   -0.8752 C   0  0  2  0  0  0  0  0  0  0  0  0
   -1.2676   -1.0599    0.2399 C   0  0  0  0  0  0  0  0  0  0  0  0
   -1.6270    0.0833    0.5138 O   0  0  0  0  0  0  0  0  0  0  0  0
   -1.0364   -1.8506   -2.1285 C   0  0  0  0  0  0  0  0  0  0  0  0
   -3.5631   -0.6202   -0.5206 H   0  0  0  0  0  0  0  0  0  0  0  0
   -2.0301   -2.9174   -0.5360 H   0  0  0  0  0  0  0  0  0  0  0  0
   -0.8921   -0.8236   -2.4833 H   0  0  0  0  0  0  0  0  0  0  0  0
   -0.0457   -2.2777   -1.9410 H   0  0  0  0  0  0  0  0  0  0  0  0
   -1.5052   -2.4193   -2.9387 H   0  0  0  0  0  0  0  0  0  0  0  0
   -0.2267   -1.7335    0.8672 N   0  0  0  0  0  0  0  0  0  0  0  0
    0.5363   -1.1590    1.9465 C   0  0  2  0  0  0  0  0  0  0  0  0
    0.0733   -1.8325    3.2333 C   0  0  0  0  0  0  0  0  0  0  0  0
    0.8351   -2.4378    3.9847 O   0  0  0  0  0  0  0  0  0  0  0  0
    0.3458    0.3535    2.0341 C   0  0  0  0  0  0  0  0  0  0  0  0
    0.9487    1.1839    0.8939 C   0  0  0  0  0  0  0  0  0  0  0  0
    1.9691    0.6614    0.3585 O   0  5  0  0  0  0  0  0  0  0  0  0
    0.3784    2.2769    0.6278 O   0  0  0  0  0  0  0  0  0  0  0  0
   -0.0113   -2.6869    0.5854 H   0  0  0  0  0  0  0  0  0  0  0  0
    1.5856   -1.4161    1.7626 H   0  0  0  0  0  0  0  0  0  0  0  0
    0.7648    0.7243    2.9796 H   0  0  0  0  0  0  0  0  0  0  0  0
   -0.7261    0.5902    2.0559 H   0  0  0  0  0  0  0  0  0  0  0  0
   -1.2798   -1.6330    3.4689 N   0  0  0  0  0  0  0  0  0  0  0  0
   -1.9535   -2.1445    4.6397 C   0  0  2  0  0  0  0  0  0  0  0  0
   -3.3965   -2.4464    4.2577 C   0  0  0  0  0  0  0  0  0  0  0  0
   -3.9613   -1.9201    3.3011 O   0  0  0  0  0  0  0  0  0  0  0  0
   -1.8921   -1.1527    5.7910 C   0  0  0  0  0  0  0  0  0  0  0  0
   -1.8238   -1.0773    2.8154 H   0  0  0  0  0  0  0  0  0  0  0  0
   -1.4457   -3.0751    4.9155 H   0  0  0  0  0  0  0  0  0  0  0  0
   -2.3958   -0.2139    5.5333 H   0  0  0  0  0  0  0  0  0  0  0  0
   -2.3783   -1.5536    6.6864 H   0  0  0  0  0  0  0  0  0  0  0  0
   -0.8536   -0.9139    6.0447 H   0  0  0  0  0  0  0  0  0  0  0  0
   -3.9929   -3.3400    5.1363 N   0  0  0  0  0  0  0  0  0  0  0  0
   -5.3629   -3.7752    4.9953 C   0  0  0  0  0  0  0  0  0  0  0  0
   -3.4436   -3.7408    5.8909 H   0  0  0  0  0  0  0  0  0  0  0  0
   -6.0187   -3.1216    5.5892 H   0  0  0  0  0  0  0  0  0  0  0  0
   -5.6564   -3.7244    3.9364 H   0  0  0  0  0  0  0  0  0  0  0  0
   -5.4570   -4.8112    5.3526 H   0  0  0  0  0  0  0  0  0  0  0  0
  1  3  1  0  0  0  0
  1  7  1  0  0  0  0
  1  2  2  0  0  0  0
 30 31  1  0  0  0  0
 31 39  1  0  0  0  0
 31 32  2  0  0  0  0
  8  9  1  0  0  0  0
  9 17  1  0  0  0  0
  9 10  2  0  0  0  0
 18 19  1  0  0  0  0
 19 29  1  0  0  0  0
 19 20  2  0  0  0  0
 21 22  1  0  0  0  0
 22 23  1  0  0  0  0
 22 24  2  0  0  0  0
 30 33  1  0  0  0  0
  8 11  1  0  0  0  0
 39 40  1  0  0  0  0
 18 21  1  0  0  0  0
 29 30  1  0  0  0  0
  7  8  1  0  0  0  0
 17 18  1  0  0  0  0
  3  4  1  0  0  0  0
  3  5  1  0  0  0  0
  3  6  1  0  0  0  0
 33 36  1  0  0  0  0
 33 37  1  0  0  0  0
 33 38  1  0  0  0  0
 11 14  1  0  0  0  0
 11 15  1  0  0  0  0
 11 16  1  0  0  0  0
 40 42  1  0  0  0  0
 40 43  1  0  0  0  0
 40 44  1  0  0  0  0
 21 27  1  0  0  0  0
 21 28  1  0  0  0  0
 30 35  1  0  0  0  0
  8 13  1  0  0  0  0
 18 26  1  0  0  0  0
 39 41  1  0  0  0  0
  7 12  1  0  0  0  0
 29 34  1  0  0  0  0
 17 25  1  0  0  0  0
M  CHG  1  23  -1
M  END
$$$$

  -OEChem-05262214473D

 44 43  0     1  0  0  0  0  0999 V2000
   -4.0256   -1.8030   -2.1581 C   0  0  0  0  0  0  0  0  0  0  0  0
   -3.7513   -2.6782   -2.9709 O   0  0  0  0  0  0  0  0  0  0  0  0
   -5.3491   -1.1169   -2.2339 C   0  0  0  0  0  0  0  0  0  0  0  0
   -5.3223   -0.2211   -2.8750 H   0  0  0  0  0  0  0  0  0  0  0  0
   -6.1322   -1.7605   -2.6658 H   0  0  0  0  0  0  0  0  0  0  0  0
   -5.7568   -0.7715   -1.2704 H   0  0  0  0  0  0  0  0  0  0  0  0
   -3.2124   -1.3578   -1.1289 N   0  0  0  0  0  0  0  0  0  0  0  0
   -1.8971   -1.8843   -0.8752 C   0  0  2  0  0  0  0  0  0  0  0  0
   -1.2676   -1.0599    0.2399 C   0  0  0  0  0  0  0  0  0  0  0  0
   -1.6270    0.0833    0.5138 O   0  0  0  0  0  0  0  0  0  0  0  0
   -1.0364   -1.8506   -2.1285 C   0  0  0  0  0  0  0  0  0  0  0  0
   -3.5631   -0.6202   -0.5206 H   0  0  0  0  0  0  0  0  0  0  0  0
   -2.0301   -2.9174   -0.5360 H   0  0  0  0  0  0  0  0  0  0  0  0
   -0.8921   -0.8236   -2.4833 H   0  0  0  0  0  0  0  0  0  0  0  0
   -0.0457   -2.2777   -1.9410 H   0  0  0  0  0  0  0  0  0  0  0  0
   -1.5052   -2.4193   -2.9387 H   0  0  0  0  0  0  0  0  0  0  0  0
   -0.2267   -1.7335    0.8672 N   0  0  0  0  0  0  0  0  0  0  0  0
    0.5363   -1.1590    1.9465 C   0  0  2  0  0  0  0  0  0  0  0  0
    0.0733   -1.8325    3.2333 C   0  0  0  0  0  0  0  0  0  0  0  0
    0.8485   -2.2017    4.1131 O   0  0  0  0  0  0  0  0  0  0  0  0
    0.3458    0.3535    2.0341 C   0  0  0  0  0  0  0  0  0  0  0  0
    0.9487    1.1839    0.8939 C   0  0  0  0  0  0  0  0  0  0  0  0
    1.9691    0.6614    0.3585 O   0  5  0  0  0  0  0  0  0  0  0  0
    0.3784    2.2769    0.6278 O   0  0  0  0  0  0  0  0  0  0  0  0
   -0.0113   -2.6869    0.5854 H   0  0  0  0  0  0  0  0  0  0  0  0
    1.5856   -1.4161    1.7626 H   0  0  0  0  0  0  0  0  0  0  0  0
    0.7648    0.7243    2.9796 H   0  0  0  0  0  0  0  0  0  0  0  0
   -0.7261    0.5902    2.0559 H   0  0  0  0  0  0  0  0  0  0  0  0
   -1.3096   -1.9247    3.3055 N   0  0  0  0  0  0  0  0  0  0  0  0
   -1.9972   -2.4953    4.4404 C   0  0  2  0  0  0  0  0  0  0  0  0
   -3.2840   -3.1360    3.9373 C   0  0  0  0  0  0  0  0  0  0  0  0
   -3.8261   -2.8132    2.8823 O   0  0  0  0  0  0  0  0  0  0  0  0
   -2.2915   -1.4412    5.4963 C   0  0  0  0  0  0  0  0  0  0  0  0
   -1.8752   -1.5487    2.5502 H   0  0  0  0  0  0  0  0  0  0  0  0
   -1.3400   -3.2690    4.8521 H   0  0  0  0  0  0  0  0  0  0  0  0
   -2.9487   -0.6574    5.1022 H   0  0  0  0  0  0  0  0  0  0  0  0
   -2.7872   -1.8806    6.3682 H   0  0  0  0  0  0  0  0  0  0  0  0
   -1.3675   -0.9606    5.8354 H   0  0  0  0  0  0  0  0  0  0  0  0
   -3.7789   -4.0803    4.8259 N   0  0  0  0  0  0  0  0  0  0  0  0
   -4.9960   -4.8184    4.5813 C   0  0  0  0  0  0  0  0  0  0  0  0
   -3.2538   -4.2978    5.6677 H   0  0  0  0  0  0  0  0  0  0  0  0
   -5.8445   -4.2899    5.0404 H   0  0  0  0  0  0  0  0  0  0  0  0
   -5.1611   -4.9042    3.4971 H   0  0  0  0  0  0  0  0  0  0  0  0
   -4.9096   -5.8235    5.0198 H   0  0  0  0  0  0  0  0  0  0  0  0
  1  3  1  0  0  0  0
  1  7  1  0  0  0  0
  1  2  2  0  0  0  0
 30 31  1  0  0  0  0
 31 39  1  0  0  0  0
 31 32  2  0  0  0  0
  8  9  1  0  0  0  0
  9 17  1  0  0  0  0
  9 10  2  0  0  0  0
 18 19  1  0  0  0  0
 19 29  1  0  0  0  0
 19 20  2  0  0  0  0
 21 22  1  0  0  0  0
 22 23  1  0  0  0  0
 22 24  2  0  0  0  0
 30 33  1  0  0  0  0
  8 11  1  0  0  0  0
 39 40  1  0  0  0  0
 18 21  1  0  0  0  0
 29 30  1  0  0  0  0
  7  8  1  0  0  0  0
 17 18  1  0  0  0  0
  3  4  1  0  0  0  0
  3  5  1  0  0  0  0
  3  6  1  0  0  0  0
 33 36  1  0  0  0  0
 33 37  1  0  0  0  0
 33 38  1  0  0  0  0
 11 14  1  0  0  0  0
 11 15  1  0  0  0  0
 11 16  1  0  0  0  0
 40 42  1  0  0  0  0
 40 43  1  0  0  0  0
 40 44  1  0  0  0  0
 21 27  1  0  0  0  0
 21 28  1  0  0  0  0
 30 35  1  0  0  0  0
  8 13  1  0  0  0  0
 18 26  1  0  0  0  0
 39 41  1  0  0  0  0
  7 12  1  0  0  0  0
 29 34  1  0  0  0  0
 17 25  1  0  0  0  0
M  CHG  1  23  -1
M  END
$$$$

  -OEChem-05262214473D

 44 43  0     1  0  0  0  0  0999 V2000
   -4.0256   -1.8030   -2.1581 C   0  0  0  0  0  0  0  0  0  0  0  0
   -3.7513   -2.6782   -2.9709 O   0  0  0  0  0  0  0  0  0  0  0  0
   -5.3491   -1.1169   -2.2339 C   0  0  0  0  0  0  0  0  0  0  0  0
   -5.3223   -0.2211   -2.8750 H   0  0  0  0  0  0  0  0  0  0  0  0
   -6.1322   -1.7605   -2.6658 H   0  0  0  0  0  0  0  0  0  0  0  0
   -5.7568   -0.7715   -1.2704 H   0  0  0  0  0  0  0  0  0  0  0  0
   -3.2124   -1.3578   -1.1289 N   0  0  0  0  0  0  0  0  0  0  0  0
   -1.8971   -1.8843   -0.8752 C   0  0  2  0  0  0  0  0  0  0  0  0
   -1.2676   -1.0599    0.2399 C   0  0  0  0  0  0  0  0  0  0  0  0
   -1.6270    0.0833    0.5138 O   0  0  0  0  0  0  0  0  0  0  0  0
   -1.0364   -1.8506   -2.1285 C   0  0  0  0  0  0  0  0  0  0  0  0
   -3.5631   -0.6202   -0.5206 H   0  0  0  0  0  0  0  0  0  0  0  0
   -2.0301   -2.9174   -0.5360 H   0  0  0  0  0  0  0  0  0  0  0  0
   -0.8921   -0.8236   -2.4833 H   0  0  0  0  0  0  0  0  0  0  0  0
   -0.0457   -2.2777   -1.9410 H   0  0  0  0  0  0  0  0  0  0  0  0
   -1.5052   -2.4193   -2.9387 H   0  0  0  0  0  0  0  0  0  0  0  0
   -0.2267   -1.7335    0.8672 N   0  0  0  0  0  0  0  0  0  0  0  0
    0.5363   -1.1590    1.9465 C   0  0  2  0  0  0  0  0  0  0  0  0
    0.0733   -1.8325    3.2333 C   0  0  0  0  0  0  0  0  0  0  0  0
    0.7952   -1.9607    4.2200 O   0  0  0  0  0  0  0  0  0  0  0  0
    0.3458    0.3535    2.0341 C   0  0  0  0  0  0  0  0  0  0  0  0
    0.9487    1.1839    0.8939 C   0  0  0  0  0  0  0  0  0  0  0  0
    1.9691    0.6614    0.3585 O   0  5  0  0  0  0  0  0  0  0  0  0
    0.3784    2.2769    0.6278 O   0  0  0  0  0  0  0  0  0  0  0  0
   -0.0113   -2.6869    0.5854 H   0  0  0  0  0  0  0  0  0  0  0  0
    1.5856   -1.4161    1.7626 H   0  0  0  0  0  0  0  0  0  0  0  0
    0.7648    0.7243    2.9796 H   0  0  0  0  0  0  0  0  0  0  0  0
   -0.7261    0.5902    2.0559 H   0  0  0  0  0  0  0  0  0  0  0  0
   -1.2560   -2.2259    3.1671 N   0  0  0  0  0  0  0  0  0  0  0  0
   -1.9399   -2.8594    4.2704 C   0  0  2  0  0  0  0  0  0  0  0  0
   -2.9879   -3.8027    3.6949 C   0  0  0  0  0  0  0  0  0  0  0  0
   -3.4525   -3.6792    2.5635 O   0  0  0  0  0  0  0  0  0  0  0  0
   -2.5806   -1.8303    5.1886 C   0  0  0  0  0  0  0  0  0  0  0  0
   -1.7916   -2.0362    2.3251 H   0  0  0  0  0  0  0  0  0  0  0  0
   -1.1882   -3.4382    4.8181 H   0  0  0  0  0  0  0  0  0  0  0  0
   -3.3366   -1.2406    4.6574 H   0  0  0  0  0  0  0  0  0  0  0  0
   -3.0743   -2.3107    6.0398 H   0  0  0  0  0  0  0  0  0  0  0  0
   -1.8297   -1.1344    5.5781 H   0  0  0  0  0  0  0  0  0  0  0  0
   -3.3750   -4.7729    4.6087 N   0  0  0  0  0  0  0  0  0  0  0  0
   -4.3665   -5.7784    4.3053 C   0  0  0  0  0  0  0  0  0  0  0  0
   -2.9231   -4.8119    5.5176 H   0  0  0  0  0  0  0  0  0  0  0  0
   -5.3582   -5.4234    4.6221 H   0  0  0  0  0  0  0  0  0  0  0  0
   -4.3745   -5.9702    3.2222 H   0  0  0  0  0  0  0  0  0  0  0  0
   -4.1216   -6.7078    4.8405 H   0  0  0  0  0  0  0  0  0  0  0  0
  1  3  1  0  0  0  0
  1  7  1  0  0  0  0
  1  2  2  0  0  0  0
 30 31  1  0  0  0  0
 31 39  1  0  0  0  0
 31 32  2  0  0  0  0
  8  9  1  0  0  0  0
  9 17  1  0  0  0  0
  9 10  2  0  0  0  0
 18 19  1  0  0  0  0
 19 29  1  0  0  0  0
 19 20  2  0  0  0  0
 21 22  1  0  0  0  0
 22 23  1  0  0  0  0
 22 24  2  0  0  0  0
 30 33  1  0  0  0  0
  8 11  1  0  0  0  0
 39 40  1  0  0  0  0
 18 21  1  0  0  0  0
 29 30  1  0  0  0  0
  7  8  1  0  0  0  0
 17 18  1  0  0  0  0
  3  4  1  0  0  0  0
  3  5  1  0  0  0  0
  3  6  1  0  0  0  0
 33 36  1  0  0  0  0
 33 37  1  0  0  0  0
 33 38  1  0  0  0  0
 11 14  1  0  0  0  0
 11 15  1  0  0  0  0
 11 16  1  0  0  0  0
 40 42  1  0  0  0  0
 40 43  1  0  0  0  0
 40 44  1  0  0  0  0
 21 27  1  0  0  0  0
 21 28  1  0  0  0  0
 30 35  1  0  0  0  0
  8 13  1  0  0  0  0
 18 26  1  0  0  0  0
 39 41  1  0  0  0  0
  7 12  1  0  0  0  0
 29 34  1  0  0  0  0
 17 25  1  0  0  0  0
M  CHG  1  23  -1
M  END
$$$$

  -OEChem-05262214473D

 44 43  0     1  0  0  0  0  0999 V2000
   -4.0256   -1.8030   -2.1581 C   0  0  0  0  0  0  0  0  0  0  0  0
   -3.7513   -2.6782   -2.9709 O   0  0  0  0  0  0  0  0  0  0  0  0
   -5.3491   -1.1169   -2.2339 C   0  0  0  0  0  0  0  0  0  0  0  0
   -5.3223   -0.2211   -2.8750 H   0  0  0  0  0  0  0  0  0  0  0  0
   -6.1322   -1.7605   -2.6658 H   0  0  0  0  0  0  0  0  0  0  0  0
   -5.7568   -0.7715   -1.2704 H   0  0  0  0  0  0  0  0  0  0  0  0
   -3.2124   -1.3578   -1.1289 N   0  0  0  0  0  0  0  0  0  0  0  0
   -1.8971   -1.8843   -0.8752 C   0  0  2  0  0  0  0  0  0  0  0  0
   -1.2676   -1.0599    0.2399 C   0  0  0  0  0  0  0  0  0  0  0  0
   -1.6270    0.0833    0.5138 O   0  0  0  0  0  0  0  0  0  0  0  0
   -1.0364   -1.8506   -2.1285 C   0  0  0  0  0  0  0  0  0  0  0  0
   -3.5631   -0.6202   -0.5206 H   0  0  0  0  0  0  0  0  0  0  0  0
   -2.0301   -2.9174   -0.5360 H   0  0  0  0  0  0  0  0  0  0  0  0
   -0.8921   -0.8236   -2.4833 H   0  0  0  0  0  0  0  0  0  0  0  0
   -0.0457   -2.2777   -1.9410 H   0  0  0  0  0  0  0  0  0  0  0  0
   -1.5052   -2.4193   -2.9387 H   0  0  0  0  0  0  0  0  0  0  0  0
   -0.2267   -1.7335    0.8672 N   0  0  0  0  0  0  0  0  0  0  0  0
    0.5363   -1.1590    1.9465 C   0  0  2  0  0  0  0  0  0  0  0  0
    0.0733   -1.8325    3.2333 C   0  0  0  0  0  0  0  0  0  0  0  0
    0.6789   -1.7312    4.2983 O   0  0  0  0  0  0  0  0  0  0  0  0
    0.3458    0.3535    2.0341 C   0  0  0  0  0  0  0  0  0  0  0  0
    0.9487    1.1839    0.8939 C   0  0  0  0  0  0  0  0  0  0  0  0
    1.9691    0.6614    0.3585 O   0  5  0  0  0  0  0  0  0  0  0  0
    0.3784    2.2769    0.6278 O   0  0  0  0  0  0  0  0  0  0  0  0
   -0.0113   -2.6869    0.5854 H   0  0  0  0  0  0  0  0  0  0  0  0
    1.5856   -1.4161    1.7626 H   0  0  0  0  0  0  0  0  0  0  0  0
    0.7648    0.7243    2.9796 H   0  0  0  0  0  0  0  0  0  0  0  0
   -0.7261    0.5902    2.0559 H   0  0  0  0  0  0  0  0  0  0  0  0
   -1.1226   -2.5160    3.0633 N   0  0  0  0  0  0  0  0  0  0  0  0
   -1.7856   -3.2120    4.1414 C   0  0  2  0  0  0  0  0  0  0  0  0
   -2.5286   -4.4011    3.5469 C   0  0  0  0  0  0  0  0  0  0  0  0
   -2.8660   -4.4592    2.3663 O   0  0  0  0  0  0  0  0  0  0  0  0
   -2.7397   -2.2935    4.8890 C   0  0  0  0  0  0  0  0  0  0  0  0
   -1.5785   -2.5064    2.1557 H   0  0  0  0  0  0  0  0  0  0  0  0
   -1.0007   -3.5711    4.8160 H   0  0  0  0  0  0  0  0  0  0  0  0
   -3.5330   -1.9236    4.2293 H   0  0  0  0  0  0  0  0  0  0  0  0
   -3.2200   -2.8147    5.7236 H   0  0  0  0  0  0  0  0  0  0  0  0
   -2.2088   -1.4235    5.2905 H   0  0  0  0  0  0  0  0  0  0  0  0
   -2.8086   -5.3708    4.4995 N   0  0  0  0  0  0  0  0  0  0  0  0
   -3.5170   -6.5898    4.1863 C   0  0  0  0  0  0  0  0  0  0  0  0
   -2.4743   -5.2480    5.4508 H   0  0  0  0  0  0  0  0  0  0  0  0
   -4.5930   -6.4449    4.3628 H   0  0  0  0  0  0  0  0  0  0  0  0
   -3.3505   -6.8495    3.1304 H   0  0  0  0  0  0  0  0  0  0  0  0
   -3.1468   -7.4039    4.8268 H   0  0  0  0  0  0  0  0  0  0  0  0
  1  3  1  0  0  0  0
  1  7  1  0  0  0  0
  1  2  2  0  0  0  0
 30 31  1  0  0  0  0
 31 39  1  0  0  0  0
 31 32  2  0  0  0  0
  8  9  1  0  0  0  0
  9 17  1  0  0  0  0
  9 10  2  0  0  0  0
 18 19  1  0  0  0  0
 19 29  1  0  0  0  0
 19 20  2  0  0  0  0
 21 22  1  0  0  0  0
 22 23  1  0  0  0  0
 22 24  2  0  0  0  0
 30 33  1  0  0  0  0
  8 11  1  0  0  0  0
 39 40  1  0  0  0  0
 18 21  1  0  0  0  0
 29 30  1  0  0  0  0
  7  8  1  0  0  0  0
 17 18  1  0  0  0  0
  3  4  1  0  0  0  0
  3  5  1  0  0  0  0
  3  6  1  0  0  0  0
 33 36  1  0  0  0  0
 33 37  1  0  0  0  0
 33 38  1  0  0  0  0
 11 14  1  0  0  0  0
 11 15  1  0  0  0  0
 11 16  1  0  0  0  0
 40 42  1  0  0  0  0
 40 43  1  0  0  0  0
 40 44  1  0  0  0  0
 21 27  1  0  0  0  0
 21 28  1  0  0  0  0
 30 35  1  0  0  0  0
  8 13  1  0  0  0  0
 18 26  1  0  0  0  0
 39 41  1  0  0  0  0
  7 12  1  0  0  0  0
 29 34  1  0  0  0  0
 17 25  1  0  0  0  0
M  CHG  1  23  -1
M  END
$$$$

  -OEChem-05262214473D

 44 43  0     1  0  0  0  0  0999 V2000
   -4.0256   -1.8030   -2.1581 C   0  0  0  0  0  0  0  0  0  0  0  0
   -3.7513   -2.6782   -2.9709 O   0  0  0  0  0  0  0  0  0  0  0  0
   -5.3491   -1.1169   -2.2339 C   0  0  0  0  0  0  0  0  0  0  0  0
   -5.3223   -0.2211   -2.8750 H   0  0  0  0  0  0  0  0  0  0  0  0
   -6.1322   -1.7605   -2.6658 H   0  0  0  0  0  0  0  0  0  0  0  0
   -5.7568   -0.7715   -1.2704 H   0  0  0  0  0  0  0  0  0  0  0  0
   -3.2124   -1.3578   -1.1289 N   0  0  0  0  0  0  0  0  0  0  0  0
   -1.8971   -1.8843   -0.8752 C   0  0  2  0  0  0  0  0  0  0  0  0
   -1.2676   -1.0599    0.2399 C   0  0  0  0  0  0  0  0  0  0  0  0
   -1.6270    0.0833    0.5138 O   0  0  0  0  0  0  0  0  0  0  0  0
   -1.0364   -1.8506   -2.1285 C   0  0  0  0  0  0  0  0  0  0  0  0
   -3.5631   -0.6202   -0.5206 H   0  0  0  0  0  0  0  0  0  0  0  0
   -2.0301   -2.9174   -0.5360 H   0  0  0  0  0  0  0  0  0  0  0  0
   -0.8921   -0.8236   -2.4833 H   0  0  0  0  0  0  0  0  0  0  0  0
   -0.0457   -2.2777   -1.9410 H   0  0  0  0  0  0  0  0  0  0  0  0
   -1.5052   -2.4193   -2.9387 H   0  0  0  0  0  0  0  0  0  0  0  0
   -0.2267   -1.7335    0.8672 N   0  0  0  0  0  0  0  0  0  0  0  0
    0.5363   -1.1590    1.9465 C   0  0  2  0  0  0  0  0  0  0  0  0
    0.0733   -1.8325    3.2333 C   0  0  0  0  0  0  0  0  0  0  0  0
    0.5074   -1.5287    4.3426 O   0  0  0  0  0  0  0  0  0  0  0  0
    0.3458    0.3535    2.0341 C   0  0  0  0  0  0  0  0  0  0  0  0
    0.9487    1.1839    0.8939 C   0  0  0  0  0  0  0  0  0  0  0  0
    1.9691    0.6614    0.3585 O   0  5  0  0  0  0  0  0  0  0  0  0
    0.3784    2.2769    0.6278 O   0  0  0  0  0  0  0  0  0  0  0  0
   -0.0113   -2.6869    0.5854 H   0  0  0  0  0  0  0  0  0  0  0  0
    1.5856   -1.4161    1.7626 H   0  0  0  0  0  0  0  0  0  0  0  0
    0.7648    0.7243    2.9796 H   0  0  0  0  0  0  0  0  0  0  0  0
   -0.7261    0.5902    2.0559 H   0  0  0  0  0  0  0  0  0  0  0  0
   -0.9184   -2.7752    3.0011 N   0  0  0  0  0  0  0  0  0  0  0  0
   -1.5448   -3.5290    4.0622 C   0  0  2  0  0  0  0  0  0  0  0  0
   -1.9373   -4.8904    3.5036 C   0  0  0  0  0  0  0  0  0  0  0  0
   -2.1065   -5.0999    2.3042 O   0  0  0  0  0  0  0  0  0  0  0  0
   -2.7578   -2.7992    4.6178 C   0  0  0  0  0  0  0  0  0  0  0  0
   -1.2507   -2.9274    2.0533 H   0  0  0  0  0  0  0  0  0  0  0  0
   -0.7904   -3.6587    4.8458 H   0  0  0  0  0  0  0  0  0  0  0  0
   -3.5246   -2.6599    3.8470 H   0  0  0  0  0  0  0  0  0  0  0  0
   -3.2146   -3.3583    5.4411 H   0  0  0  0  0  0  0  0  0  0  0  0
   -2.4788   -1.8082    4.9920 H   0  0  0  0  0  0  0  0  0  0  0  0
   -2.1184   -5.8332    4.5059 N   0  0  0  0  0  0  0  0  0  0  0  0
   -2.5056   -7.1974    4.2322 C   0  0  0  0  0  0  0  0  0  0  0  0
   -1.9378   -5.5765    5.4719 H   0  0  0  0  0  0  0  0  0  0  0  0
   -3.6011   -7.2849    4.2801 H   0  0  0  0  0  0  0  0  0  0  0  0
   -2.1587   -7.4824    3.2279 H   0  0  0  0  0  0  0  0  0  0  0  0
   -2.0516   -7.8643    4.9799 H   0  0  0  0  0  0  0  0  0  0  0  0
  1  3  1  0  0  0  0
  1  7  1  0  0  0  0
  1  2  2  0  0  0  0
 30 31  1  0  0  0  0
 31 39  1  0  0  0  0
 31 32  2  0  0  0  0
  8  9  1  0  0  0  0
  9 17  1  0  0  0  0
  9 10  2  0  0  0  0
 18 19  1  0  0  0  0
 19 29  1  0  0  0  0
 19 20  2  0  0  0  0
 21 22  1  0  0  0  0
 22 23  1  0  0  0  0
 22 24  2  0  0  0  0
 30 33  1  0  0  0  0
  8 11  1  0  0  0  0
 39 40  1  0  0  0  0
 18 21  1  0  0  0  0
 29 30  1  0  0  0  0
  7  8  1  0  0  0  0
 17 18  1  0  0  0  0
  3  4  1  0  0  0  0
  3  5  1  0  0  0  0
  3  6  1  0  0  0  0
 33 36  1  0  0  0  0
 33 37  1  0  0  0  0
 33 38  1  0  0  0  0
 11 14  1  0  0  0  0
 11 15  1  0  0  0  0
 11 16  1  0  0  0  0
 40 42  1  0  0  0  0
 40 43  1  0  0  0  0
 40 44  1  0  0  0  0
 21 27  1  0  0  0  0
 21 28  1  0  0  0  0
 30 35  1  0  0  0  0
  8 13  1  0  0  0  0
 18 26  1  0  0  0  0
 39 41  1  0  0  0  0
  7 12  1  0  0  0  0
 29 34  1  0  0  0  0
 17 25  1  0  0  0  0
M  CHG  1  23  -1
M  END
$$$$

  -OEChem-05262214473D

 44 43  0     1  0  0  0  0  0999 V2000
   -4.0256   -1.8030   -2.1581 C   0  0  0  0  0  0  0  0  0  0  0  0
   -3.7513   -2.6782   -2.9709 O   0  0  0  0  0  0  0  0  0  0  0  0
   -5.3491   -1.1169   -2.2339 C   0  0  0  0  0  0  0  0  0  0  0  0
   -5.3223   -0.2211   -2.8750 H   0  0  0  0  0  0  0  0  0  0  0  0
   -6.1322   -1.7605   -2.6658 H   0  0  0  0  0  0  0  0  0  0  0  0
   -5.7568   -0.7715   -1.2704 H   0  0  0  0  0  0  0  0  0  0  0  0
   -3.2124   -1.3578   -1.1289 N   0  0  0  0  0  0  0  0  0  0  0  0
   -1.8971   -1.8843   -0.8752 C   0  0  2  0  0  0  0  0  0  0  0  0
   -1.2676   -1.0599    0.2399 C   0  0  0  0  0  0  0  0  0  0  0  0
   -1.6270    0.0833    0.5138 O   0  0  0  0  0  0  0  0  0  0  0  0
   -1.0364   -1.8506   -2.1285 C   0  0  0  0  0  0  0  0  0  0  0  0
   -3.5631   -0.6202   -0.5206 H   0  0  0  0  0  0  0  0  0  0  0  0
   -2.0301   -2.9174   -0.5360 H   0  0  0  0  0  0  0  0  0  0  0  0
   -0.8921   -0.8236   -2.4833 H   0  0  0  0  0  0  0  0  0  0  0  0
   -0.0457   -2.2777   -1.9410 H   0  0  0  0  0  0  0  0  0  0  0  0
   -1.5052   -2.4193   -2.9387 H   0  0  0  0  0  0  0  0  0  0  0  0
   -0.2267   -1.7335    0.8672 N   0  0  0  0  0  0  0  0  0  0  0  0
    0.5363   -1.1590    1.9465 C   0  0  2  0  0  0  0  0  0  0  0  0
    0.0733   -1.8325    3.2333 C   0  0  0  0  0  0  0  0  0  0  0  0
    0.2924   -1.3671    4.3498 O   0  0  0  0  0  0  0  0  0  0  0  0
    0.3458    0.3535    2.0341 C   0  0  0  0  0  0  0  0  0  0  0  0
    0.9487    1.1839    0.8939 C   0  0  0  0  0  0  0  0  0  0  0  0
    1.9691    0.6614    0.3585 O   0  5  0  0  0  0  0  0  0  0  0  0
    0.3784    2.2769    0.6278 O   0  0  0  0  0  0  0  0  0  0  0  0
   -0.0113   -2.6869    0.5854 H   0  0  0  0  0  0  0  0  0  0  0  0
    1.5856   -1.4161    1.7626 H   0  0  0  0  0  0  0  0  0  0  0  0
    0.7648    0.7243    2.9796 H   0  0  0  0  0  0  0  0  0  0  0  0
   -0.7261    0.5902    2.0559 H   0  0  0  0  0  0  0  0  0  0  0  0
   -0.6575   -2.9859    2.9847 N   0  0  0  0  0  0  0  0  0  0  0  0
   -1.2339   -3.7887    4.0381 C   0  0  2  0  0  0  0  0  0  0  0  0
   -1.2542   -5.2372    3.5678 C   0  0  0  0  0  0  0  0  0  0  0  0
   -1.2258   -5.5577    2.3815 O   0  0  0  0  0  0  0  0  0  0  0  0
   -2.6339   -3.3129    4.3935 C   0  0  0  0  0  0  0  0  0  0  0  0
   -0.8303   -3.2704    2.0250 H   0  0  0  0  0  0  0  0  0  0  0  0
   -0.5715   -3.6951    4.9056 H   0  0  0  0  0  0  0  0  0  0  0  0
   -3.3119   -3.3993    3.5365 H   0  0  0  0  0  0  0  0  0  0  0  0
   -3.0582   -3.9043    5.2115 H   0  0  0  0  0  0  0  0  0  0  0  0
   -2.6216   -2.2623    4.7030 H   0  0  0  0  0  0  0  0  0  0  0  0
   -1.3515   -6.1285    4.6272 N   0  0  0  0  0  0  0  0  0  0  0  0
   -1.4012   -7.5597    4.4399 C   0  0  0  0  0  0  0  0  0  0  0  0
   -1.3502   -5.7749    5.5794 H   0  0  0  0  0  0  0  0  0  0  0  0
   -2.4499   -7.8859    4.3796 H   0  0  0  0  0  0  0  0  0  0  0  0
   -0.8805   -7.8257    3.5082 H   0  0  0  0  0  0  0  0  0  0  0  0
   -0.9106   -8.0578    5.2891 H   0  0  0  0  0  0  0  0  0  0  0  0
  1  3  1  0  0  0  0
  1  7  1  0  0  0  0
  1  2  2  0  0  0  0
 30 31  1  0  0  0  0
 31 39  1  0  0  0  0
 31 32  2  0  0  0  0
  8  9  1  0  0  0  0
  9 17  1  0  0  0  0
  9 10  2  0  0  0  0
 18 19  1  0  0  0  0
 19 29  1  0  0  0  0
 19 20  2  0  0  0  0
 21 22  1  0  0  0  0
 22 23  1  0  0  0  0
 22 24  2  0  0  0  0
 30 33  1  0  0  0  0
  8 11  1  0  0  0  0
 39 40  1  0  0  0  0
 18 21  1  0  0  0  0
 29 30  1  0  0  0  0
  7  8  1  0  0  0  0
 17 18  1  0  0  0  0
  3  4  1  0  0  0  0
  3  5  1  0  0  0  0
  3  6  1  0  0  0  0
 33 36  1  0  0  0  0
 33 37  1  0  0  0  0
 33 38  1  0  0  0  0
 11 14  1  0  0  0  0
 11 15  1  0  0  0  0
 11 16  1  0  0  0  0
 40 42  1  0  0  0  0
 40 43  1  0  0  0  0
 40 44  1  0  0  0  0
 21 27  1  0  0  0  0
 21 28  1  0  0  0  0
 30 35  1  0  0  0  0
  8 13  1  0  0  0  0
 18 26  1  0  0  0  0
 39 41  1  0  0  0  0
  7 12  1  0  0  0  0
 29 34  1  0  0  0  0
 17 25  1  0  0  0  0
M  CHG  1  23  -1
M  END
$$$$

  -OEChem-05262214473D

 44 43  0     1  0  0  0  0  0999 V2000
   -4.0256   -1.8030   -2.1581 C   0  0  0  0  0  0  0  0  0  0  0  0
   -3.7513   -2.6782   -2.9709 O   0  0  0  0  0  0  0  0  0  0  0  0
   -5.3491   -1.1169   -2.2339 C   0  0  0  0  0  0  0  0  0  0  0  0
   -5.3223   -0.2211   -2.8750 H   0  0  0  0  0  0  0  0  0  0  0  0
   -6.1322   -1.7605   -2.6658 H   0  0  0  0  0  0  0  0  0  0  0  0
   -5.7568   -0.7715   -1.2704 H   0  0  0  0  0  0  0  0  0  0  0  0
   -3.2124   -1.3578   -1.1289 N   0  0  0  0  0  0  0  0  0  0  0  0
   -1.8971   -1.8843   -0.8752 C   0  0  2  0  0  0  0  0  0  0  0  0
   -1.2676   -1.0599    0.2399 C   0  0  0  0  0  0  0  0  0  0  0  0
   -1.6270    0.0833    0.5138 O   0  0  0  0  0  0  0  0  0  0  0  0
   -1.0364   -1.8506   -2.1285 C   0  0  0  0  0  0  0  0  0  0  0  0
   -3.5631   -0.6202   -0.5206 H   0  0  0  0  0  0  0  0  0  0  0  0
   -2.0301   -2.9174   -0.5360 H   0  0  0  0  0  0  0  0  0  0  0  0
   -0.8921   -0.8236   -2.4833 H   0  0  0  0  0  0  0  0  0  0  0  0
   -0.0457   -2.2777   -1.9410 H   0  0  0  0  0  0  0  0  0  0  0  0
   -1.5052   -2.4193   -2.9387 H   0  0  0  0  0  0  0  0  0  0  0  0
   -0.2267   -1.7335    0.8672 N   0  0  0  0  0  0  0  0  0  0  0  0
    0.5363   -1.1590    1.9465 C   0  0  2  0  0  0  0  0  0  0  0  0
    0.0733   -1.8325    3.2333 C   0  0  0  0  0  0  0  0  0  0  0  0
    0.0487   -1.2574    4.3195 O   0  0  0  0  0  0  0  0  0  0  0  0
    0.3458    0.3535    2.0341 C   0  0  0  0  0  0  0  0  0  0  0  0
    0.9487    1.1839    0.8939 C   0  0  0  0  0  0  0  0  0  0  0  0
    1.9691    0.6614    0.3585 O   0  5  0  0  0  0  0  0  0  0  0  0
    0.3784    2.2769    0.6278 O   0  0  0  0  0  0  0  0  0  0  0  0
   -0.0113   -2.6869    0.5854 H   0  0  0  0  0  0  0  0  0  0  0  0
    1.5856   -1.4161    1.7626 H   0  0  0  0  0  0  0  0  0  0  0  0
    0.7648    0.7243    2.9796 H   0  0  0  0  0  0  0  0  0  0  0  0
   -0.7261    0.5902    2.0559 H   0  0  0  0  0  0  0  0  0  0  0  0
   -0.3576   -3.1336    3.0153 N   0  0  0  0  0  0  0  0  0  0  0  0
   -0.8740   -3.9736    4.0708 C   0  0  2  0  0  0  0  0  0  0  0  0
   -0.5261   -5.4179    3.7352 C   0  0  0  0  0  0  0  0  0  0  0  0
   -0.2839   -5.8015    2.5928 O   0  0  0  0  0  0  0  0  0  0  0  0
   -2.3763   -3.7997    4.2314 C   0  0  0  0  0  0  0  0  0  0  0  0
   -0.3460   -3.5122    2.0727 H   0  0  0  0  0  0  0  0  0  0  0  0
   -0.3590   -3.6776    4.9912 H   0  0  0  0  0  0  0  0  0  0  0  0
   -2.9093   -4.0914    3.3191 H   0  0  0  0  0  0  0  0  0  0  0  0
   -2.7616   -4.4157    5.0506 H   0  0  0  0  0  0  0  0  0  0  0  0
   -2.6272   -2.7547    4.4432 H   0  0  0  0  0  0  0  0  0  0  0  0
   -0.5600   -6.2366    4.8554 N   0  0  0  0  0  0  0  0  0  0  0  0
   -0.2790   -7.6520    4.7953 C   0  0  0  0  0  0  0  0  0  0  0  0
   -0.7516   -5.8297    5.7661 H   0  0  0  0  0  0  0  0  0  0  0  0
   -1.2181   -8.2072    4.6547 H   0  0  0  0  0  0  0  0  0  0  0  0
    0.3972   -7.8560    3.9520 H   0  0  0  0  0  0  0  0  0  0  0  0
    0.1985   -7.9711    5.7335 H   0  0  0  0  0  0  0  0  0  0  0  0
  1  3  1  0  0  0  0
  1  7  1  0  0  0  0
  1  2  2  0  0  0  0
 30 31  1  0  0  0  0
 31 39  1  0  0  0  0
 31 32  2  0  0  0  0
  8  9  1  0  0  0  0
  9 17  1  0  0  0  0
  9 10  2  0  0  0  0
 18 19  1  0  0  0  0
 19 29  1  0  0  0  0
 19 20  2  0  0  0  0
 21 22  1  0  0  0  0
 22 23  1  0  0  0  0
 22 24  2  0  0  0  0
 30 33  1  0  0  0  0
  8 11  1  0  0  0  0
 39 40  1  0  0  0  0
 18 21  1  0  0  0  0
 29 30  1  0  0  0  0
  7  8  1  0  0  0  0
 17 18  1  0  0  0  0
  3  4  1  0  0  0  0
  3  5  1  0  0  0  0
  3  6  1  0  0  0  0
 33 36  1  0  0  0  0
 33 37  1  0  0  0  0
 33 38  1  0  0  0  0
 11 14  1  0  0  0  0
 11 15  1  0  0  0  0
 11 16  1  0  0  0  0
 40 42  1  0  0  0  0
 40 43  1  0  0  0  0
 40 44  1  0  0  0  0
 21 27  1  0  0  0  0
 21 28  1  0  0  0  0
 30 35  1  0  0  0  0
  8 13  1  0  0  0  0
 18 26  1  0  0  0  0
 39 41  1  0  0  0  0
  7 12  1  0  0  0  0
 29 34  1  0  0  0  0
 17 25  1  0  0  0  0
M  CHG  1  23  -1
M  END
$$$$

  -OEChem-05262214473D

 44 43  0     1  0  0  0  0  0999 V2000
   -4.0256   -1.8030   -2.1581 C   0  0  0  0  0  0  0  0  0  0  0  0
   -3.7513   -2.6782   -2.9709 O   0  0  0  0  0  0  0  0  0  0  0  0
   -5.3491   -1.1169   -2.2339 C   0  0  0  0  0  0  0  0  0  0  0  0
   -5.3223   -0.2211   -2.8750 H   0  0  0  0  0  0  0  0  0  0  0  0
   -6.1322   -1.7605   -2.6658 H   0  0  0  0  0  0  0  0  0  0  0  0
   -5.7568   -0.7715   -1.2704 H   0  0  0  0  0  0  0  0  0  0  0  0
   -3.2124   -1.3578   -1.1289 N   0  0  0  0  0  0  0  0  0  0  0  0
   -1.8971   -1.8843   -0.8752 C   0  0  2  0  0  0  0  0  0  0  0  0
   -1.2676   -1.0599    0.2399 C   0  0  0  0  0  0  0  0  0  0  0  0
   -1.6270    0.0833    0.5138 O   0  0  0  0  0  0  0  0  0  0  0  0
   -1.0364   -1.8506   -2.1285 C   0  0  0  0  0  0  0  0  0  0  0  0
   -3.5631   -0.6202   -0.5206 H   0  0  0  0  0  0  0  0  0  0  0  0
   -2.0301   -2.9174   -0.5360 H   0  0  0  0  0  0  0  0  0  0  0  0
   -0.8921   -0.8236   -2.4833 H   0  0  0  0  0  0  0  0  0  0  0  0
   -0.0457   -2.2777   -1.9410 H   0  0  0  0  0  0  0  0  0  0  0  0
   -1.5052   -2.4193   -2.9387 H   0  0  0  0  0  0  0  0  0  0  0  0
   -0.2267   -1.7335    0.8672 N   0  0  0  0  0  0  0  0  0  0  0  0
    0.5363   -1.1590    1.9465 C   0  0  2  0  0  0  0  0  0  0  0  0
    0.0733   -1.8325    3.2333 C   0  0  0  0  0  0  0  0  0  0  0  0
   -0.2072   -1.2071    4.2538 O   0  0  0  0  0  0  0  0  0  0  0  0
    0.3458    0.3535    2.0341 C   0  0  0  0  0  0  0  0  0  0  0  0
    0.9487    1.1839    0.8939 C   0  0  0  0  0  0  0  0  0  0  0  0
    1.9691    0.6614    0.3585 O   0  5  0  0  0  0  0  0  0  0  0  0
    0.3784    2.2769    0.6278 O   0  0  0  0  0  0  0  0  0  0  0  0
   -0.0113   -2.6869    0.5854 H   0  0  0  0  0  0  0  0  0  0  0  0
    1.5856   -1.4161    1.7626 H   0  0  0  0  0  0  0  0  0  0  0  0
    0.7648    0.7243    2.9796 H   0  0  0  0  0  0  0  0  0  0  0  0
   -0.7261    0.5902    2.0559 H   0  0  0  0  0  0  0  0  0  0  0  0
   -0.0391   -3.2085    3.0907 N   0  0  0  0  0  0  0  0  0  0  0  0
   -0.4898   -4.0710    4.1580 C   0  0  2  0  0  0  0  0  0  0  0  0
    0.1977   -5.4202    3.9944 C   0  0  0  0  0  0  0  0  0  0  0  0
    0.6550   -5.8145    2.9237 O   0  0  0  0  0  0  0  0  0  0  0  0
   -2.0025   -4.2264    4.1426 C   0  0  0  0  0  0  0  0  0  0  0  0
    0.1691   -3.6361    2.1932 H   0  0  0  0  0  0  0  0  0  0  0  0
   -0.1673   -3.6076    5.0968 H   0  0  0  0  0  0  0  0  0  0  0  0
   -2.3444   -4.6891    3.2096 H   0  0  0  0  0  0  0  0  0  0  0  0
   -2.3451   -4.8574    4.9693 H   0  0  0  0  0  0  0  0  0  0  0  0
   -2.4953   -3.2521    4.2304 H   0  0  0  0  0  0  0  0  0  0  0  0
    0.2020   -6.1502    5.1747 N   0  0  0  0  0  0  0  0  0  0  0  0
    0.7845   -7.4681    5.2742 C   0  0  0  0  0  0  0  0  0  0  0  0
   -0.1828   -5.7372    6.0192 H   0  0  0  0  0  0  0  0  0  0  0  0
    0.0105   -8.2268    5.0864 H   0  0  0  0  0  0  0  0  0  0  0  0
    1.5872   -7.5712    4.5291 H   0  0  0  0  0  0  0  0  0  0  0  0
    1.2000   -7.6101    6.2828 H   0  0  0  0  0  0  0  0  0  0  0  0
  1  3  1  0  0  0  0
  1  7  1  0  0  0  0
  1  2  2  0  0  0  0
 30 31  1  0  0  0  0
 31 39  1  0  0  0  0
 31 32  2  0  0  0  0
  8  9  1  0  0  0  0
  9 17  1  0  0  0  0
  9 10  2  0  0  0  0
 18 19  1  0  0  0  0
 19 29  1  0  0  0  0
 19 20  2  0  0  0  0
 21 22  1  0  0  0  0
 22 23  1  0  0  0  0
 22 24  2  0  0  0  0
 30 33  1  0  0  0  0
  8 11  1  0  0  0  0
 39 40  1  0  0  0  0
 18 21  1  0  0  0  0
 29 30  1  0  0  0  0
  7  8  1  0  0  0  0
 17 18  1  0  0  0  0
  3  4  1  0  0  0  0
  3  5  1  0  0  0  0
  3  6  1  0  0  0  0
 33 36  1  0  0  0  0
 33 37  1  0  0  0  0
 33 38  1  0  0  0  0
 11 14  1  0  0  0  0
 11 15  1  0  0  0  0
 11 16  1  0  0  0  0
 40 42  1  0  0  0  0
 40 43  1  0  0  0  0
 40 44  1  0  0  0  0
 21 27  1  0  0  0  0
 21 28  1  0  0  0  0
 30 35  1  0  0  0  0
  8 13  1  0  0  0  0
 18 26  1  0  0  0  0
 39 41  1  0  0  0  0
  7 12  1  0  0  0  0
 29 34  1  0  0  0  0
 17 25  1  0  0  0  0
M  CHG  1  23  -1
M  END
$$$$

  -OEChem-05262214473D

 44 43  0     1  0  0  0  0  0999 V2000
   -4.0256   -1.8030   -2.1581 C   0  0  0  0  0  0  0  0  0  0  0  0
   -3.7513   -2.6782   -2.9709 O   0  0  0  0  0  0  0  0  0  0  0  0
   -5.3491   -1.1169   -2.2339 C   0  0  0  0  0  0  0  0  0  0  0  0
   -5.3223   -0.2211   -2.8750 H   0  0  0  0  0  0  0  0  0  0  0  0
   -6.1322   -1.7605   -2.6658 H   0  0  0  0  0  0  0  0  0  0  0  0
   -5.7568   -0.7715   -1.2704 H   0  0  0  0  0  0  0  0  0  0  0  0
   -3.2124   -1.3578   -1.1289 N   0  0  0  0  0  0  0  0  0  0  0  0
   -1.8971   -1.8843   -0.8752 C   0  0  2  0  0  0  0  0  0  0  0  0
   -1.2676   -1.0599    0.2399 C   0  0  0  0  0  0  0  0  0  0  0  0
   -1.6270    0.0833    0.5138 O   0  0  0  0  0  0  0  0  0  0  0  0
   -1.0364   -1.8506   -2.1285 C   0  0  0  0  0  0  0  0  0  0  0  0
   -3.5631   -0.6202   -0.5206 H   0  0  0  0  0  0  0  0  0  0  0  0
   -2.0301   -2.9174   -0.5360 H   0  0  0  0  0  0  0  0  0  0  0  0
   -0.8921   -0.8236   -2.4833 H   0  0  0  0  0  0  0  0  0  0  0  0
   -0.0457   -2.2777   -1.9410 H   0  0  0  0  0  0  0  0  0  0  0  0
   -1.5052   -2.4193   -2.9387 H   0  0  0  0  0  0  0  0  0  0  0  0
   -0.2267   -1.7335    0.8672 N   0  0  0  0  0  0  0  0  0  0  0  0
    0.5363   -1.1590    1.9465 C   0  0  2  0  0  0  0  0  0  0  0  0
    0.0733   -1.8325    3.2333 C   0  0  0  0  0  0  0  0  0  0  0  0
   -0.4579   -1.2196    4.1571 O   0  0  0  0  0  0  0  0  0  0  0  0
    0.3458    0.3535    2.0341 C   0  0  0  0  0  0  0  0  0  0  0  0
    0.9487    1.1839    0.8939 C   0  0  0  0  0  0  0  0  0  0  0  0
    1.9691    0.6614    0.3585 O   0  5  0  0  0  0  0  0  0  0  0  0
    0.3784    2.2769    0.6278 O   0  0  0  0  0  0  0  0  0  0  0  0
   -0.0113   -2.6869    0.5854 H   0  0  0  0  0  0  0  0  0  0  0  0
    1.5856   -1.4161    1.7626 H   0  0  0  0  0  0  0  0  0  0  0  0
    0.7648    0.7243    2.9796 H   0  0  0  0  0  0  0  0  0  0  0  0
   -0.7261    0.5902    2.0559 H   0  0  0  0  0  0  0  0  0  0  0  0
    0.2762   -3.2052    3.2059 N   0  0  0  0  0  0  0  0  0  0  0  0
   -0.1073   -4.0743    4.2939 C   0  0  2  0  0  0  0  0  0  0  0  0
    0.8676   -5.2439    4.3277 C   0  0  0  0  0  0  0  0  0  0  0  0
    1.5269   -5.5960    3.3518 O   0  0  0  0  0  0  0  0  0  0  0  0
   -1.5381   -4.5638    4.1330 C   0  0  0  0  0  0  0  0  0  0  0  0
    0.6800   -3.6338    2.3782 H   0  0  0  0  0  0  0  0  0  0  0  0
   -0.0095   -3.4898    5.2152 H   0  0  0  0  0  0  0  0  0  0  0  0
   -1.6557   -5.1516    3.2153 H   0  0  0  0  0  0  0  0  0  0  0  0
   -1.8369   -5.1995    4.9731 H   0  0  0  0  0  0  0  0  0  0  0  0
   -2.2349   -3.7204    4.0790 H   0  0  0  0  0  0  0  0  0  0  0  0
    0.8827   -5.8752    5.5636 N   0  0  0  0  0  0  0  0  0  0  0  0
    1.7169   -7.0204    5.8439 C   0  0  0  0  0  0  0  0  0  0  0  0
    0.3175   -5.5037    6.3214 H   0  0  0  0  0  0  0  0  0  0  0  0
    1.1522   -7.9433    5.6455 H   0  0  0  0  0  0  0  0  0  0  0  0
    2.6085   -6.9908    5.2003 H   0  0  0  0  0  0  0  0  0  0  0  0
    2.0257   -6.9994    6.8994 H   0  0  0  0  0  0  0  0  0  0  0  0
  1  3  1  0  0  0  0
  1  7  1  0  0  0  0
  1  2  2  0  0  0  0
 30 31  1  0  0  0  0
 31 39  1  0  0  0  0
 31 32  2  0  0  0  0
  8  9  1  0  0  0  0
  9 17  1  0  0  0  0
  9 10  2  0  0  0  0
 18 19  1  0  0  0  0
 19 29  1  0  0  0  0
 19 20  2  0  0  0  0
 21 22  1  0  0  0  0
 22 23  1  0  0  0  0
 22 24  2  0  0  0  0
 30 33  1  0  0  0  0
  8 11  1  0  0  0  0
 39 40  1  0  0  0  0
 18 21  1  0  0  0  0
 29 30  1  0  0  0  0
  7  8  1  0  0  0  0
 17 18  1  0  0  0  0
  3  4  1  0  0  0  0
  3  5  1  0  0  0  0
  3  6  1  0  0  0  0
 33 36  1  0  0  0  0
 33 37  1  0  0  0  0
 33 38  1  0  0  0  0
 11 14  1  0  0  0  0
 11 15  1  0  0  0  0
 11 16  1  0  0  0  0
 40 42  1  0  0  0  0
 40 43  1  0  0  0  0
 40 44  1  0  0  0  0
 21 27  1  0  0  0  0
 21 28  1  0  0  0  0
 30 35  1  0  0  0  0
  8 13  1  0  0  0  0
 18 26  1  0  0  0  0
 39 41  1  0  0  0  0
  7 12  1  0  0  0  0
 29 34  1  0  0  0  0
 17 25  1  0  0  0  0
M  CHG  1  23  -1
M  END
$$$$

  -OEChem-05262214473D

 44 43  0     1  0  0  0  0  0999 V2000
   -4.0256   -1.8030   -2.1581 C   0  0  0  0  0  0  0  0  0  0  0  0
   -3.7513   -2.6782   -2.9709 O   0  0  0  0  0  0  0  0  0  0  0  0
   -5.3491   -1.1169   -2.2339 C   0  0  0  0  0  0  0  0  0  0  0  0
   -5.3223   -0.2211   -2.8750 H   0  0  0  0  0  0  0  0  0  0  0  0
   -6.1322   -1.7605   -2.6658 H   0  0  0  0  0  0  0  0  0  0  0  0
   -5.7568   -0.7715   -1.2704 H   0  0  0  0  0  0  0  0  0  0  0  0
   -3.2124   -1.3578   -1.1289 N   0  0  0  0  0  0  0  0  0  0  0  0
   -1.8971   -1.8843   -0.8752 C   0  0  2  0  0  0  0  0  0  0  0  0
   -1.2676   -1.0599    0.2399 C   0  0  0  0  0  0  0  0  0  0  0  0
   -1.6270    0.0833    0.5138 O   0  0  0  0  0  0  0  0  0  0  0  0
   -1.0364   -1.8506   -2.1285 C   0  0  0  0  0  0  0  0  0  0  0  0
   -3.5631   -0.6202   -0.5206 H   0  0  0  0  0  0  0  0  0  0  0  0
   -2.0301   -2.9174   -0.5360 H   0  0  0  0  0  0  0  0  0  0  0  0
   -0.8921   -0.8236   -2.4833 H   0  0  0  0  0  0  0  0  0  0  0  0
   -0.0457   -2.2777   -1.9410 H   0  0  0  0  0  0  0  0  0  0  0  0
   -1.5052   -2.4193   -2.9387 H   0  0  0  0  0  0  0  0  0  0  0  0
   -0.2267   -1.7335    0.8672 N   0  0  0  0  0  0  0  0  0  0  0  0
    0.5363   -1.1590    1.9465 C   0  0  2  0  0  0  0  0  0  0  0  0
    0.0733   -1.8325    3.2333 C   0  0  0  0  0  0  0  0  0  0  0  0
   -0.6863   -1.2941    4.0360 O   0  0  0  0  0  0  0  0  0  0  0  0
    0.3458    0.3535    2.0341 C   0  0  0  0  0  0  0  0  0  0  0  0
    0.9487    1.1839    0.8939 C   0  0  0  0  0  0  0  0  0  0  0  0
    1.9691    0.6614    0.3585 O   0  5  0  0  0  0  0  0  0  0  0  0
    0.3784    2.2769    0.6278 O   0  0  0  0  0  0  0  0  0  0  0  0
   -0.0113   -2.6869    0.5854 H   0  0  0  0  0  0  0  0  0  0  0  0
    1.5856   -1.4161    1.7626 H   0  0  0  0  0  0  0  0  0  0  0  0
    0.7648    0.7243    2.9796 H   0  0  0  0  0  0  0  0  0  0  0  0
   -0.7261    0.5902    2.0559 H   0  0  0  0  0  0  0  0  0  0  0  0
    0.5670   -3.1241    3.3529 N   0  0  0  0  0  0  0  0  0  0  0  0
    0.2473   -3.9833    4.4691 C   0  0  2  0  0  0  0  0  0  0  0  0
    1.4380   -4.9011    4.7123 C   0  0  0  0  0  0  0  0  0  0  0  0
    2.2724   -5.1607    3.8478 O   0  0  0  0  0  0  0  0  0  0  0  0
   -1.0148   -4.7891    4.2034 C   0  0  0  0  0  0  0  0  0  0  0  0
    1.1518   -3.5055    2.6151 H   0  0  0  0  0  0  0  0  0  0  0  0
    0.1037   -3.3322    5.3384 H   0  0  0  0  0  0  0  0  0  0  0  0
   -0.8900   -5.4474    3.3359 H   0  0  0  0  0  0  0  0  0  0  0  0
   -1.2717   -5.4186    5.0618 H   0  0  0  0  0  0  0  0  0  0  0  0
   -1.8637   -4.1277    3.9993 H   0  0  0  0  0  0  0  0  0  0  0  0
    1.4356   -5.4302    5.9954 N   0  0  0  0  0  0  0  0  0  0  0  0
    2.4545   -6.3395    6.4656 C   0  0  0  0  0  0  0  0  0  0  0  0
    0.7151   -5.1451    6.6521 H   0  0  0  0  0  0  0  0  0  0  0  0
    2.1291   -7.3762    6.2938 H   0  0  0  0  0  0  0  0  0  0  0  0
    3.3914   -6.1542    5.9198 H   0  0  0  0  0  0  0  0  0  0  0  0
    2.6193   -6.1806    7.5415 H   0  0  0  0  0  0  0  0  0  0  0  0
  1  3  1  0  0  0  0
  1  7  1  0  0  0  0
  1  2  2  0  0  0  0
 30 31  1  0  0  0  0
 31 39  1  0  0  0  0
 31 32  2  0  0  0  0
  8  9  1  0  0  0  0
  9 17  1  0  0  0  0
  9 10  2  0  0  0  0
 18 19  1  0  0  0  0
 19 29  1  0  0  0  0
 19 20  2  0  0  0  0
 21 22  1  0  0  0  0
 22 23  1  0  0  0  0
 22 24  2  0  0  0  0
 30 33  1  0  0  0  0
  8 11  1  0  0  0  0
 39 40  1  0  0  0  0
 18 21  1  0  0  0  0
 29 30  1  0  0  0  0
  7  8  1  0  0  0  0
 17 18  1  0  0  0  0
  3  4  1  0  0  0  0
  3  5  1  0  0  0  0
  3  6  1  0  0  0  0
 33 36  1  0  0  0  0
 33 37  1  0  0  0  0
 33 38  1  0  0  0  0
 11 14  1  0  0  0  0
 11 15  1  0  0  0  0
 11 16  1  0  0  0  0
 40 42  1  0  0  0  0
 40 43  1  0  0  0  0
 40 44  1  0  0  0  0
 21 27  1  0  0  0  0
 21 28  1  0  0  0  0
 30 35  1  0  0  0  0
  8 13  1  0  0  0  0
 18 26  1  0  0  0  0
 39 41  1  0  0  0  0
  7 12  1  0  0  0  0
 29 34  1  0  0  0  0
 17 25  1  0  0  0  0
M  CHG  1  23  -1
M  END
$$$$

  -OEChem-05262214473D

 44 43  0     1  0  0  0  0  0999 V2000
   -4.0256   -1.8030   -2.1581 C   0  0  0  0  0  0  0  0  0  0  0  0
   -3.7513   -2.6782   -2.9709 O   0  0  0  0  0  0  0  0  0  0  0  0
   -5.3491   -1.1169   -2.2339 C   0  0  0  0  0  0  0  0  0  0  0  0
   -5.3223   -0.2211   -2.8750 H   0  0  0  0  0  0  0  0  0  0  0  0
   -6.1322   -1.7605   -2.6658 H   0  0  0  0  0  0  0  0  0  0  0  0
   -5.7568   -0.7715   -1.2704 H   0  0  0  0  0  0  0  0  0  0  0  0
   -3.2124   -1.3578   -1.1289 N   0  0  0  0  0  0  0  0  0  0  0  0
   -1.8971   -1.8843   -0.8752 C   0  0  2  0  0  0  0  0  0  0  0  0
   -1.2676   -1.0599    0.2399 C   0  0  0  0  0  0  0  0  0  0  0  0
   -1.6270    0.0833    0.5138 O   0  0  0  0  0  0  0  0  0  0  0  0
   -1.0364   -1.8506   -2.1285 C   0  0  0  0  0  0  0  0  0  0  0  0
   -3.5631   -0.6202   -0.5206 H   0  0  0  0  0  0  0  0  0  0  0  0
   -2.0301   -2.9174   -0.5360 H   0  0  0  0  0  0  0  0  0  0  0  0
   -0.8921   -0.8236   -2.4833 H   0  0  0  0  0  0  0  0  0  0  0  0
   -0.0457   -2.2777   -1.9410 H   0  0  0  0  0  0  0  0  0  0  0  0
   -1.5052   -2.4193   -2.9387 H   0  0  0  0  0  0  0  0  0  0  0  0
   -0.2267   -1.7335    0.8672 N   0  0  0  0  0  0  0  0  0  0  0  0
    0.5363   -1.1590    1.9465 C   0  0  2  0  0  0  0  0  0  0  0  0
    0.0733   -1.8325    3.2333 C   0  0  0  0  0  0  0  0  0  0  0  0
   -0.8768   -1.4254    3.8987 O   0  0  0  0  0  0  0  0  0  0  0  0
    0.3458    0.3535    2.0341 C   0  0  0  0  0  0  0  0  0  0  0  0
    0.9487    1.1839    0.8939 C   0  0  0  0  0  0  0  0  0  0  0  0
    1.9691    0.6614    0.3585 O   0  5  0  0  0  0  0  0  0  0  0  0
    0.3784    2.2769    0.6278 O   0  0  0  0  0  0  0  0  0  0  0  0
   -0.0113   -2.6869    0.5854 H   0  0  0  0  0  0  0  0  0  0  0  0
    1.5856   -1.4161    1.7626 H   0  0  0  0  0  0  0  0  0  0  0  0
    0.7648    0.7243    2.9796 H   0  0  0  0  0  0  0  0  0  0  0  0
   -0.7261    0.5902    2.0559 H   0  0  0  0  0  0  0  0  0  0  0  0
    0.8133   -2.9707    3.5218 N   0  0  0  0  0  0  0  0  0  0  0  0
    0.5498   -3.8041    4.6718 C   0  0  2  0  0  0  0  0  0  0  0  0
    1.8702   -4.4151    5.1222 C   0  0  0  0  0  0  0  0  0  0  0  0
    2.8407   -4.5385    4.3779 O   0  0  0  0  0  0  0  0  0  0  0  0
   -0.4681   -4.8868    4.3490 C   0  0  0  0  0  0  0  0  0  0  0  0
    1.5524   -3.2598    2.8878 H   0  0  0  0  0  0  0  0  0  0  0  0
    0.1645   -3.1456    5.4579 H   0  0  0  0  0  0  0  0  0  0  0  0
   -0.0996   -5.5564    3.5633 H   0  0  0  0  0  0  0  0  0  0  0  0
   -0.6880   -5.4998    5.2293 H   0  0  0  0  0  0  0  0  0  0  0  0
   -1.4071   -4.4464    3.9968 H   0  0  0  0  0  0  0  0  0  0  0  0
    1.8231   -4.8457    6.4407 N   0  0  0  0  0  0  0  0  0  0  0  0
    2.9471   -5.4718    7.0970 C   0  0  0  0  0  0  0  0  0  0  0  0
    0.9831   -4.6858    6.9889 H   0  0  0  0  0  0  0  0  0  0  0  0
    2.8746   -6.5639    6.9872 H   0  0  0  0  0  0  0  0  0  0  0  0
    3.8825   -5.1186    6.6385 H   0  0  0  0  0  0  0  0  0  0  0  0
    2.9404   -5.2096    8.1652 H   0  0  0  0  0  0  0  0  0  0  0  0
  1  3  1  0  0  0  0
  1  7  1  0  0  0  0
  1  2  2  0  0  0  0
 30 31  1  0  0  0  0
 31 39  1  0  0  0  0
 31 32  2  0  0  0  0
  8  9  1  0  0  0  0
  9 17  1  0  0  0  0
  9 10  2  0  0  0  0
 18 19  1  0  0  0  0
 19 29  1  0  0  0  0
 19 20  2  0  0  0  0
 21 22  1  0  0  0  0
 22 23  1  0  0  0  0
 22 24  2  0  0  0  0
 30 33  1  0  0  0  0
  8 11  1  0  0  0  0
 39 40  1  0  0  0  0
 18 21  1  0  0  0  0
 29 30  1  0  0  0  0
  7  8  1  0  0  0  0
 17 18  1  0  0  0  0
  3  4  1  0  0  0  0
  3  5  1  0  0  0  0
  3  6  1  0  0  0  0
 33 36  1  0  0  0  0
 33 37  1  0  0  0  0
 33 38  1  0  0  0  0
 11 14  1  0  0  0  0
 11 15  1  0  0  0  0
 11 16  1  0  0  0  0
 40 42  1  0  0  0  0
 40 43  1  0  0  0  0
 40 44  1  0  0  0  0
 21 27  1  0  0  0  0
 21 28  1  0  0  0  0
 30 35  1  0  0  0  0
  8 13  1  0  0  0  0
 18 26  1  0  0  0  0
 39 41  1  0  0  0  0
  7 12  1  0  0  0  0
 29 34  1  0  0  0  0
 17 25  1  0  0  0  0
M  CHG  1  23  -1
M  END
$$$$

  -OEChem-05262214473D

 44 43  0     1  0  0  0  0  0999 V2000
   -4.0256   -1.8030   -2.1581 C   0  0  0  0  0  0  0  0  0  0  0  0
   -3.7513   -2.6782   -2.9709 O   0  0  0  0  0  0  0  0  0  0  0  0
   -5.3491   -1.1169   -2.2339 C   0  0  0  0  0  0  0  0  0  0  0  0
   -5.3223   -0.2211   -2.8750 H   0  0  0  0  0  0  0  0  0  0  0  0
   -6.1322   -1.7605   -2.6658 H   0  0  0  0  0  0  0  0  0  0  0  0
   -5.7568   -0.7715   -1.2704 H   0  0  0  0  0  0  0  0  0  0  0  0
   -3.2124   -1.3578   -1.1289 N   0  0  0  0  0  0  0  0  0  0  0  0
   -1.8971   -1.8843   -0.8752 C   0  0  2  0  0  0  0  0  0  0  0  0
   -1.2676   -1.0599    0.2399 C   0  0  0  0  0  0  0  0  0  0  0  0
   -1.6270    0.0833    0.5138 O   0  0  0  0  0  0  0  0  0  0  0  0
   -1.0364   -1.8506   -2.1285 C   0  0  0  0  0  0  0  0  0  0  0  0
   -3.5631   -0.6202   -0.5206 H   0  0  0  0  0  0  0  0  0  0  0  0
   -2.0301   -2.9174   -0.5360 H   0  0  0  0  0  0  0  0  0  0  0  0
   -0.8921   -0.8236   -2.4833 H   0  0  0  0  0  0  0  0  0  0  0  0
   -0.0457   -2.2777   -1.9410 H   0  0  0  0  0  0  0  0  0  0  0  0
   -1.5052   -2.4193   -2.9387 H   0  0  0  0  0  0  0  0  0  0  0  0
   -0.2267   -1.7335    0.8672 N   0  0  0  0  0  0  0  0  0  0  0  0
    0.5363   -1.1590    1.9465 C   0  0  2  0  0  0  0  0  0  0  0  0
    0.0733   -1.8325    3.2333 C   0  0  0  0  0  0  0  0  0  0  0  0
   -1.0164   -1.6046    3.7547 O   0  0  0  0  0  0  0  0  0  0  0  0
    0.3458    0.3535    2.0341 C   0  0  0  0  0  0  0  0  0  0  0  0
    0.9487    1.1839    0.8939 C   0  0  0  0  0  0  0  0  0  0  0  0
    1.9691    0.6614    0.3585 O   0  5  0  0  0  0  0  0  0  0  0  0
    0.3784    2.2769    0.6278 O   0  0  0  0  0  0  0  0  0  0  0  0
   -0.0113   -2.6869    0.5854 H   0  0  0  0  0  0  0  0  0  0  0  0
    1.5856   -1.4161    1.7626 H   0  0  0  0  0  0  0  0  0  0  0  0
    0.7648    0.7243    2.9796 H   0  0  0  0  0  0  0  0  0  0  0  0
   -0.7261    0.5902    2.0559 H   0  0  0  0  0  0  0  0  0  0  0  0
    0.9984   -2.7554    3.7011 N   0  0  0  0  0  0  0  0  0  0  0  0
    0.7798   -3.5489    4.8881 C   0  0  2  0  0  0  0  0  0  0  0  0
    2.1346   -3.8190    5.5293 C   0  0  0  0  0  0  0  0  0  0  0  0
    3.1931   -3.7716    4.9060 O   0  0  0  0  0  0  0  0  0  0  0  0
    0.0647   -4.8503    4.5597 C   0  0  0  0  0  0  0  0  0  0  0  0
    1.8545   -2.9135    3.1777 H   0  0  0  0  0  0  0  0  0  0  0  0
    0.1687   -2.9427    5.5656 H   0  0  0  0  0  0  0  0  0  0  0  0
    0.6618   -5.4711    3.8818 H   0  0  0  0  0  0  0  0  0  0  0  0
   -0.1257   -5.4375    5.4642 H   0  0  0  0  0  0  0  0  0  0  0  0
   -0.8962   -4.6546    4.0717 H   0  0  0  0  0  0  0  0  0  0  0  0
    2.0188   -4.1614    6.8692 N   0  0  0  0  0  0  0  0  0  0  0  0
    3.1611   -4.4764    7.6949 C   0  0  0  0  0  0  0  0  0  0  0  0
    1.1031   -4.1571    7.3087 H   0  0  0  0  0  0  0  0  0  0  0  0
    3.3381   -5.5620    7.6783 H   0  0  0  0  0  0  0  0  0  0  0  0
    4.0485   -3.9544    7.3075 H   0  0  0  0  0  0  0  0  0  0  0  0
    2.9671   -4.1525    8.7281 H   0  0  0  0  0  0  0  0  0  0  0  0
  1  3  1  0  0  0  0
  1  7  1  0  0  0  0
  1  2  2  0  0  0  0
 30 31  1  0  0  0  0
 31 39  1  0  0  0  0
 31 32  2  0  0  0  0
  8  9  1  0  0  0  0
  9 17  1  0  0  0  0
  9 10  2  0  0  0  0
 18 19  1  0  0  0  0
 19 29  1  0  0  0  0
 19 20  2  0  0  0  0
 21 22  1  0  0  0  0
 22 23  1  0  0  0  0
 22 24  2  0  0  0  0
 30 33  1  0  0  0  0
  8 11  1  0  0  0  0
 39 40  1  0  0  0  0
 18 21  1  0  0  0  0
 29 30  1  0  0  0  0
  7  8  1  0  0  0  0
 17 18  1  0  0  0  0
  3  4  1  0  0  0  0
  3  5  1  0  0  0  0
  3  6  1  0  0  0  0
 33 36  1  0  0  0  0
 33 37  1  0  0  0  0
 33 38  1  0  0  0  0
 11 14  1  0  0  0  0
 11 15  1  0  0  0  0
 11 16  1  0  0  0  0
 40 42  1  0  0  0  0
 40 43  1  0  0  0  0
 40 44  1  0  0  0  0
 21 27  1  0  0  0  0
 21 28  1  0  0  0  0
 30 35  1  0  0  0  0
  8 13  1  0  0  0  0
 18 26  1  0  0  0  0
 39 41  1  0  0  0  0
  7 12  1  0  0  0  0
 29 34  1  0  0  0  0
 17 25  1  0  0  0  0
M  CHG  1  23  -1
M  END
$$$$

  -OEChem-05262214473D

 44 43  0     1  0  0  0  0  0999 V2000
   -4.0256   -1.8030   -2.1581 C   0  0  0  0  0  0  0  0  0  0  0  0
   -3.7513   -2.6782   -2.9709 O   0  0  0  0  0  0  0  0  0  0  0  0
   -5.3491   -1.1169   -2.2339 C   0  0  0  0  0  0  0  0  0  0  0  0
   -5.3223   -0.2211   -2.8750 H   0  0  0  0  0  0  0  0  0  0  0  0
   -6.1322   -1.7605   -2.6658 H   0  0  0  0  0  0  0  0  0  0  0  0
   -5.7568   -0.7715   -1.2704 H   0  0  0  0  0  0  0  0  0  0  0  0
   -3.2124   -1.3578   -1.1289 N   0  0  0  0  0  0  0  0  0  0  0  0
   -1.8971   -1.8843   -0.8752 C   0  0  2  0  0  0  0  0  0  0  0  0
   -1.2676   -1.0599    0.2399 C   0  0  0  0  0  0  0  0  0  0  0  0
   -1.6270    0.0833    0.5138 O   0  0  0  0  0  0  0  0  0  0  0  0
   -1.0364   -1.8506   -2.1285 C   0  0  0  0  0  0  0  0  0  0  0  0
   -3.5631   -0.6202   -0.5206 H   0  0  0  0  0  0  0  0  0  0  0  0
   -2.0301   -2.9174   -0.5360 H   0  0  0  0  0  0  0  0  0  0  0  0
   -0.8921   -0.8236   -2.4833 H   0  0  0  0  0  0  0  0  0  0  0  0
   -0.0457   -2.2777   -1.9410 H   0  0  0  0  0  0  0  0  0  0  0  0
   -1.5052   -2.4193   -2.9387 H   0  0  0  0  0  0  0  0  0  0  0  0
   -0.2267   -1.7335    0.8672 N   0  0  0  0  0  0  0  0  0  0  0  0
    0.5363   -1.1590    1.9465 C   0  0  2  0  0  0  0  0  0  0  0  0
    0.0733   -1.8325    3.2333 C   0  0  0  0  0  0  0  0  0  0  0  0
   -1.0956   -1.8196    3.6137 O   0  0  0  0  0  0  0  0  0  0  0  0
    0.3458    0.3535    2.0341 C   0  0  0  0  0  0  0  0  0  0  0  0
    0.9487    1.1839    0.8939 C   0  0  0  0  0  0  0  0  0  0  0  0
    1.9691    0.6614    0.3585 O   0  5  0  0  0  0  0  0  0  0  0  0
    0.3784    2.2769    0.6278 O   0  0  0  0  0  0  0  0  0  0  0  0
   -0.0113   -2.6869    0.5854 H   0  0  0  0  0  0  0  0  0  0  0  0
    1.5856   -1.4161    1.7626 H   0  0  0  0  0  0  0  0  0  0  0  0
    0.7648    0.7243    2.9796 H   0  0  0  0  0  0  0  0  0  0  0  0
   -0.7261    0.5902    2.0559 H   0  0  0  0  0  0  0  0  0  0  0  0
    1.1096   -2.4929    3.8784 N   0  0  0  0  0  0  0  0  0  0  0  0
    0.9214   -3.2352    5.1032 C   0  0  2  0  0  0  0  0  0  0  0  0
    2.2131   -3.1535    5.9058 C   0  0  0  0  0  0  0  0  0  0  0  0
    3.3055   -2.9123    5.3962 O   0  0  0  0  0  0  0  0  0  0  0  0
    0.5472   -4.6820    4.8214 C   0  0  0  0  0  0  0  0  0  0  0  0
    2.0375   -2.4902    3.4651 H   0  0  0  0  0  0  0  0  0  0  0  0
    0.1162   -2.7373    5.6542 H   0  0  0  0  0  0  0  0  0  0  0  0
    1.3421   -5.1973    4.2698 H   0  0  0  0  0  0  0  0  0  0  0  0
    0.3771   -5.2360    5.7505 H   0  0  0  0  0  0  0  0  0  0  0  0
   -0.3657   -4.7382    4.2188 H   0  0  0  0  0  0  0  0  0  0  0  0
    2.0093   -3.4240    7.2517 N   0  0  0  0  0  0  0  0  0  0  0  0
    3.0820   -3.4212    8.2188 C   0  0  0  0  0  0  0  0  0  0  0  0
    1.0669   -3.5951    7.5898 H   0  0  0  0  0  0  0  0  0  0  0  0
    3.4878   -4.4386    8.3201 H   0  0  0  0  0  0  0  0  0  0  0  0
    3.8780   -2.7411    7.8812 H   0  0  0  0  0  0  0  0  0  0  0  0
    2.6975   -3.0813    9.1917 H   0  0  0  0  0  0  0  0  0  0  0  0
  1  3  1  0  0  0  0
  1  7  1  0  0  0  0
  1  2  2  0  0  0  0
 30 31  1  0  0  0  0
 31 39  1  0  0  0  0
 31 32  2  0  0  0  0
  8  9  1  0  0  0  0
  9 17  1  0  0  0  0
  9 10  2  0  0  0  0
 18 19  1  0  0  0  0
 19 29  1  0  0  0  0
 19 20  2  0  0  0  0
 21 22  1  0  0  0  0
 22 23  1  0  0  0  0
 22 24  2  0  0  0  0
 30 33  1  0  0  0  0
  8 11  1  0  0  0  0
 39 40  1  0  0  0  0
 18 21  1  0  0  0  0
 29 30  1  0  0  0  0
  7  8  1  0  0  0  0
 17 18  1  0  0  0  0
  3  4  1  0  0  0  0
  3  5  1  0  0  0  0
  3  6  1  0  0  0  0
 33 36  1  0  0  0  0
 33 37  1  0  0  0  0
 33 38  1  0  0  0  0
 11 14  1  0  0  0  0
 11 15  1  0  0  0  0
 11 16  1  0  0  0  0
 40 42  1  0  0  0  0
 40 43  1  0  0  0  0
 40 44  1  0  0  0  0
 21 27  1  0  0  0  0
 21 28  1  0  0  0  0
 30 35  1  0  0  0  0
  8 13  1  0  0  0  0
 18 26  1  0  0  0  0
 39 41  1  0  0  0  0
  7 12  1  0  0  0  0
 29 34  1  0  0  0  0
 17 25  1  0  0  0  0
M  CHG  1  23  -1
M  END
$$$$

  -OEChem-05262214473D

 44 43  0     1  0  0  0  0  0999 V2000
   -4.0256   -1.8030   -2.1581 C   0  0  0  0  0  0  0  0  0  0  0  0
   -3.7513   -2.6782   -2.9709 O   0  0  0  0  0  0  0  0  0  0  0  0
   -5.3491   -1.1169   -2.2339 C   0  0  0  0  0  0  0  0  0  0  0  0
   -5.3223   -0.2211   -2.8750 H   0  0  0  0  0  0  0  0  0  0  0  0
   -6.1322   -1.7605   -2.6658 H   0  0  0  0  0  0  0  0  0  0  0  0
   -5.7568   -0.7715   -1.2704 H   0  0  0  0  0  0  0  0  0  0  0  0
   -3.2124   -1.3578   -1.1289 N   0  0  0  0  0  0  0  0  0  0  0  0
   -1.8971   -1.8843   -0.8752 C   0  0  2  0  0  0  0  0  0  0  0  0
   -1.2676   -1.0599    0.2399 C   0  0  0  0  0  0  0  0  0  0  0  0
   -1.6270    0.0833    0.5138 O   0  0  0  0  0  0  0  0  0  0  0  0
   -1.0364   -1.8506   -2.1285 C   0  0  0  0  0  0  0  0  0  0  0  0
   -3.5631   -0.6202   -0.5206 H   0  0  0  0  0  0  0  0  0  0  0  0
   -2.0301   -2.9174   -0.5360 H   0  0  0  0  0  0  0  0  0  0  0  0
   -0.8921   -0.8236   -2.4833 H   0  0  0  0  0  0  0  0  0  0  0  0
   -0.0457   -2.2777   -1.9410 H   0  0  0  0  0  0  0  0  0  0  0  0
   -1.5052   -2.4193   -2.9387 H   0  0  0  0  0  0  0  0  0  0  0  0
   -0.2267   -1.7335    0.8672 N   0  0  0  0  0  0  0  0  0  0  0  0
    0.5363   -1.1590    1.9465 C   0  0  2  0  0  0  0  0  0  0  0  0
    0.0733   -1.8325    3.2333 C   0  0  0  0  0  0  0  0  0  0  0  0
   -1.1090   -2.0556    3.4853 O   0  0  0  0  0  0  0  0  0  0  0  0
    0.3458    0.3535    2.0341 C   0  0  0  0  0  0  0  0  0  0  0  0
    0.9487    1.1839    0.8939 C   0  0  0  0  0  0  0  0  0  0  0  0
    1.9691    0.6614    0.3585 O   0  5  0  0  0  0  0  0  0  0  0  0
    0.3784    2.2769    0.6278 O   0  0  0  0  0  0  0  0  0  0  0  0
   -0.0113   -2.6869    0.5854 H   0  0  0  0  0  0  0  0  0  0  0  0
    1.5856   -1.4161    1.7626 H   0  0  0  0  0  0  0  0  0  0  0  0
    0.7648    0.7243    2.9796 H   0  0  0  0  0  0  0  0  0  0  0  0
   -0.7261    0.5902    2.0559 H   0  0  0  0  0  0  0  0  0  0  0  0
    1.1394   -2.2012    4.0419 N   0  0  0  0  0  0  0  0  0  0  0  0
    0.9651   -2.8844    5.3025 C   0  0  2  0  0  0  0  0  0  0  0  0
    2.1006   -2.4638    6.2263 C   0  0  0  0  0  0  0  0  0  0  0  0
    3.1703   -2.0192    5.8149 O   0  0  0  0  0  0  0  0  0  0  0  0
    0.9467   -4.3935    5.1161 C   0  0  0  0  0  0  0  0  0  0  0  0
    2.0889   -2.0188    3.7303 H   0  0  0  0  0  0  0  0  0  0  0  0
    0.0104   -2.5434    5.7177 H   0  0  0  0  0  0  0  0  0  0  0  0
    1.8950   -4.7537    4.7009 H   0  0  0  0  0  0  0  0  0  0  0  0
    0.7859   -4.9091    6.0687 H   0  0  0  0  0  0  0  0  0  0  0  0
    0.1482   -4.6915    4.4281 H   0  0  0  0  0  0  0  0  0  0  0  0
    1.7952   -2.6838    7.5622 N   0  0  0  0  0  0  0  0  0  0  0  0
    2.7152   -2.3780    8.6327 C   0  0  0  0  0  0  0  0  0  0  0  0
    0.8770   -3.0381    7.8130 H   0  0  0  0  0  0  0  0  0  0  0  0
    3.3135   -3.2703    8.8688 H   0  0  0  0  0  0  0  0  0  0  0  0
    3.3826   -1.5613    8.3205 H   0  0  0  0  0  0  0  0  0  0  0  0
    2.1501   -2.0691    9.5246 H   0  0  0  0  0  0  0  0  0  0  0  0
  1  3  1  0  0  0  0
  1  7  1  0  0  0  0
  1  2  2  0  0  0  0
 30 31  1  0  0  0  0
 31 39  1  0  0  0  0
 31 32  2  0  0  0  0
  8  9  1  0  0  0  0
  9 17  1  0  0  0  0
  9 10  2  0  0  0  0
 18 19  1  0  0  0  0
 19 29  1  0  0  0  0
 19 20  2  0  0  0  0
 21 22  1  0  0  0  0
 22 23  1  0  0  0  0
 22 24  2  0  0  0  0
 30 33  1  0  0  0  0
  8 11  1  0  0  0  0
 39 40  1  0  0  0  0
 18 21  1  0  0  0  0
 29 30  1  0  0  0  0
  7  8  1  0  0  0  0
 17 18  1  0  0  0  0
  3  4  1  0  0  0  0
  3  5  1  0  0  0  0
  3  6  1  0  0  0  0
 33 36  1  0  0  0  0
 33 37  1  0  0  0  0
 33 38  1  0  0  0  0
 11 14  1  0  0  0  0
 11 15  1  0  0  0  0
 11 16  1  0  0  0  0
 40 42  1  0  0  0  0
 40 43  1  0  0  0  0
 40 44  1  0  0  0  0
 21 27  1  0  0  0  0
 21 28  1  0  0  0  0
 30 35  1  0  0  0  0
  8 13  1  0  0  0  0
 18 26  1  0  0  0  0
 39 41  1  0  0  0  0
  7 12  1  0  0  0  0
 29 34  1  0  0  0  0
 17 25  1  0  0  0  0
M  CHG  1  23  -1
M  END
$$$$

  -OEChem-05262214473D

 44 43  0     1  0  0  0  0  0999 V2000
   -4.0256   -1.8030   -2.1581 C   0  0  0  0  0  0  0  0  0  0  0  0
   -3.7513   -2.6782   -2.9709 O   0  0  0  0  0  0  0  0  0  0  0  0
   -5.3491   -1.1169   -2.2339 C   0  0  0  0  0  0  0  0  0  0  0  0
   -5.3223   -0.2211   -2.8750 H   0  0  0  0  0  0  0  0  0  0  0  0
   -6.1322   -1.7605   -2.6658 H   0  0  0  0  0  0  0  0  0  0  0  0
   -5.7568   -0.7715   -1.2704 H   0  0  0  0  0  0  0  0  0  0  0  0
   -3.2124   -1.3578   -1.1289 N   0  0  0  0  0  0  0  0  0  0  0  0
   -1.8971   -1.8843   -0.8752 C   0  0  2  0  0  0  0  0  0  0  0  0
   -1.2676   -1.0599    0.2399 C   0  0  0  0  0  0  0  0  0  0  0  0
   -1.6270    0.0833    0.5138 O   0  0  0  0  0  0  0  0  0  0  0  0
   -1.0364   -1.8506   -2.1285 C   0  0  0  0  0  0  0  0  0  0  0  0
   -3.5631   -0.6202   -0.5206 H   0  0  0  0  0  0  0  0  0  0  0  0
   -2.0301   -2.9174   -0.5360 H   0  0  0  0  0  0  0  0  0  0  0  0
   -0.8921   -0.8236   -2.4833 H   0  0  0  0  0  0  0  0  0  0  0  0
   -0.0457   -2.2777   -1.9410 H   0  0  0  0  0  0  0  0  0  0  0  0
   -1.5052   -2.4193   -2.9387 H   0  0  0  0  0  0  0  0  0  0  0  0
   -0.2267   -1.7335    0.8672 N   0  0  0  0  0  0  0  0  0  0  0  0
    0.5363   -1.1590    1.9465 C   0  0  2  0  0  0  0  0  0  0  0  0
    0.0733   -1.8325    3.2333 C   0  0  0  0  0  0  0  0  0  0  0  0
   -1.0557   -2.2966    3.3784 O   0  0  0  0  0  0  0  0  0  0  0  0
    0.3458    0.3535    2.0341 C   0  0  0  0  0  0  0  0  0  0  0  0
    0.9487    1.1839    0.8939 C   0  0  0  0  0  0  0  0  0  0  0  0
    1.9691    0.6614    0.3585 O   0  5  0  0  0  0  0  0  0  0  0  0
    0.3784    2.2769    0.6278 O   0  0  0  0  0  0  0  0  0  0  0  0
   -0.0113   -2.6869    0.5854 H   0  0  0  0  0  0  0  0  0  0  0  0
    1.5856   -1.4161    1.7626 H   0  0  0  0  0  0  0  0  0  0  0  0
    0.7648    0.7243    2.9796 H   0  0  0  0  0  0  0  0  0  0  0  0
   -0.7261    0.5902    2.0559 H   0  0  0  0  0  0  0  0  0  0  0  0
    1.0858   -1.9000    4.1802 N   0  0  0  0  0  0  0  0  0  0  0  0
    0.9078   -2.5203    5.4725 C   0  0  2  0  0  0  0  0  0  0  0  0
    1.8045   -1.7971    6.4687 C   0  0  0  0  0  0  0  0  0  0  0  0
    2.7967   -1.1532    6.1338 O   0  0  0  0  0  0  0  0  0  0  0  0
    1.2358   -4.0044    5.4237 C   0  0  0  0  0  0  0  0  0  0  0  0
    2.0052   -1.5314    3.9553 H   0  0  0  0  0  0  0  0  0  0  0  0
   -0.1413   -2.3742    5.7516 H   0  0  0  0  0  0  0  0  0  0  0  0
    2.2829   -4.1706    5.1457 H   0  0  0  0  0  0  0  0  0  0  0  0
    1.0730   -4.4789    6.3971 H   0  0  0  0  0  0  0  0  0  0  0  0
    0.6104   -4.5177    4.6853 H   0  0  0  0  0  0  0  0  0  0  0  0
    1.3913   -1.9911    7.7793 N   0  0  0  0  0  0  0  0  0  0  0  0
    2.0856   -1.4180    8.9087 C   0  0  0  0  0  0  0  0  0  0  0  0
    0.5463   -2.5240    7.9632 H   0  0  0  0  0  0  0  0  0  0  0  0
    2.8273   -2.1368    9.2871 H   0  0  0  0  0  0  0  0  0  0  0  0
    2.5961   -0.4953    8.5954 H   0  0  0  0  0  0  0  0  0  0  0  0
    1.3622   -1.1848    9.7039 H   0  0  0  0  0  0  0  0  0  0  0  0
  1  3  1  0  0  0  0
  1  7  1  0  0  0  0
  1  2  2  0  0  0  0
 30 31  1  0  0  0  0
 31 39  1  0  0  0  0
 31 32  2  0  0  0  0
  8  9  1  0  0  0  0
  9 17  1  0  0  0  0
  9 10  2  0  0  0  0
 18 19  1  0  0  0  0
 19 29  1  0  0  0  0
 19 20  2  0  0  0  0
 21 22  1  0  0  0  0
 22 23  1  0  0  0  0
 22 24  2  0  0  0  0
 30 33  1  0  0  0  0
  8 11  1  0  0  0  0
 39 40  1  0  0  0  0
 18 21  1  0  0  0  0
 29 30  1  0  0  0  0
  7  8  1  0  0  0  0
 17 18  1  0  0  0  0
  3  4  1  0  0  0  0
  3  5  1  0  0  0  0
  3  6  1  0  0  0  0
 33 36  1  0  0  0  0
 33 37  1  0  0  0  0
 33 38  1  0  0  0  0
 11 14  1  0  0  0  0
 11 15  1  0  0  0  0
 11 16  1  0  0  0  0
 40 42  1  0  0  0  0
 40 43  1  0  0  0  0
 40 44  1  0  0  0  0
 21 27  1  0  0  0  0
 21 28  1  0  0  0  0
 30 35  1  0  0  0  0
  8 13  1  0  0  0  0
 18 26  1  0  0  0  0
 39 41  1  0  0  0  0
  7 12  1  0  0  0  0
 29 34  1  0  0  0  0
 17 25  1  0  0  0  0
M  CHG  1  23  -1
M  END
$$$$

  -OEChem-05262214473D

 44 43  0     1  0  0  0  0  0999 V2000
   -4.0256   -1.8030   -2.1581 C   0  0  0  0  0  0  0  0  0  0  0  0
   -3.7513   -2.6782   -2.9709 O   0  0  0  0  0  0  0  0  0  0  0  0
   -5.3491   -1.1169   -2.2339 C   0  0  0  0  0  0  0  0  0  0  0  0
   -5.3223   -0.2211   -2.8750 H   0  0  0  0  0  0  0  0  0  0  0  0
   -6.1322   -1.7605   -2.6658 H   0  0  0  0  0  0  0  0  0  0  0  0
   -5.7568   -0.7715   -1.2704 H   0  0  0  0  0  0  0  0  0  0  0  0
   -3.2124   -1.3578   -1.1289 N   0  0  0  0  0  0  0  0  0  0  0  0
   -1.8971   -1.8843   -0.8752 C   0  0  2  0  0  0  0  0  0  0  0  0
   -1.2676   -1.0599    0.2399 C   0  0  0  0  0  0  0  0  0  0  0  0
   -1.6270    0.0833    0.5138 O   0  0  0  0  0  0  0  0  0  0  0  0
   -1.0364   -1.8506   -2.1285 C   0  0  0  0  0  0  0  0  0  0  0  0
   -3.5631   -0.6202   -0.5206 H   0  0  0  0  0  0  0  0  0  0  0  0
   -2.0301   -2.9174   -0.5360 H   0  0  0  0  0  0  0  0  0  0  0  0
   -0.8921   -0.8236   -2.4833 H   0  0  0  0  0  0  0  0  0  0  0  0
   -0.0457   -2.2777   -1.9410 H   0  0  0  0  0  0  0  0  0  0  0  0
   -1.5052   -2.4193   -2.9387 H   0  0  0  0  0  0  0  0  0  0  0  0
   -0.2267   -1.7335    0.8672 N   0  0  0  0  0  0  0  0  0  0  0  0
    0.5363   -1.1590    1.9465 C   0  0  2  0  0  0  0  0  0  0  0  0
    0.0733   -1.8325    3.2333 C   0  0  0  0  0  0  0  0  0  0  0  0
   -0.9394   -2.5261    3.3001 O   0  0  0  0  0  0  0  0  0  0  0  0
    0.3458    0.3535    2.0341 C   0  0  0  0  0  0  0  0  0  0  0  0
    0.9487    1.1839    0.8939 C   0  0  0  0  0  0  0  0  0  0  0  0
    1.9691    0.6614    0.3585 O   0  5  0  0  0  0  0  0  0  0  0  0
    0.3784    2.2769    0.6278 O   0  0  0  0  0  0  0  0  0  0  0  0
   -0.0113   -2.6869    0.5854 H   0  0  0  0  0  0  0  0  0  0  0  0
    1.5856   -1.4161    1.7626 H   0  0  0  0  0  0  0  0  0  0  0  0
    0.7648    0.7243    2.9796 H   0  0  0  0  0  0  0  0  0  0  0  0
   -0.7261    0.5902    2.0559 H   0  0  0  0  0  0  0  0  0  0  0  0
    0.9524   -1.6099    4.2840 N   0  0  0  0  0  0  0  0  0  0  0  0
    0.7536   -2.1677    5.6015 C   0  0  2  0  0  0  0  0  0  0  0  0
    1.3452   -1.1987    6.6166 C   0  0  0  0  0  0  0  0  0  0  0  0
    2.2101   -0.3733    6.3310 O   0  0  0  0  0  0  0  0  0  0  0  0
    1.3948   -3.5413    5.7234 C   0  0  0  0  0  0  0  0  0  0  0  0
    1.7922   -1.0611    4.1248 H   0  0  0  0  0  0  0  0  0  0  0  0
   -0.3288   -2.2413    5.7537 H   0  0  0  0  0  0  0  0  0  0  0  0
    2.4793   -3.4876    5.5738 H   0  0  0  0  0  0  0  0  0  0  0  0
    1.2188   -3.9749    6.7133 H   0  0  0  0  0  0  0  0  0  0  0  0
    0.9894   -4.2286    4.9730 H   0  0  0  0  0  0  0  0  0  0  0  0
    0.8249   -1.3932    7.8885 N   0  0  0  0  0  0  0  0  0  0  0  0
    1.2362   -0.6065    9.0278 C   0  0  0  0  0  0  0  0  0  0  0  0
    0.0975   -2.0879    8.0299 H   0  0  0  0  0  0  0  0  0  0  0  0
    2.0621   -1.1153    9.5465 H   0  0  0  0  0  0  0  0  0  0  0  0
    1.5721    0.3840    8.6872 H   0  0  0  0  0  0  0  0  0  0  0  0
    0.3874   -0.4887    9.7175 H   0  0  0  0  0  0  0  0  0  0  0  0
  1  3  1  0  0  0  0
  1  7  1  0  0  0  0
  1  2  2  0  0  0  0
 30 31  1  0  0  0  0
 31 39  1  0  0  0  0
 31 32  2  0  0  0  0
  8  9  1  0  0  0  0
  9 17  1  0  0  0  0
  9 10  2  0  0  0  0
 18 19  1  0  0  0  0
 19 29  1  0  0  0  0
 19 20  2  0  0  0  0
 21 22  1  0  0  0  0
 22 23  1  0  0  0  0
 22 24  2  0  0  0  0
 30 33  1  0  0  0  0
  8 11  1  0  0  0  0
 39 40  1  0  0  0  0
 18 21  1  0  0  0  0
 29 30  1  0  0  0  0
  7  8  1  0  0  0  0
 17 18  1  0  0  0  0
  3  4  1  0  0  0  0
  3  5  1  0  0  0  0
  3  6  1  0  0  0  0
 33 36  1  0  0  0  0
 33 37  1  0  0  0  0
 33 38  1  0  0  0  0
 11 14  1  0  0  0  0
 11 15  1  0  0  0  0
 11 16  1  0  0  0  0
 40 42  1  0  0  0  0
 40 43  1  0  0  0  0
 40 44  1  0  0  0  0
 21 27  1  0  0  0  0
 21 28  1  0  0  0  0
 30 35  1  0  0  0  0
  8 13  1  0  0  0  0
 18 26  1  0  0  0  0
 39 41  1  0  0  0  0
  7 12  1  0  0  0  0
 29 34  1  0  0  0  0
 17 25  1  0  0  0  0
M  CHG  1  23  -1
M  END
$$$$

  -OEChem-05262214473D

 44 43  0     1  0  0  0  0  0999 V2000
   -4.0256   -1.8030   -2.1581 C   0  0  0  0  0  0  0  0  0  0  0  0
   -3.7513   -2.6782   -2.9709 O   0  0  0  0  0  0  0  0  0  0  0  0
   -5.3491   -1.1169   -2.2339 C   0  0  0  0  0  0  0  0  0  0  0  0
   -5.3223   -0.2211   -2.8750 H   0  0  0  0  0  0  0  0  0  0  0  0
   -6.1322   -1.7605   -2.6658 H   0  0  0  0  0  0  0  0  0  0  0  0
   -5.7568   -0.7715   -1.2704 H   0  0  0  0  0  0  0  0  0  0  0  0
   -3.2124   -1.3578   -1.1289 N   0  0  0  0  0  0  0  0  0  0  0  0
   -1.8971   -1.8843   -0.8752 C   0  0  2  0  0  0  0  0  0  0  0  0
   -1.2676   -1.0599    0.2399 C   0  0  0  0  0  0  0  0  0  0  0  0
   -1.6270    0.0833    0.5138 O   0  0  0  0  0  0  0  0  0  0  0  0
   -1.0364   -1.8506   -2.1285 C   0  0  0  0  0  0  0  0  0  0  0  0
   -3.5631   -0.6202   -0.5206 H   0  0  0  0  0  0  0  0  0  0  0  0
   -2.0301   -2.9174   -0.5360 H   0  0  0  0  0  0  0  0  0  0  0  0
   -0.8921   -0.8236   -2.4833 H   0  0  0  0  0  0  0  0  0  0  0  0
   -0.0457   -2.2777   -1.9410 H   0  0  0  0  0  0  0  0  0  0  0  0
   -1.5052   -2.4193   -2.9387 H   0  0  0  0  0  0  0  0  0  0  0  0
   -0.2267   -1.7335    0.8672 N   0  0  0  0  0  0  0  0  0  0  0  0
    0.5363   -1.1590    1.9465 C   0  0  2  0  0  0  0  0  0  0  0  0
    0.3605   -2.0695    3.1564 C   0  0  0  0  0  0  0  0  0  0  0  0
   -0.2902   -3.1119    3.1221 O   0  0  0  0  0  0  0  0  0  0  0  0
    0.0784    0.2607    2.2725 C   0  0  0  0  0  0  0  0  0  0  0  0
    0.3785    1.3331    1.2176 C   0  0  0  0  0  0  0  0  0  0  0  0
    1.4090    1.0987    0.5217 O   0  5  0  0  0  0  0  0  0  0  0  0
   -0.4129    2.3140    1.1675 O   0  0  0  0  0  0  0  0  0  0  0  0
   -0.0113   -2.6869    0.5854 H   0  0  0  0  0  0  0  0  0  0  0  0
    1.5864   -1.1745    1.6334 H   0  0  0  0  0  0  0  0  0  0  0  0
    0.5283    0.5852    3.2209 H   0  0  0  0  0  0  0  0  0  0  0  0
   -1.0088    0.2724    2.4249 H   0  0  0  0  0  0  0  0  0  0  0  0
    1.0588   -1.6070    4.2631 N   0  0  0  0  0  0  0  0  0  0  0  0
    1.0782   -2.3093    5.5252 C   0  0  2  0  0  0  0  0  0  0  0  0
    1.2146   -1.2765    6.6361 C   0  0  0  0  0  0  0  0  0  0  0  0
    1.6808   -0.1536    6.4545 O   0  0  0  0  0  0  0  0  0  0  0  0
    2.2141   -3.3190    5.5792 C   0  0  0  0  0  0  0  0  0  0  0  0
    1.6108   -0.7578    4.1861 H   0  0  0  0  0  0  0  0  0  0  0  0
    0.1137   -2.8205    5.6174 H   0  0  0  0  0  0  0  0  0  0  0  0
    3.1885   -2.8254    5.4883 H   0  0  0  0  0  0  0  0  0  0  0  0
    2.2100   -3.8706    6.5251 H   0  0  0  0  0  0  0  0  0  0  0  0
    2.1309   -4.0433    4.7617 H   0  0  0  0  0  0  0  0  0  0  0  0
    0.7946   -1.7710    7.8629 N   0  0  0  0  0  0  0  0  0  0  0  0
    0.8368   -0.9872    9.0753 C   0  0  0  0  0  0  0  0  0  0  0  0
    0.4043   -2.7072    7.9172 H   0  0  0  0  0  0  0  0  0  0  0  0
    1.7885   -1.1678    9.5964 H   0  0  0  0  0  0  0  0  0  0  0  0
    0.7532    0.0806    8.8245 H   0  0  0  0  0  0  0  0  0  0  0  0
    0.0005   -1.2770    9.7284 H   0  0  0  0  0  0  0  0  0  0  0  0
  1  3  1  0  0  0  0
  1  7  1  0  0  0  0
  1  2  2  0  0  0  0
 30 31  1  0  0  0  0
 31 39  1  0  0  0  0
 31 32  2  0  0  0  0
  8  9  1  0  0  0  0
  9 17  1  0  0  0  0
  9 10  2  0  0  0  0
 18 19  1  0  0  0  0
 19 29  1  0  0  0  0
 19 20  2  0  0  0  0
 21 22  1  0  0  0  0
 22 23  1  0  0  0  0
 22 24  2  0  0  0  0
 30 33  1  0  0  0  0
  8 11  1  0  0  0  0
 39 40  1  0  0  0  0
 18 21  1  0  0  0  0
 29 30  1  0  0  0  0
  7  8  1  0  0  0  0
 17 18  1  0  0  0  0
  3  4  1  0  0  0  0
  3  5  1  0  0  0  0
  3  6  1  0  0  0  0
 33 36  1  0  0  0  0
 33 37  1  0  0  0  0
 33 38  1  0  0  0  0
 11 14  1  0  0  0  0
 11 15  1  0  0  0  0
 11 16  1  0  0  0  0
 40 42  1  0  0  0  0
 40 43  1  0  0  0  0
 40 44  1  0  0  0  0
 21 27  1  0  0  0  0
 21 28  1  0  0  0  0
 30 35  1  0  0  0  0
  8 13  1  0  0  0  0
 18 26  1  0  0  0  0
 39 41  1  0  0  0  0
  7 12  1  0  0  0  0
 29 34  1  0  0  0  0
 17 25  1  0  0  0  0
M  CHG  1  23  -1
M  END
$$$$

  -OEChem-05262214473D

 44 43  0     1  0  0  0  0  0999 V2000
   -4.0256   -1.8030   -2.1581 C   0  0  0  0  0  0  0  0  0  0  0  0
   -3.7513   -2.6782   -2.9709 O   0  0  0  0  0  0  0  0  0  0  0  0
   -5.3491   -1.1169   -2.2339 C   0  0  0  0  0  0  0  0  0  0  0  0
   -5.3223   -0.2211   -2.8750 H   0  0  0  0  0  0  0  0  0  0  0  0
   -6.1322   -1.7605   -2.6658 H   0  0  0  0  0  0  0  0  0  0  0  0
   -5.7568   -0.7715   -1.2704 H   0  0  0  0  0  0  0  0  0  0  0  0
   -3.2124   -1.3578   -1.1289 N   0  0  0  0  0  0  0  0  0  0  0  0
   -1.8971   -1.8843   -0.8752 C   0  0  2  0  0  0  0  0  0  0  0  0
   -1.2676   -1.0599    0.2399 C   0  0  0  0  0  0  0  0  0  0  0  0
   -1.6270    0.0833    0.5138 O   0  0  0  0  0  0  0  0  0  0  0  0
   -1.0364   -1.8506   -2.1285 C   0  0  0  0  0  0  0  0  0  0  0  0
   -3.5631   -0.6202   -0.5206 H   0  0  0  0  0  0  0  0  0  0  0  0
   -2.0301   -2.9174   -0.5360 H   0  0  0  0  0  0  0  0  0  0  0  0
   -0.8921   -0.8236   -2.4833 H   0  0  0  0  0  0  0  0  0  0  0  0
   -0.0457   -2.2777   -1.9410 H   0  0  0  0  0  0  0  0  0  0  0  0
   -1.5052   -2.4193   -2.9387 H   0  0  0  0  0  0  0  0  0  0  0  0
   -0.2267   -1.7335    0.8672 N   0  0  0  0  0  0  0  0  0  0  0  0
    0.5363   -1.1590    1.9465 C   0  0  2  0  0  0  0  0  0  0  0  0
    0.3605   -2.0695    3.1564 C   0  0  0  0  0  0  0  0  0  0  0  0
   -0.0512   -3.2247    3.0719 O   0  0  0  0  0  0  0  0  0  0  0  0
    0.0784    0.2607    2.2725 C   0  0  0  0  0  0  0  0  0  0  0  0
    0.3785    1.3331    1.2176 C   0  0  0  0  0  0  0  0  0  0  0  0
    1.4090    1.0987    0.5217 O   0  5  0  0  0  0  0  0  0  0  0  0
   -0.4129    2.3140    1.1675 O   0  0  0  0  0  0  0  0  0  0  0  0
   -0.0113   -2.6869    0.5854 H   0  0  0  0  0  0  0  0  0  0  0  0
    1.5864   -1.1745    1.6334 H   0  0  0  0  0  0  0  0  0  0  0  0
    0.5283    0.5852    3.2209 H   0  0  0  0  0  0  0  0  0  0  0  0
   -1.0088    0.2724    2.4249 H   0  0  0  0  0  0  0  0  0  0  0  0
    0.7669   -1.4569    4.3337 N   0  0  0  0  0  0  0  0  0  0  0  0
    0.7292   -2.1225    5.6150 C   0  0  2  0  0  0  0  0  0  0  0  0
    0.4761   -1.0688    6.6851 C   0  0  0  0  0  0  0  0  0  0  0  0
    0.7273    0.1238    6.5248 O   0  0  0  0  0  0  0  0  0  0  0  0
    2.0234   -2.8733    5.8868 C   0  0  0  0  0  0  0  0  0  0  0  0
    1.1400   -0.5126    4.3022 H   0  0  0  0  0  0  0  0  0  0  0  0
   -0.1136   -2.8216    5.5836 H   0  0  0  0  0  0  0  0  0  0  0  0
    2.8792   -2.1893    5.9220 H   0  0  0  0  0  0  0  0  0  0  0  0
    1.9823   -3.4007    6.8456 H   0  0  0  0  0  0  0  0  0  0  0  0
    2.2190   -3.6103    5.1004 H   0  0  0  0  0  0  0  0  0  0  0  0
   -0.0228   -1.6229    7.8556 N   0  0  0  0  0  0  0  0  0  0  0  0
   -0.3324   -0.8309    9.0230 C   0  0  0  0  0  0  0  0  0  0  0  0
   -0.2184   -2.6190    7.8931 H   0  0  0  0  0  0  0  0  0  0  0  0
    0.5419   -0.8028    9.6900 H   0  0  0  0  0  0  0  0  0  0  0  0
   -0.5905    0.1926    8.7136 H   0  0  0  0  0  0  0  0  0  0  0  0
   -1.1847   -1.2792    9.5546 H   0  0  0  0  0  0  0  0  0  0  0  0
  1  3  1  0  0  0  0
  1  7  1  0  0  0  0
  1  2  2  0  0  0  0
 30 31  1  0  0  0  0
 31 39  1  0  0  0  0
 31 32  2  0  0  0  0
  8  9  1  0  0  0  0
  9 17  1  0  0  0  0
  9 10  2  0  0  0  0
 18 19  1  0  0  0  0
 19 29  1  0  0  0  0
 19 20  2  0  0  0  0
 21 22  1  0  0  0  0
 22 23  1  0  0  0  0
 22 24  2  0  0  0  0
 30 33  1  0  0  0  0
  8 11  1  0  0  0  0
 39 40  1  0  0  0  0
 18 21  1  0  0  0  0
 29 30  1  0  0  0  0
  7  8  1  0  0  0  0
 17 18  1  0  0  0  0
  3  4  1  0  0  0  0
  3  5  1  0  0  0  0
  3  6  1  0  0  0  0
 33 36  1  0  0  0  0
 33 37  1  0  0  0  0
 33 38  1  0  0  0  0
 11 14  1  0  0  0  0
 11 15  1  0  0  0  0
 11 16  1  0  0  0  0
 40 42  1  0  0  0  0
 40 43  1  0  0  0  0
 40 44  1  0  0  0  0
 21 27  1  0  0  0  0
 21 28  1  0  0  0  0
 30 35  1  0  0  0  0
  8 13  1  0  0  0  0
 18 26  1  0  0  0  0
 39 41  1  0  0  0  0
  7 12  1  0  0  0  0
 29 34  1  0  0  0  0
 17 25  1  0  0  0  0
M  CHG  1  23  -1
M  END
$$$$

  -OEChem-05262214473D

 44 43  0     1  0  0  0  0  0999 V2000
   -4.0256   -1.8030   -2.1581 C   0  0  0  0  0  0  0  0  0  0  0  0
   -3.7513   -2.6782   -2.9709 O   0  0  0  0  0  0  0  0  0  0  0  0
   -5.3491   -1.1169   -2.2339 C   0  0  0  0  0  0  0  0  0  0  0  0
   -5.3223   -0.2211   -2.8750 H   0  0  0  0  0  0  0  0  0  0  0  0
   -6.1322   -1.7605   -2.6658 H   0  0  0  0  0  0  0  0  0  0  0  0
   -5.7568   -0.7715   -1.2704 H   0  0  0  0  0  0  0  0  0  0  0  0
   -3.2124   -1.3578   -1.1289 N   0  0  0  0  0  0  0  0  0  0  0  0
   -1.8971   -1.8843   -0.8752 C   0  0  2  0  0  0  0  0  0  0  0  0
   -1.2676   -1.0599    0.2399 C   0  0  0  0  0  0  0  0  0  0  0  0
   -1.6270    0.0833    0.5138 O   0  0  0  0  0  0  0  0  0  0  0  0
   -1.0364   -1.8506   -2.1285 C   0  0  0  0  0  0  0  0  0  0  0  0
   -3.5631   -0.6202   -0.5206 H   0  0  0  0  0  0  0  0  0  0  0  0
   -2.0301   -2.9174   -0.5360 H   0  0  0  0  0  0  0  0  0  0  0  0
   -0.8921   -0.8236   -2.4833 H   0  0  0  0  0  0  0  0  0  0  0  0
   -0.0457   -2.2777   -1.9410 H   0  0  0  0  0  0  0  0  0  0  0  0
   -1.5052   -2.4193   -2.9387 H   0  0  0  0  0  0  0  0  0  0  0  0
   -0.2267   -1.7335    0.8672 N   0  0  0  0  0  0  0  0  0  0  0  0
    0.5363   -1.1590    1.9465 C   0  0  2  0  0  0  0  0  0  0  0  0
    0.3605   -2.0695    3.1564 C   0  0  0  0  0  0  0  0  0  0  0  0
    0.2105   -3.2861    3.0638 O   0  0  0  0  0  0  0  0  0  0  0  0
    0.0784    0.2607    2.2725 C   0  0  0  0  0  0  0  0  0  0  0  0
    0.3785    1.3331    1.2176 C   0  0  0  0  0  0  0  0  0  0  0  0
    1.4090    1.0987    0.5217 O   0  5  0  0  0  0  0  0  0  0  0  0
   -0.4129    2.3140    1.1675 O   0  0  0  0  0  0  0  0  0  0  0  0
   -0.0113   -2.6869    0.5854 H   0  0  0  0  0  0  0  0  0  0  0  0
    1.5864   -1.1745    1.6334 H   0  0  0  0  0  0  0  0  0  0  0  0
    0.5283    0.5852    3.2209 H   0  0  0  0  0  0  0  0  0  0  0  0
   -1.0088    0.2724    2.4249 H   0  0  0  0  0  0  0  0  0  0  0  0
    0.4432   -1.3698    4.3522 N   0  0  0  0  0  0  0  0  0  0  0  0
    0.3398   -2.0111    5.6423 C   0  0  2  0  0  0  0  0  0  0  0  0
   -0.2874   -1.0184    6.6121 C   0  0  0  0  0  0  0  0  0  0  0  0
   -0.2617    0.1981    6.4370 O   0  0  0  0  0  0  0  0  0  0  0  0
    1.7002   -2.4728    6.1413 C   0  0  0  0  0  0  0  0  0  0  0  0
    0.6169   -0.3691    4.3342 H   0  0  0  0  0  0  0  0  0  0  0  0
   -0.3277   -2.8704    5.5157 H   0  0  0  0  0  0  0  0  0  0  0  0
    2.3827   -1.6255    6.2741 H   0  0  0  0  0  0  0  0  0  0  0  0
    1.6164   -2.9841    7.1060 H   0  0  0  0  0  0  0  0  0  0  0  0
    2.1629   -3.1637    5.4283 H   0  0  0  0  0  0  0  0  0  0  0  0
   -0.8417   -1.6481    7.7178 N   0  0  0  0  0  0  0  0  0  0  0  0
   -1.4858   -0.9218    8.7871 C   0  0  0  0  0  0  0  0  0  0  0  0
   -0.8343   -2.6624    7.7710 H   0  0  0  0  0  0  0  0  0  0  0  0
   -0.7518   -0.7034    9.5769 H   0  0  0  0  0  0  0  0  0  0  0  0
   -1.8943    0.0215    8.3955 H   0  0  0  0  0  0  0  0  0  0  0  0
   -2.3022   -1.5301    9.2036 H   0  0  0  0  0  0  0  0  0  0  0  0
  1  3  1  0  0  0  0
  1  7  1  0  0  0  0
  1  2  2  0  0  0  0
 30 31  1  0  0  0  0
 31 39  1  0  0  0  0
 31 32  2  0  0  0  0
  8  9  1  0  0  0  0
  9 17  1  0  0  0  0
  9 10  2  0  0  0  0
 18 19  1  0  0  0  0
 19 29  1  0  0  0  0
 19 20  2  0  0  0  0
 21 22  1  0  0  0  0
 22 23  1  0  0  0  0
 22 24  2  0  0  0  0
 30 33  1  0  0  0  0
  8 11  1  0  0  0  0
 39 40  1  0  0  0  0
 18 21  1  0  0  0  0
 29 30  1  0  0  0  0
  7  8  1  0  0  0  0
 17 18  1  0  0  0  0
  3  4  1  0  0  0  0
  3  5  1  0  0  0  0
  3  6  1  0  0  0  0
 33 36  1  0  0  0  0
 33 37  1  0  0  0  0
 33 38  1  0  0  0  0
 11 14  1  0  0  0  0
 11 15  1  0  0  0  0
 11 16  1  0  0  0  0
 40 42  1  0  0  0  0
 40 43  1  0  0  0  0
 40 44  1  0  0  0  0
 21 27  1  0  0  0  0
 21 28  1  0  0  0  0
 30 35  1  0  0  0  0
  8 13  1  0  0  0  0
 18 26  1  0  0  0  0
 39 41  1  0  0  0  0
  7 12  1  0  0  0  0
 29 34  1  0  0  0  0
 17 25  1  0  0  0  0
M  CHG  1  23  -1
M  END
$$$$

  -OEChem-05262214473D

 44 43  0     1  0  0  0  0  0999 V2000
   -4.0256   -1.8030   -2.1581 C   0  0  0  0  0  0  0  0  0  0  0  0
   -3.7513   -2.6782   -2.9709 O   0  0  0  0  0  0  0  0  0  0  0  0
   -5.3491   -1.1169   -2.2339 C   0  0  0  0  0  0  0  0  0  0  0  0
   -5.3223   -0.2211   -2.8750 H   0  0  0  0  0  0  0  0  0  0  0  0
   -6.1322   -1.7605   -2.6658 H   0  0  0  0  0  0  0  0  0  0  0  0
   -5.7568   -0.7715   -1.2704 H   0  0  0  0  0  0  0  0  0  0  0  0
   -3.2124   -1.3578   -1.1289 N   0  0  0  0  0  0  0  0  0  0  0  0
   -1.8971   -1.8843   -0.8752 C   0  0  2  0  0  0  0  0  0  0  0  0
   -1.2676   -1.0599    0.2399 C   0  0  0  0  0  0  0  0  0  0  0  0
   -1.6270    0.0833    0.5138 O   0  0  0  0  0  0  0  0  0  0  0  0
   -1.0364   -1.8506   -2.1285 C   0  0  0  0  0  0  0  0  0  0  0  0
   -3.5631   -0.6202   -0.5206 H   0  0  0  0  0  0  0  0  0  0  0  0
   -2.0301   -2.9174   -0.5360 H   0  0  0  0  0  0  0  0  0  0  0  0
   -0.8921   -0.8236   -2.4833 H   0  0  0  0  0  0  0  0  0  0  0  0
   -0.0457   -2.2777   -1.9410 H   0  0  0  0  0  0  0  0  0  0  0  0
   -1.5052   -2.4193   -2.9387 H   0  0  0  0  0  0  0  0  0  0  0  0
   -0.2267   -1.7335    0.8672 N   0  0  0  0  0  0  0  0  0  0  0  0
    0.5363   -1.1590    1.9465 C   0  0  2  0  0  0  0  0  0  0  0  0
    0.3605   -2.0695    3.1564 C   0  0  0  0  0  0  0  0  0  0  0  0
    0.4773   -3.2918    3.0982 O   0  0  0  0  0  0  0  0  0  0  0  0
    0.0784    0.2607    2.2725 C   0  0  0  0  0  0  0  0  0  0  0  0
    0.3785    1.3331    1.2176 C   0  0  0  0  0  0  0  0  0  0  0  0
    1.4090    1.0987    0.5217 O   0  5  0  0  0  0  0  0  0  0  0  0
   -0.4129    2.3140    1.1675 O   0  0  0  0  0  0  0  0  0  0  0  0
   -0.0113   -2.6869    0.5854 H   0  0  0  0  0  0  0  0  0  0  0  0
    1.5864   -1.1745    1.6334 H   0  0  0  0  0  0  0  0  0  0  0  0
    0.5283    0.5852    3.2209 H   0  0  0  0  0  0  0  0  0  0  0  0
   -1.0088    0.2724    2.4249 H   0  0  0  0  0  0  0  0  0  0  0  0
    0.1098   -1.3516    4.3175 N   0  0  0  0  0  0  0  0  0  0  0  0
   -0.0633   -1.9827    5.6051 C   0  0  2  0  0  0  0  0  0  0  0  0
   -1.0241   -1.1288    6.4220 C   0  0  0  0  0  0  0  0  0  0  0  0
   -1.2186    0.0640    6.1971 O   0  0  0  0  0  0  0  0  0  0  0  0
    1.2664   -2.1448    6.3251 C   0  0  0  0  0  0  0  0  0  0  0  0
    0.0773   -0.3370    4.2800 H   0  0  0  0  0  0  0  0  0  0  0  0
   -0.5139   -2.9636    5.4186 H   0  0  0  0  0  0  0  0  0  0  0  0
    1.7329   -1.1724    6.5207 H   0  0  0  0  0  0  0  0  0  0  0  0
    1.1371   -2.6490    7.2884 H   0  0  0  0  0  0  0  0  0  0  0  0
    1.9663   -2.7341    5.7229 H   0  0  0  0  0  0  0  0  0  0  0  0
   -1.6061   -1.8447    7.4588 N   0  0  0  0  0  0  0  0  0  0  0  0
   -2.5448   -1.2535    8.3837 C   0  0  0  0  0  0  0  0  0  0  0  0
   -1.4014   -2.8345    7.5591 H   0  0  0  0  0  0  0  0  0  0  0  0
   -2.0044   -0.8766    9.2646 H   0  0  0  0  0  0  0  0  0  0  0  0
   -3.0693   -0.4211    7.8917 H   0  0  0  0  0  0  0  0  0  0  0  0
   -3.2759   -2.0124    8.6992 H   0  0  0  0  0  0  0  0  0  0  0  0
  1  3  1  0  0  0  0
  1  7  1  0  0  0  0
  1  2  2  0  0  0  0
 30 31  1  0  0  0  0
 31 39  1  0  0  0  0
 31 32  2  0  0  0  0
  8  9  1  0  0  0  0
  9 17  1  0  0  0  0
  9 10  2  0  0  0  0
 18 19  1  0  0  0  0
 19 29  1  0  0  0  0
 19 20  2  0  0  0  0
 21 22  1  0  0  0  0
 22 23  1  0  0  0  0
 22 24  2  0  0  0  0
 30 33  1  0  0  0  0
  8 11  1  0  0  0  0
 39 40  1  0  0  0  0
 18 21  1  0  0  0  0
 29 30  1  0  0  0  0
  7  8  1  0  0  0  0
 17 18  1  0  0  0  0
  3  4  1  0  0  0  0
  3  5  1  0  0  0  0
  3  6  1  0  0  0  0
 33 36  1  0  0  0  0
 33 37  1  0  0  0  0
 33 38  1  0  0  0  0
 11 14  1  0  0  0  0
 11 15  1  0  0  0  0
 11 16  1  0  0  0  0
 40 42  1  0  0  0  0
 40 43  1  0  0  0  0
 40 44  1  0  0  0  0
 21 27  1  0  0  0  0
 21 28  1  0  0  0  0
 30 35  1  0  0  0  0
  8 13  1  0  0  0  0
 18 26  1  0  0  0  0
 39 41  1  0  0  0  0
  7 12  1  0  0  0  0
 29 34  1  0  0  0  0
 17 25  1  0  0  0  0
M  CHG  1  23  -1
M  END
$$$$

  -OEChem-05262214473D

 44 43  0     1  0  0  0  0  0999 V2000
   -4.0256   -1.8030   -2.1581 C   0  0  0  0  0  0  0  0  0  0  0  0
   -3.7513   -2.6782   -2.9709 O   0  0  0  0  0  0  0  0  0  0  0  0
   -5.3491   -1.1169   -2.2339 C   0  0  0  0  0  0  0  0  0  0  0  0
   -5.3223   -0.2211   -2.8750 H   0  0  0  0  0  0  0  0  0  0  0  0
   -6.1322   -1.7605   -2.6658 H   0  0  0  0  0  0  0  0  0  0  0  0
   -5.7568   -0.7715   -1.2704 H   0  0  0  0  0  0  0  0  0  0  0  0
   -3.2124   -1.3578   -1.1289 N   0  0  0  0  0  0  0  0  0  0  0  0
   -1.8971   -1.8843   -0.8752 C   0  0  2  0  0  0  0  0  0  0  0  0
   -1.2676   -1.0599    0.2399 C   0  0  0  0  0  0  0  0  0  0  0  0
   -1.6270    0.0833    0.5138 O   0  0  0  0  0  0  0  0  0  0  0  0
   -1.0364   -1.8506   -2.1285 C   0  0  0  0  0  0  0  0  0  0  0  0
   -3.5631   -0.6202   -0.5206 H   0  0  0  0  0  0  0  0  0  0  0  0
   -2.0301   -2.9174   -0.5360 H   0  0  0  0  0  0  0  0  0  0  0  0
   -0.8921   -0.8236   -2.4833 H   0  0  0  0  0  0  0  0  0  0  0  0
   -0.0457   -2.2777   -1.9410 H   0  0  0  0  0  0  0  0  0  0  0  0
   -1.5052   -2.4193   -2.9387 H   0  0  0  0  0  0  0  0  0  0  0  0
   -0.2267   -1.7335    0.8672 N   0  0  0  0  0  0  0  0  0  0  0  0
    0.5363   -1.1590    1.9465 C   0  0  2  0  0  0  0  0  0  0  0  0
    0.3605   -2.0695    3.1564 C   0  0  0  0  0  0  0  0  0  0  0  0
    0.7308   -3.2416    3.1728 O   0  0  0  0  0  0  0  0  0  0  0  0
    0.0784    0.2607    2.2725 C   0  0  0  0  0  0  0  0  0  0  0  0
    0.3785    1.3331    1.2176 C   0  0  0  0  0  0  0  0  0  0  0  0
    1.4090    1.0987    0.5217 O   0  5  0  0  0  0  0  0  0  0  0  0
   -0.4129    2.3140    1.1675 O   0  0  0  0  0  0  0  0  0  0  0  0
   -0.0113   -2.6869    0.5854 H   0  0  0  0  0  0  0  0  0  0  0  0
    1.5864   -1.1745    1.6334 H   0  0  0  0  0  0  0  0  0  0  0  0
    0.5283    0.5852    3.2209 H   0  0  0  0  0  0  0  0  0  0  0  0
   -1.0088    0.2724    2.4249 H   0  0  0  0  0  0  0  0  0  0  0  0
   -0.2107   -1.4035    4.2318 N   0  0  0  0  0  0  0  0  0  0  0  0
   -0.4529   -2.0391    5.5061 C   0  0  2  0  0  0  0  0  0  0  0  0
   -1.6836   -1.3924    6.1279 C   0  0  0  0  0  0  0  0  0  0  0  0
   -2.0783   -0.2693    5.8214 O   0  0  0  0  0  0  0  0  0  0  0  0
    0.7515   -1.9116    6.4258 C   0  0  0  0  0  0  0  0  0  0  0  0
   -0.4422   -0.4185    4.1433 H   0  0  0  0  0  0  0  0  0  0  0  0
   -0.6597   -3.0947    5.2987 H   0  0  0  0  0  0  0  0  0  0  0  0
    0.9741   -0.8609    6.6449 H   0  0  0  0  0  0  0  0  0  0  0  0
    0.5770   -2.4184    7.3806 H   0  0  0  0  0  0  0  0  0  0  0  0
    1.6425   -2.3508    5.9644 H   0  0  0  0  0  0  0  0  0  0  0  0
   -2.2642   -2.1993    7.0963 N   0  0  0  0  0  0  0  0  0  0  0  0
   -3.4371   -1.8035    7.8402 C   0  0  0  0  0  0  0  0  0  0  0  0
   -1.8811   -3.1236    7.2719 H   0  0  0  0  0  0  0  0  0  0  0  0
   -3.1304   -1.3105    8.7745 H   0  0  0  0  0  0  0  0  0  0  0  0
   -4.0355   -1.1051    7.2367 H   0  0  0  0  0  0  0  0  0  0  0  0
   -4.0393   -2.6933    8.0759 H   0  0  0  0  0  0  0  0  0  0  0  0
  1  3  1  0  0  0  0
  1  7  1  0  0  0  0
  1  2  2  0  0  0  0
 30 31  1  0  0  0  0
 31 39  1  0  0  0  0
 31 32  2  0  0  0  0
  8  9  1  0  0  0  0
  9 17  1  0  0  0  0
  9 10  2  0  0  0  0
 18 19  1  0  0  0  0
 19 29  1  0  0  0  0
 19 20  2  0  0  0  0
 21 22  1  0  0  0  0
 22 23  1  0  0  0  0
 22 24  2  0  0  0  0
 30 33  1  0  0  0  0
  8 11  1  0  0  0  0
 39 40  1  0  0  0  0
 18 21  1  0  0  0  0
 29 30  1  0  0  0  0
  7  8  1  0  0  0  0
 17 18  1  0  0  0  0
  3  4  1  0  0  0  0
  3  5  1  0  0  0  0
  3  6  1  0  0  0  0
 33 36  1  0  0  0  0
 33 37  1  0  0  0  0
 33 38  1  0  0  0  0
 11 14  1  0  0  0  0
 11 15  1  0  0  0  0
 11 16  1  0  0  0  0
 40 42  1  0  0  0  0
 40 43  1  0  0  0  0
 40 44  1  0  0  0  0
 21 27  1  0  0  0  0
 21 28  1  0  0  0  0
 30 35  1  0  0  0  0
  8 13  1  0  0  0  0
 18 26  1  0  0  0  0
 39 41  1  0  0  0  0
  7 12  1  0  0  0  0
 29 34  1  0  0  0  0
 17 25  1  0  0  0  0
M  CHG  1  23  -1
M  END
$$$$

  -OEChem-05262214473D

 44 43  0     1  0  0  0  0  0999 V2000
   -4.0256   -1.8030   -2.1581 C   0  0  0  0  0  0  0  0  0  0  0  0
   -3.7513   -2.6782   -2.9709 O   0  0  0  0  0  0  0  0  0  0  0  0
   -5.3491   -1.1169   -2.2339 C   0  0  0  0  0  0  0  0  0  0  0  0
   -5.3223   -0.2211   -2.8750 H   0  0  0  0  0  0  0  0  0  0  0  0
   -6.1322   -1.7605   -2.6658 H   0  0  0  0  0  0  0  0  0  0  0  0
   -5.7568   -0.7715   -1.2704 H   0  0  0  0  0  0  0  0  0  0  0  0
   -3.2124   -1.3578   -1.1289 N   0  0  0  0  0  0  0  0  0  0  0  0
   -1.8971   -1.8843   -0.8752 C   0  0  2  0  0  0  0  0  0  0  0  0
   -1.2676   -1.0599    0.2399 C   0  0  0  0  0  0  0  0  0  0  0  0
   -1.6270    0.0833    0.5138 O   0  0  0  0  0  0  0  0  0  0  0  0
   -1.0364   -1.8506   -2.1285 C   0  0  0  0  0  0  0  0  0  0  0  0
   -3.5631   -0.6202   -0.5206 H   0  0  0  0  0  0  0  0  0  0  0  0
   -2.0301   -2.9174   -0.5360 H   0  0  0  0  0  0  0  0  0  0  0  0
   -0.8921   -0.8236   -2.4833 H   0  0  0  0  0  0  0  0  0  0  0  0
   -0.0457   -2.2777   -1.9410 H   0  0  0  0  0  0  0  0  0  0  0  0
   -1.5052   -2.4193   -2.9387 H   0  0  0  0  0  0  0  0  0  0  0  0
   -0.2267   -1.7335    0.8672 N   0  0  0  0  0  0  0  0  0  0  0  0
    0.5363   -1.1590    1.9465 C   0  0  2  0  0  0  0  0  0  0  0  0
    0.3605   -2.0695    3.1564 C   0  0  0  0  0  0  0  0  0  0  0  0
    0.9538   -3.1387    3.2826 O   0  0  0  0  0  0  0  0  0  0  0  0
    0.0784    0.2607    2.2725 C   0  0  0  0  0  0  0  0  0  0  0  0
    0.3785    1.3331    1.2176 C   0  0  0  0  0  0  0  0  0  0  0  0
    1.4090    1.0987    0.5217 O   0  5  0  0  0  0  0  0  0  0  0  0
   -0.4129    2.3140    1.1675 O   0  0  0  0  0  0  0  0  0  0  0  0
   -0.0113   -2.6869    0.5854 H   0  0  0  0  0  0  0  0  0  0  0  0
    1.5864   -1.1745    1.6334 H   0  0  0  0  0  0  0  0  0  0  0  0
    0.5283    0.5852    3.2209 H   0  0  0  0  0  0  0  0  0  0  0  0
   -1.0088    0.2724    2.4249 H   0  0  0  0  0  0  0  0  0  0  0  0
   -0.4963   -1.5221    4.1011 N   0  0  0  0  0  0  0  0  0  0  0  0
   -0.8022   -2.1766    5.3519 C   0  0  2  0  0  0  0  0  0  0  0  0
   -2.2209   -1.7913    5.7497 C   0  0  0  0  0  0  0  0  0  0  0  0
   -2.7821   -0.7790    5.3356 O   0  0  0  0  0  0  0  0  0  0  0  0
    0.1907   -1.7890    6.4365 C   0  0  0  0  0  0  0  0  0  0  0  0
   -0.9061   -0.6079    3.9333 H   0  0  0  0  0  0  0  0  0  0  0  0
   -0.7550   -3.2549    5.1644 H   0  0  0  0  0  0  0  0  0  0  0  0
    0.1579   -0.7121    6.6382 H   0  0  0  0  0  0  0  0  0  0  0  0
   -0.0255   -2.3080    7.3762 H   0  0  0  0  0  0  0  0  0  0  0  0
    1.2138   -2.0399    6.1361 H   0  0  0  0  0  0  0  0  0  0  0  0
   -2.7709   -2.6879    6.6551 N   0  0  0  0  0  0  0  0  0  0  0  0
   -4.1021   -2.5342    7.1937 C   0  0  0  0  0  0  0  0  0  0  0  0
   -2.2407   -3.5099    6.9290 H   0  0  0  0  0  0  0  0  0  0  0  0
   -4.0531   -1.9756    8.1401 H   0  0  0  0  0  0  0  0  0  0  0  0
   -4.7270   -1.9838    6.4751 H   0  0  0  0  0  0  0  0  0  0  0  0
   -4.5405   -3.5265    7.3762 H   0  0  0  0  0  0  0  0  0  0  0  0
  1  3  1  0  0  0  0
  1  7  1  0  0  0  0
  1  2  2  0  0  0  0
 30 31  1  0  0  0  0
 31 39  1  0  0  0  0
 31 32  2  0  0  0  0
  8  9  1  0  0  0  0
  9 17  1  0  0  0  0
  9 10  2  0  0  0  0
 18 19  1  0  0  0  0
 19 29  1  0  0  0  0
 19 20  2  0  0  0  0
 21 22  1  0  0  0  0
 22 23  1  0  0  0  0
 22 24  2  0  0  0  0
 30 33  1  0  0  0  0
  8 11  1  0  0  0  0
 39 40  1  0  0  0  0
 18 21  1  0  0  0  0
 29 30  1  0  0  0  0
  7  8  1  0  0  0  0
 17 18  1  0  0  0  0
  3  4  1  0  0  0  0
  3  5  1  0  0  0  0
  3  6  1  0  0  0  0
 33 36  1  0  0  0  0
 33 37  1  0  0  0  0
 33 38  1  0  0  0  0
 11 14  1  0  0  0  0
 11 15  1  0  0  0  0
 11 16  1  0  0  0  0
 40 42  1  0  0  0  0
 40 43  1  0  0  0  0
 40 44  1  0  0  0  0
 21 27  1  0  0  0  0
 21 28  1  0  0  0  0
 30 35  1  0  0  0  0
  8 13  1  0  0  0  0
 18 26  1  0  0  0  0
 39 41  1  0  0  0  0
  7 12  1  0  0  0  0
 29 34  1  0  0  0  0
 17 25  1  0  0  0  0
M  CHG  1  23  -1
M  END
$$$$

  -OEChem-05262214473D

 44 43  0     1  0  0  0  0  0999 V2000
   -4.0256   -1.8030   -2.1581 C   0  0  0  0  0  0  0  0  0  0  0  0
   -3.7513   -2.6782   -2.9709 O   0  0  0  0  0  0  0  0  0  0  0  0
   -5.3491   -1.1169   -2.2339 C   0  0  0  0  0  0  0  0  0  0  0  0
   -5.3223   -0.2211   -2.8750 H   0  0  0  0  0  0  0  0  0  0  0  0
   -6.1322   -1.7605   -2.6658 H   0  0  0  0  0  0  0  0  0  0  0  0
   -5.7568   -0.7715   -1.2704 H   0  0  0  0  0  0  0  0  0  0  0  0
   -3.2124   -1.3578   -1.1289 N   0  0  0  0  0  0  0  0  0  0  0  0
   -1.8971   -1.8843   -0.8752 C   0  0  2  0  0  0  0  0  0  0  0  0
   -1.2676   -1.0599    0.2399 C   0  0  0  0  0  0  0  0  0  0  0  0
   -1.6270    0.0833    0.5138 O   0  0  0  0  0  0  0  0  0  0  0  0
   -1.0364   -1.8506   -2.1285 C   0  0  0  0  0  0  0  0  0  0  0  0
   -3.5631   -0.6202   -0.5206 H   0  0  0  0  0  0  0  0  0  0  0  0
   -2.0301   -2.9174   -0.5360 H   0  0  0  0  0  0  0  0  0  0  0  0
   -0.8921   -0.8236   -2.4833 H   0  0  0  0  0  0  0  0  0  0  0  0
   -0.0457   -2.2777   -1.9410 H   0  0  0  0  0  0  0  0  0  0  0  0
   -1.5052   -2.4193   -2.9387 H   0  0  0  0  0  0  0  0  0  0  0  0
   -0.2267   -1.7335    0.8672 N   0  0  0  0  0  0  0  0  0  0  0  0
    0.5363   -1.1590    1.9465 C   0  0  2  0  0  0  0  0  0  0  0  0
    0.3605   -2.0695    3.1564 C   0  0  0  0  0  0  0  0  0  0  0  0
    1.1311   -2.9903    3.4200 O   0  0  0  0  0  0  0  0  0  0  0  0
    0.0784    0.2607    2.2725 C   0  0  0  0  0  0  0  0  0  0  0  0
    0.3785    1.3331    1.2176 C   0  0  0  0  0  0  0  0  0  0  0  0
    1.4090    1.0987    0.5217 O   0  5  0  0  0  0  0  0  0  0  0  0
   -0.4129    2.3140    1.1675 O   0  0  0  0  0  0  0  0  0  0  0  0
   -0.0113   -2.6869    0.5854 H   0  0  0  0  0  0  0  0  0  0  0  0
    1.5864   -1.1745    1.6334 H   0  0  0  0  0  0  0  0  0  0  0  0
    0.5283    0.5852    3.2209 H   0  0  0  0  0  0  0  0  0  0  0  0
   -1.0088    0.2724    2.4249 H   0  0  0  0  0  0  0  0  0  0  0  0
   -0.7277   -1.6992    3.9342 N   0  0  0  0  0  0  0  0  0  0  0  0
   -1.0876   -2.3858    5.1530 C   0  0  2  0  0  0  0  0  0  0  0  0
   -2.5996   -2.2982    5.3132 C   0  0  0  0  0  0  0  0  0  0  0  0
   -3.2822   -1.4304    4.7728 O   0  0  0  0  0  0  0  0  0  0  0  0
   -0.3778   -1.7856    6.3566 C   0  0  0  0  0  0  0  0  0  0  0  0
   -1.2829   -0.8925    3.6644 H   0  0  0  0  0  0  0  0  0  0  0  0
   -0.7934   -3.4332    5.0246 H   0  0  0  0  0  0  0  0  0  0  0  0
   -0.6600   -0.7363    6.5012 H   0  0  0  0  0  0  0  0  0  0  0  0
   -0.6296   -2.3252    7.2755 H   0  0  0  0  0  0  0  0  0  0  0  0
    0.7092   -1.8224    6.2264 H   0  0  0  0  0  0  0  0  0  0  0  0
   -3.0917   -3.2771    6.1651 N   0  0  0  0  0  0  0  0  0  0  0  0
   -4.4944   -3.3960    6.4883 C   0  0  0  0  0  0  0  0  0  0  0  0
   -2.4557   -3.9672    6.5537 H   0  0  0  0  0  0  0  0  0  0  0  0
   -4.7097   -2.8265    7.4044 H   0  0  0  0  0  0  0  0  0  0  0  0
   -5.0967   -2.9973    5.6587 H   0  0  0  0  0  0  0  0  0  0  0  0
   -4.7453   -4.4551    6.6477 H   0  0  0  0  0  0  0  0  0  0  0  0
  1  3  1  0  0  0  0
  1  7  1  0  0  0  0
  1  2  2  0  0  0  0
 30 31  1  0  0  0  0
 31 39  1  0  0  0  0
 31 32  2  0  0  0  0
  8  9  1  0  0  0  0
  9 17  1  0  0  0  0
  9 10  2  0  0  0  0
 18 19  1  0  0  0  0
 19 29  1  0  0  0  0
 19 20  2  0  0  0  0
 21 22  1  0  0  0  0
 22 23  1  0  0  0  0
 22 24  2  0  0  0  0
 30 33  1  0  0  0  0
  8 11  1  0  0  0  0
 39 40  1  0  0  0  0
 18 21  1  0  0  0  0
 29 30  1  0  0  0  0
  7  8  1  0  0  0  0
 17 18  1  0  0  0  0
  3  4  1  0  0  0  0
  3  5  1  0  0  0  0
  3  6  1  0  0  0  0
 33 36  1  0  0  0  0
 33 37  1  0  0  0  0
 33 38  1  0  0  0  0
 11 14  1  0  0  0  0
 11 15  1  0  0  0  0
 11 16  1  0  0  0  0
 40 42  1  0  0  0  0
 40 43  1  0  0  0  0
 40 44  1  0  0  0  0
 21 27  1  0  0  0  0
 21 28  1  0  0  0  0
 30 35  1  0  0  0  0
  8 13  1  0  0  0  0
 18 26  1  0  0  0  0
 39 41  1  0  0  0  0
  7 12  1  0  0  0  0
 29 34  1  0  0  0  0
 17 25  1  0  0  0  0
M  CHG  1  23  -1
M  END
$$$$

  -OEChem-05262214473D

 44 43  0     1  0  0  0  0  0999 V2000
   -4.0256   -1.8030   -2.1581 C   0  0  0  0  0  0  0  0  0  0  0  0
   -3.7513   -2.6782   -2.9709 O   0  0  0  0  0  0  0  0  0  0  0  0
   -5.3491   -1.1169   -2.2339 C   0  0  0  0  0  0  0  0  0  0  0  0
   -5.3223   -0.2211   -2.8750 H   0  0  0  0  0  0  0  0  0  0  0  0
   -6.1322   -1.7605   -2.6658 H   0  0  0  0  0  0  0  0  0  0  0  0
   -5.7568   -0.7715   -1.2704 H   0  0  0  0  0  0  0  0  0  0  0  0
   -3.2124   -1.3578   -1.1289 N   0  0  0  0  0  0  0  0  0  0  0  0
   -1.8971   -1.8843   -0.8752 C   0  0  2  0  0  0  0  0  0  0  0  0
   -1.2676   -1.0599    0.2399 C   0  0  0  0  0  0  0  0  0  0  0  0
   -1.6270    0.0833    0.5138 O   0  0  0  0  0  0  0  0  0  0  0  0
   -1.0364   -1.8506   -2.1285 C   0  0  0  0  0  0  0  0  0  0  0  0
   -3.5631   -0.6202   -0.5206 H   0  0  0  0  0  0  0  0  0  0  0  0
   -2.0301   -2.9174   -0.5360 H   0  0  0  0  0  0  0  0  0  0  0  0
   -0.8921   -0.8236   -2.4833 H   0  0  0  0  0  0  0  0  0  0  0  0
   -0.0457   -2.2777   -1.9410 H   0  0  0  0  0  0  0  0  0  0  0  0
   -1.5052   -2.4193   -2.9387 H   0  0  0  0  0  0  0  0  0  0  0  0
   -0.2267   -1.7335    0.8672 N   0  0  0  0  0  0  0  0  0  0  0  0
    0.5363   -1.1590    1.9465 C   0  0  2  0  0  0  0  0  0  0  0  0
    0.3605   -2.0695    3.1564 C   0  0  0  0  0  0  0  0  0  0  0  0
    1.2506   -2.8064    3.5758 O   0  0  0  0  0  0  0  0  0  0  0  0
    0.0784    0.2607    2.2725 C   0  0  0  0  0  0  0  0  0  0  0  0
    0.3785    1.3331    1.2176 C   0  0  0  0  0  0  0  0  0  0  0  0
    1.4090    1.0987    0.5217 O   0  5  0  0  0  0  0  0  0  0  0  0
   -0.4129    2.3140    1.1675 O   0  0  0  0  0  0  0  0  0  0  0  0
   -0.0113   -2.6869    0.5854 H   0  0  0  0  0  0  0  0  0  0  0  0
    1.5864   -1.1745    1.6334 H   0  0  0  0  0  0  0  0  0  0  0  0
    0.5283    0.5852    3.2209 H   0  0  0  0  0  0  0  0  0  0  0  0
   -1.0088    0.2724    2.4249 H   0  0  0  0  0  0  0  0  0  0  0  0
   -0.8889   -1.9228    3.7426 N   0  0  0  0  0  0  0  0  0  0  0  0
   -1.2895   -2.6525    4.9230 C   0  0  2  0  0  0  0  0  0  0  0  0
   -2.7937   -2.8787    4.8482 C   0  0  0  0  0  0  0  0  0  0  0  0
   -3.5444   -2.1792    4.1713 O   0  0  0  0  0  0  0  0  0  0  0  0
   -0.9153   -1.9014    6.1913 C   0  0  0  0  0  0  0  0  0  0  0  0
   -1.5468   -1.2528    3.3550 H   0  0  0  0  0  0  0  0  0  0  0  0
   -0.7723   -3.6175    4.8890 H   0  0  0  0  0  0  0  0  0  0  0  0
   -1.4239   -0.9318    6.2431 H   0  0  0  0  0  0  0  0  0  0  0  0
   -1.1939   -2.4690    7.0854 H   0  0  0  0  0  0  0  0  0  0  0  0
    0.1631   -1.7134    6.2291 H   0  0  0  0  0  0  0  0  0  0  0  0
   -3.2049   -3.9267    5.6598 N   0  0  0  0  0  0  0  0  0  0  0  0
   -4.5872   -4.3301    5.7720 C   0  0  0  0  0  0  0  0  0  0  0  0
   -2.5113   -4.4642    6.1716 H   0  0  0  0  0  0  0  0  0  0  0  0
   -5.0554   -3.8052    6.6177 H   0  0  0  0  0  0  0  0  0  0  0  0
   -5.1194   -4.0766    4.8433 H   0  0  0  0  0  0  0  0  0  0  0  0
   -4.6397   -5.4159    5.9400 H   0  0  0  0  0  0  0  0  0  0  0  0
  1  3  1  0  0  0  0
  1  7  1  0  0  0  0
  1  2  2  0  0  0  0
 30 31  1  0  0  0  0
 31 39  1  0  0  0  0
 31 32  2  0  0  0  0
  8  9  1  0  0  0  0
  9 17  1  0  0  0  0
  9 10  2  0  0  0  0
 18 19  1  0  0  0  0
 19 29  1  0  0  0  0
 19 20  2  0  0  0  0
 21 22  1  0  0  0  0
 22 23  1  0  0  0  0
 22 24  2  0  0  0  0
 30 33  1  0  0  0  0
  8 11  1  0  0  0  0
 39 40  1  0  0  0  0
 18 21  1  0  0  0  0
 29 30  1  0  0  0  0
  7  8  1  0  0  0  0
 17 18  1  0  0  0  0
  3  4  1  0  0  0  0
  3  5  1  0  0  0  0
  3  6  1  0  0  0  0
 33 36  1  0  0  0  0
 33 37  1  0  0  0  0
 33 38  1  0  0  0  0
 11 14  1  0  0  0  0
 11 15  1  0  0  0  0
 11 16  1  0  0  0  0
 40 42  1  0  0  0  0
 40 43  1  0  0  0  0
 40 44  1  0  0  0  0
 21 27  1  0  0  0  0
 21 28  1  0  0  0  0
 30 35  1  0  0  0  0
  8 13  1  0  0  0  0
 18 26  1  0  0  0  0
 39 41  1  0  0  0  0
  7 12  1  0  0  0  0
 29 34  1  0  0  0  0
 17 25  1  0  0  0  0
M  CHG  1  23  -1
M  END
$$$$

  -OEChem-05262214473D

 44 43  0     1  0  0  0  0  0999 V2000
   -4.0256   -1.8030   -2.1581 C   0  0  0  0  0  0  0  0  0  0  0  0
   -3.7513   -2.6782   -2.9709 O   0  0  0  0  0  0  0  0  0  0  0  0
   -5.3491   -1.1169   -2.2339 C   0  0  0  0  0  0  0  0  0  0  0  0
   -5.3223   -0.2211   -2.8750 H   0  0  0  0  0  0  0  0  0  0  0  0
   -6.1322   -1.7605   -2.6658 H   0  0  0  0  0  0  0  0  0  0  0  0
   -5.7568   -0.7715   -1.2704 H   0  0  0  0  0  0  0  0  0  0  0  0
   -3.2124   -1.3578   -1.1289 N   0  0  0  0  0  0  0  0  0  0  0  0
   -1.8971   -1.8843   -0.8752 C   0  0  2  0  0  0  0  0  0  0  0  0
   -1.2676   -1.0599    0.2399 C   0  0  0  0  0  0  0  0  0  0  0  0
   -1.6270    0.0833    0.5138 O   0  0  0  0  0  0  0  0  0  0  0  0
   -1.0364   -1.8506   -2.1285 C   0  0  0  0  0  0  0  0  0  0  0  0
   -3.5631   -0.6202   -0.5206 H   0  0  0  0  0  0  0  0  0  0  0  0
   -2.0301   -2.9174   -0.5360 H   0  0  0  0  0  0  0  0  0  0  0  0
   -0.8921   -0.8236   -2.4833 H   0  0  0  0  0  0  0  0  0  0  0  0
   -0.0457   -2.2777   -1.9410 H   0  0  0  0  0  0  0  0  0  0  0  0
   -1.5052   -2.4193   -2.9387 H   0  0  0  0  0  0  0  0  0  0  0  0
   -0.2267   -1.7335    0.8672 N   0  0  0  0  0  0  0  0  0  0  0  0
    0.5363   -1.1590    1.9465 C   0  0  2  0  0  0  0  0  0  0  0  0
    0.3605   -2.0695    3.1564 C   0  0  0  0  0  0  0  0  0  0  0  0
    1.3042   -2.5996    3.7392 O   0  0  0  0  0  0  0  0  0  0  0  0
    0.0784    0.2607    2.2725 C   0  0  0  0  0  0  0  0  0  0  0  0
    0.3785    1.3331    1.2176 C   0  0  0  0  0  0  0  0  0  0  0  0
    1.4090    1.0987    0.5217 O   0  5  0  0  0  0  0  0  0  0  0  0
   -0.4129    2.3140    1.1675 O   0  0  0  0  0  0  0  0  0  0  0  0
   -0.0113   -2.6869    0.5854 H   0  0  0  0  0  0  0  0  0  0  0  0
    1.5864   -1.1745    1.6334 H   0  0  0  0  0  0  0  0  0  0  0  0
    0.5283    0.5852    3.2209 H   0  0  0  0  0  0  0  0  0  0  0  0
   -1.0088    0.2724    2.4249 H   0  0  0  0  0  0  0  0  0  0  0  0
   -0.9692   -2.1776    3.5392 N   0  0  0  0  0  0  0  0  0  0  0  0
   -1.3942   -2.9583    4.6777 C   0  0  2  0  0  0  0  0  0  0  0  0
   -2.7901   -3.4932    4.3863 C   0  0  0  0  0  0  0  0  0  0  0  0
   -3.5509   -2.9742    3.5721 O   0  0  0  0  0  0  0  0  0  0  0  0
   -1.3851   -2.1286    5.9521 C   0  0  0  0  0  0  0  0  0  0  0  0
   -1.6798   -1.6643    3.0260 H   0  0  0  0  0  0  0  0  0  0  0  0
   -0.6930   -3.7952    4.7668 H   0  0  0  0  0  0  0  0  0  0  0  0
   -2.0817   -1.2853    5.8816 H   0  0  0  0  0  0  0  0  0  0  0  0
   -1.6801   -2.7294    6.8188 H   0  0  0  0  0  0  0  0  0  0  0  0
   -0.3871   -1.7202    6.1441 H   0  0  0  0  0  0  0  0  0  0  0  0
   -3.1026   -4.5926    5.1737 N   0  0  0  0  0  0  0  0  0  0  0  0
   -4.3742   -5.2727    5.0936 C   0  0  0  0  0  0  0  0  0  0  0  0
   -2.4039   -4.9671    5.8087 H   0  0  0  0  0  0  0  0  0  0  0  0
   -5.0666   -4.8451    5.8336 H   0  0  0  0  0  0  0  0  0  0  0  0
   -4.7936   -5.1481    4.0843 H   0  0  0  0  0  0  0  0  0  0  0  0
   -4.2309   -6.3434    5.3015 H   0  0  0  0  0  0  0  0  0  0  0  0
  1  3  1  0  0  0  0
  1  7  1  0  0  0  0
  1  2  2  0  0  0  0
 30 31  1  0  0  0  0
 31 39  1  0  0  0  0
 31 32  2  0  0  0  0
  8  9  1  0  0  0  0
  9 17  1  0  0  0  0
  9 10  2  0  0  0  0
 18 19  1  0  0  0  0
 19 29  1  0  0  0  0
 19 20  2  0  0  0  0
 21 22  1  0  0  0  0
 22 23  1  0  0  0  0
 22 24  2  0  0  0  0
 30 33  1  0  0  0  0
  8 11  1  0  0  0  0
 39 40  1  0  0  0  0
 18 21  1  0  0  0  0
 29 30  1  0  0  0  0
  7  8  1  0  0  0  0
 17 18  1  0  0  0  0
  3  4  1  0  0  0  0
  3  5  1  0  0  0  0
  3  6  1  0  0  0  0
 33 36  1  0  0  0  0
 33 37  1  0  0  0  0
 33 38  1  0  0  0  0
 11 14  1  0  0  0  0
 11 15  1  0  0  0  0
 11 16  1  0  0  0  0
 40 42  1  0  0  0  0
 40 43  1  0  0  0  0
 40 44  1  0  0  0  0
 21 27  1  0  0  0  0
 21 28  1  0  0  0  0
 30 35  1  0  0  0  0
  8 13  1  0  0  0  0
 18 26  1  0  0  0  0
 39 41  1  0  0  0  0
  7 12  1  0  0  0  0
 29 34  1  0  0  0  0
 17 25  1  0  0  0  0
M  CHG  1  23  -1
M  END
$$$$

  -OEChem-05262214473D

 44 43  0     1  0  0  0  0  0999 V2000
   -4.0256   -1.8030   -2.1581 C   0  0  0  0  0  0  0  0  0  0  0  0
   -3.7513   -2.6782   -2.9709 O   0  0  0  0  0  0  0  0  0  0  0  0
   -5.3491   -1.1169   -2.2339 C   0  0  0  0  0  0  0  0  0  0  0  0
   -5.3223   -0.2211   -2.8750 H   0  0  0  0  0  0  0  0  0  0  0  0
   -6.1322   -1.7605   -2.6658 H   0  0  0  0  0  0  0  0  0  0  0  0
   -5.7568   -0.7715   -1.2704 H   0  0  0  0  0  0  0  0  0  0  0  0
   -3.2124   -1.3578   -1.1289 N   0  0  0  0  0  0  0  0  0  0  0  0
   -1.8971   -1.8843   -0.8752 C   0  0  2  0  0  0  0  0  0  0  0  0
   -1.2676   -1.0599    0.2399 C   0  0  0  0  0  0  0  0  0  0  0  0
   -1.6270    0.0833    0.5138 O   0  0  0  0  0  0  0  0  0  0  0  0
   -1.0364   -1.8506   -2.1285 C   0  0  0  0  0  0  0  0  0  0  0  0
   -3.5631   -0.6202   -0.5206 H   0  0  0  0  0  0  0  0  0  0  0  0
   -2.0301   -2.9174   -0.5360 H   0  0  0  0  0  0  0  0  0  0  0  0
   -0.8921   -0.8236   -2.4833 H   0  0  0  0  0  0  0  0  0  0  0  0
   -0.0457   -2.2777   -1.9410 H   0  0  0  0  0  0  0  0  0  0  0  0
   -1.5052   -2.4193   -2.9387 H   0  0  0  0  0  0  0  0  0  0  0  0
   -0.2267   -1.7335    0.8672 N   0  0  0  0  0  0  0  0  0  0  0  0
    0.5363   -1.1590    1.9465 C   0  0  2  0  0  0  0  0  0  0  0  0
    0.3605   -2.0695    3.1564 C   0  0  0  0  0  0  0  0  0  0  0  0
    1.2882   -2.3839    3.8992 O   0  0  0  0  0  0  0  0  0  0  0  0
    0.0784    0.2607    2.2725 C   0  0  0  0  0  0  0  0  0  0  0  0
    0.3785    1.3331    1.2176 C   0  0  0  0  0  0  0  0  0  0  0  0
    1.4090    1.0987    0.5217 O   0  5  0  0  0  0  0  0  0  0  0  0
   -0.4129    2.3140    1.1675 O   0  0  0  0  0  0  0  0  0  0  0  0
   -0.0113   -2.6869    0.5854 H   0  0  0  0  0  0  0  0  0  0  0  0
    1.5864   -1.1745    1.6334 H   0  0  0  0  0  0  0  0  0  0  0  0
    0.5283    0.5852    3.2209 H   0  0  0  0  0  0  0  0  0  0  0  0
   -1.0088    0.2724    2.4249 H   0  0  0  0  0  0  0  0  0  0  0  0
   -0.9629   -2.4462    3.3379 N   0  0  0  0  0  0  0  0  0  0  0  0
   -1.3946   -3.2826    4.4336 C   0  0  2  0  0  0  0  0  0  0  0  0
   -2.5890   -4.0998    3.9591 C   0  0  0  0  0  0  0  0  0  0  0  0
   -3.3012   -3.7614    3.0160 O   0  0  0  0  0  0  0  0  0  0  0  0
   -1.7553   -2.4518    5.6552 C   0  0  0  0  0  0  0  0  0  0  0  0
   -1.6729   -2.0989    2.7000 H   0  0  0  0  0  0  0  0  0  0  0  0
   -0.5611   -3.9543    4.6663 H   0  0  0  0  0  0  0  0  0  0  0  0
   -2.5886   -1.7726    5.4413 H   0  0  0  0  0  0  0  0  0  0  0  0
   -2.0550   -3.0888    6.4939 H   0  0  0  0  0  0  0  0  0  0  0  0
   -0.9040   -1.8423    5.9771 H   0  0  0  0  0  0  0  0  0  0  0  0
   -2.7919   -5.2292    4.7397 N   0  0  0  0  0  0  0  0  0  0  0  0
   -3.8700   -6.1598    4.4993 C   0  0  0  0  0  0  0  0  0  0  0  0
   -2.1408   -5.4417    5.4898 H   0  0  0  0  0  0  0  0  0  0  0  0
   -4.7427   -5.8752    5.1055 H   0  0  0  0  0  0  0  0  0  0  0  0
   -4.1414   -6.1389    3.4336 H   0  0  0  0  0  0  0  0  0  0  0  0
   -3.5469   -7.1743    4.7756 H   0  0  0  0  0  0  0  0  0  0  0  0
  1  3  1  0  0  0  0
  1  7  1  0  0  0  0
  1  2  2  0  0  0  0
 30 31  1  0  0  0  0
 31 39  1  0  0  0  0
 31 32  2  0  0  0  0
  8  9  1  0  0  0  0
  9 17  1  0  0  0  0
  9 10  2  0  0  0  0
 18 19  1  0  0  0  0
 19 29  1  0  0  0  0
 19 20  2  0  0  0  0
 21 22  1  0  0  0  0
 22 23  1  0  0  0  0
 22 24  2  0  0  0  0
 30 33  1  0  0  0  0
  8 11  1  0  0  0  0
 39 40  1  0  0  0  0
 18 21  1  0  0  0  0
 29 30  1  0  0  0  0
  7  8  1  0  0  0  0
 17 18  1  0  0  0  0
  3  4  1  0  0  0  0
  3  5  1  0  0  0  0
  3  6  1  0  0  0  0
 33 36  1  0  0  0  0
 33 37  1  0  0  0  0
 33 38  1  0  0  0  0
 11 14  1  0  0  0  0
 11 15  1  0  0  0  0
 11 16  1  0  0  0  0
 40 42  1  0  0  0  0
 40 43  1  0  0  0  0
 40 44  1  0  0  0  0
 21 27  1  0  0  0  0
 21 28  1  0  0  0  0
 30 35  1  0  0  0  0
  8 13  1  0  0  0  0
 18 26  1  0  0  0  0
 39 41  1  0  0  0  0
  7 12  1  0  0  0  0
 29 34  1  0  0  0  0
 17 25  1  0  0  0  0
M  CHG  1  23  -1
M  END
$$$$

  -OEChem-05262214473D

 44 43  0     1  0  0  0  0  0999 V2000
   -4.0256   -1.8030   -2.1581 C   0  0  0  0  0  0  0  0  0  0  0  0
   -3.7513   -2.6782   -2.9709 O   0  0  0  0  0  0  0  0  0  0  0  0
   -5.3491   -1.1169   -2.2339 C   0  0  0  0  0  0  0  0  0  0  0  0
   -5.3223   -0.2211   -2.8750 H   0  0  0  0  0  0  0  0  0  0  0  0
   -6.1322   -1.7605   -2.6658 H   0  0  0  0  0  0  0  0  0  0  0  0
   -5.7568   -0.7715   -1.2704 H   0  0  0  0  0  0  0  0  0  0  0  0
   -3.2124   -1.3578   -1.1289 N   0  0  0  0  0  0  0  0  0  0  0  0
   -1.8971   -1.8843   -0.8752 C   0  0  2  0  0  0  0  0  0  0  0  0
   -1.2676   -1.0599    0.2399 C   0  0  0  0  0  0  0  0  0  0  0  0
   -1.6270    0.0833    0.5138 O   0  0  0  0  0  0  0  0  0  0  0  0
   -1.0364   -1.8506   -2.1285 C   0  0  0  0  0  0  0  0  0  0  0  0
   -3.5631   -0.6202   -0.5206 H   0  0  0  0  0  0  0  0  0  0  0  0
   -2.0301   -2.9174   -0.5360 H   0  0  0  0  0  0  0  0  0  0  0  0
   -0.8921   -0.8236   -2.4833 H   0  0  0  0  0  0  0  0  0  0  0  0
   -0.0457   -2.2777   -1.9410 H   0  0  0  0  0  0  0  0  0  0  0  0
   -1.5052   -2.4193   -2.9387 H   0  0  0  0  0  0  0  0  0  0  0  0
   -0.2267   -1.7335    0.8672 N   0  0  0  0  0  0  0  0  0  0  0  0
    0.5363   -1.1590    1.9465 C   0  0  2  0  0  0  0  0  0  0  0  0
    0.3605   -2.0695    3.1564 C   0  0  0  0  0  0  0  0  0  0  0  0
    1.2038   -2.1741    4.0448 O   0  0  0  0  0  0  0  0  0  0  0  0
    0.0784    0.2607    2.2725 C   0  0  0  0  0  0  0  0  0  0  0  0
    0.3785    1.3331    1.2176 C   0  0  0  0  0  0  0  0  0  0  0  0
    1.4090    1.0987    0.5217 O   0  5  0  0  0  0  0  0  0  0  0  0
   -0.4129    2.3140    1.1675 O   0  0  0  0  0  0  0  0  0  0  0  0
   -0.0113   -2.6869    0.5854 H   0  0  0  0  0  0  0  0  0  0  0  0
    1.5864   -1.1745    1.6334 H   0  0  0  0  0  0  0  0  0  0  0  0
    0.5283    0.5852    3.2209 H   0  0  0  0  0  0  0  0  0  0  0  0
   -1.0088    0.2724    2.4249 H   0  0  0  0  0  0  0  0  0  0  0  0
   -0.8705   -2.7105    3.1525 N   0  0  0  0  0  0  0  0  0  0  0  0
   -1.2906   -3.6032    4.2074 C   0  0  2  0  0  0  0  0  0  0  0  0
   -2.2041   -4.6572    3.5956 C   0  0  0  0  0  0  0  0  0  0  0  0
   -2.8123   -4.4871    2.5410 O   0  0  0  0  0  0  0  0  0  0  0  0
   -2.0006   -2.8488    5.3208 C   0  0  0  0  0  0  0  0  0  0  0  0
   -1.5266   -2.5270    2.3991 H   0  0  0  0  0  0  0  0  0  0  0  0
   -0.3854   -4.0838    4.5943 H   0  0  0  0  0  0  0  0  0  0  0  0
   -2.9101   -2.3606    4.9521 H   0  0  0  0  0  0  0  0  0  0  0  0
   -2.2931   -3.5227    6.1328 H   0  0  0  0  0  0  0  0  0  0  0  0
   -1.3525   -2.0714    5.7396 H   0  0  0  0  0  0  0  0  0  0  0  0
   -2.2939   -5.7933    4.3876 N   0  0  0  0  0  0  0  0  0  0  0  0
   -3.1088   -6.9307    4.0298 C   0  0  0  0  0  0  0  0  0  0  0  0
   -1.7398   -5.8556    5.2367 H   0  0  0  0  0  0  0  0  0  0  0  0
   -4.1056   -6.8255    4.4830 H   0  0  0  0  0  0  0  0  0  0  0  0
   -3.2073   -6.9813    2.9353 H   0  0  0  0  0  0  0  0  0  0  0  0
   -2.6341   -7.8521    4.3981 H   0  0  0  0  0  0  0  0  0  0  0  0
  1  3  1  0  0  0  0
  1  7  1  0  0  0  0
  1  2  2  0  0  0  0
 30 31  1  0  0  0  0
 31 39  1  0  0  0  0
 31 32  2  0  0  0  0
  8  9  1  0  0  0  0
  9 17  1  0  0  0  0
  9 10  2  0  0  0  0
 18 19  1  0  0  0  0
 19 29  1  0  0  0  0
 19 20  2  0  0  0  0
 21 22  1  0  0  0  0
 22 23  1  0  0  0  0
 22 24  2  0  0  0  0
 30 33  1  0  0  0  0
  8 11  1  0  0  0  0
 39 40  1  0  0  0  0
 18 21  1  0  0  0  0
 29 30  1  0  0  0  0
  7  8  1  0  0  0  0
 17 18  1  0  0  0  0
  3  4  1  0  0  0  0
  3  5  1  0  0  0  0
  3  6  1  0  0  0  0
 33 36  1  0  0  0  0
 33 37  1  0  0  0  0
 33 38  1  0  0  0  0
 11 14  1  0  0  0  0
 11 15  1  0  0  0  0
 11 16  1  0  0  0  0
 40 42  1  0  0  0  0
 40 43  1  0  0  0  0
 40 44  1  0  0  0  0
 21 27  1  0  0  0  0
 21 28  1  0  0  0  0
 30 35  1  0  0  0  0
  8 13  1  0  0  0  0
 18 26  1  0  0  0  0
 39 41  1  0  0  0  0
  7 12  1  0  0  0  0
 29 34  1  0  0  0  0
 17 25  1  0  0  0  0
M  CHG  1  23  -1
M  END
$$$$

  -OEChem-05262214473D

 44 43  0     1  0  0  0  0  0999 V2000
   -4.0256   -1.8030   -2.1581 C   0  0  0  0  0  0  0  0  0  0  0  0
   -3.7513   -2.6782   -2.9709 O   0  0  0  0  0  0  0  0  0  0  0  0
   -5.3491   -1.1169   -2.2339 C   0  0  0  0  0  0  0  0  0  0  0  0
   -5.3223   -0.2211   -2.8750 H   0  0  0  0  0  0  0  0  0  0  0  0
   -6.1322   -1.7605   -2.6658 H   0  0  0  0  0  0  0  0  0  0  0  0
   -5.7568   -0.7715   -1.2704 H   0  0  0  0  0  0  0  0  0  0  0  0
   -3.2124   -1.3578   -1.1289 N   0  0  0  0  0  0  0  0  0  0  0  0
   -1.8971   -1.8843   -0.8752 C   0  0  2  0  0  0  0  0  0  0  0  0
   -1.2676   -1.0599    0.2399 C   0  0  0  0  0  0  0  0  0  0  0  0
   -1.6270    0.0833    0.5138 O   0  0  0  0  0  0  0  0  0  0  0  0
   -1.0364   -1.8506   -2.1285 C   0  0  0  0  0  0  0  0  0  0  0  0
   -3.5631   -0.6202   -0.5206 H   0  0  0  0  0  0  0  0  0  0  0  0
   -2.0301   -2.9174   -0.5360 H   0  0  0  0  0  0  0  0  0  0  0  0
   -0.8921   -0.8236   -2.4833 H   0  0  0  0  0  0  0  0  0  0  0  0
   -0.0457   -2.2777   -1.9410 H   0  0  0  0  0  0  0  0  0  0  0  0
   -1.5052   -2.4193   -2.9387 H   0  0  0  0  0  0  0  0  0  0  0  0
   -0.2267   -1.7335    0.8672 N   0  0  0  0  0  0  0  0  0  0  0  0
    0.5363   -1.1590    1.9465 C   0  0  2  0  0  0  0  0  0  0  0  0
    0.3605   -2.0695    3.1564 C   0  0  0  0  0  0  0  0  0  0  0  0
    1.0566   -1.9844    4.1661 O   0  0  0  0  0  0  0  0  0  0  0  0
    0.0784    0.2607    2.2725 C   0  0  0  0  0  0  0  0  0  0  0  0
    0.3785    1.3331    1.2176 C   0  0  0  0  0  0  0  0  0  0  0  0
    1.4090    1.0987    0.5217 O   0  5  0  0  0  0  0  0  0  0  0  0
   -0.4129    2.3140    1.1675 O   0  0  0  0  0  0  0  0  0  0  0  0
   -0.0113   -2.6869    0.5854 H   0  0  0  0  0  0  0  0  0  0  0  0
    1.5864   -1.1745    1.6334 H   0  0  0  0  0  0  0  0  0  0  0  0
    0.5283    0.5852    3.2209 H   0  0  0  0  0  0  0  0  0  0  0  0
   -1.0088    0.2724    2.4249 H   0  0  0  0  0  0  0  0  0  0  0  0
   -0.6983   -2.9522    2.9956 N   0  0  0  0  0  0  0  0  0  0  0  0
   -1.0894   -3.8983    4.0146 C   0  0  2  0  0  0  0  0  0  0  0  0
   -1.6616   -5.1273    3.3206 C   0  0  0  0  0  0  0  0  0  0  0  0
   -2.1176   -5.1018    2.1794 O   0  0  0  0  0  0  0  0  0  0  0  0
   -2.1042   -3.2927    4.9717 C   0  0  0  0  0  0  0  0  0  0  0  0
   -1.2508   -2.9194    2.1439 H   0  0  0  0  0  0  0  0  0  0  0  0
   -0.1780   -4.1750    4.5558 H   0  0  0  0  0  0  0  0  0  0  0  0
   -3.0242   -3.0092    4.4475 H   0  0  0  0  0  0  0  0  0  0  0  0
   -2.3782   -4.0015    5.7602 H   0  0  0  0  0  0  0  0  0  0  0  0
   -1.7019   -2.3919    5.4476 H   0  0  0  0  0  0  0  0  0  0  0  0
   -1.6426   -6.2463    4.1413 N   0  0  0  0  0  0  0  0  0  0  0  0
   -2.1427   -7.5331    3.7169 C   0  0  0  0  0  0  0  0  0  0  0  0
   -1.2284   -6.1805    5.0665 H   0  0  0  0  0  0  0  0  0  0  0  0
   -3.1987   -7.6310    4.0086 H   0  0  0  0  0  0  0  0  0  0  0  0
   -2.0550   -7.6179    2.6236 H   0  0  0  0  0  0  0  0  0  0  0  0
   -1.5549   -8.3306    4.1948 H   0  0  0  0  0  0  0  0  0  0  0  0
  1  3  1  0  0  0  0
  1  7  1  0  0  0  0
  1  2  2  0  0  0  0
 30 31  1  0  0  0  0
 31 39  1  0  0  0  0
 31 32  2  0  0  0  0
  8  9  1  0  0  0  0
  9 17  1  0  0  0  0
  9 10  2  0  0  0  0
 18 19  1  0  0  0  0
 19 29  1  0  0  0  0
 19 20  2  0  0  0  0
 21 22  1  0  0  0  0
 22 23  1  0  0  0  0
 22 24  2  0  0  0  0
 30 33  1  0  0  0  0
  8 11  1  0  0  0  0
 39 40  1  0  0  0  0
 18 21  1  0  0  0  0
 29 30  1  0  0  0  0
  7  8  1  0  0  0  0
 17 18  1  0  0  0  0
  3  4  1  0  0  0  0
  3  5  1  0  0  0  0
  3  6  1  0  0  0  0
 33 36  1  0  0  0  0
 33 37  1  0  0  0  0
 33 38  1  0  0  0  0
 11 14  1  0  0  0  0
 11 15  1  0  0  0  0
 11 16  1  0  0  0  0
 40 42  1  0  0  0  0
 40 43  1  0  0  0  0
 40 44  1  0  0  0  0
 21 27  1  0  0  0  0
 21 28  1  0  0  0  0
 30 35  1  0  0  0  0
  8 13  1  0  0  0  0
 18 26  1  0  0  0  0
 39 41  1  0  0  0  0
  7 12  1  0  0  0  0
 29 34  1  0  0  0  0
 17 25  1  0  0  0  0
M  CHG  1  23  -1
M  END
$$$$

  -OEChem-05262214473D

 44 43  0     1  0  0  0  0  0999 V2000
   -4.0256   -1.8030   -2.1581 C   0  0  0  0  0  0  0  0  0  0  0  0
   -3.7513   -2.6782   -2.9709 O   0  0  0  0  0  0  0  0  0  0  0  0
   -5.3491   -1.1169   -2.2339 C   0  0  0  0  0  0  0  0  0  0  0  0
   -5.3223   -0.2211   -2.8750 H   0  0  0  0  0  0  0  0  0  0  0  0
   -6.1322   -1.7605   -2.6658 H   0  0  0  0  0  0  0  0  0  0  0  0
   -5.7568   -0.7715   -1.2704 H   0  0  0  0  0  0  0  0  0  0  0  0
   -3.2124   -1.3578   -1.1289 N   0  0  0  0  0  0  0  0  0  0  0  0
   -1.8971   -1.8843   -0.8752 C   0  0  2  0  0  0  0  0  0  0  0  0
   -1.2676   -1.0599    0.2399 C   0  0  0  0  0  0  0  0  0  0  0  0
   -1.6270    0.0833    0.5138 O   0  0  0  0  0  0  0  0  0  0  0  0
   -1.0364   -1.8506   -2.1285 C   0  0  0  0  0  0  0  0  0  0  0  0
   -3.5631   -0.6202   -0.5206 H   0  0  0  0  0  0  0  0  0  0  0  0
   -2.0301   -2.9174   -0.5360 H   0  0  0  0  0  0  0  0  0  0  0  0
   -0.8921   -0.8236   -2.4833 H   0  0  0  0  0  0  0  0  0  0  0  0
   -0.0457   -2.2777   -1.9410 H   0  0  0  0  0  0  0  0  0  0  0  0
   -1.5052   -2.4193   -2.9387 H   0  0  0  0  0  0  0  0  0  0  0  0
   -0.2267   -1.7335    0.8672 N   0  0  0  0  0  0  0  0  0  0  0  0
    0.5363   -1.1590    1.9465 C   0  0  2  0  0  0  0  0  0  0  0  0
    0.3605   -2.0695    3.1564 C   0  0  0  0  0  0  0  0  0  0  0  0
    0.8567   -1.8279    4.2549 O   0  0  0  0  0  0  0  0  0  0  0  0
    0.0784    0.2607    2.2725 C   0  0  0  0  0  0  0  0  0  0  0  0
    0.3785    1.3331    1.2176 C   0  0  0  0  0  0  0  0  0  0  0  0
    1.4090    1.0987    0.5217 O   0  5  0  0  0  0  0  0  0  0  0  0
   -0.4129    2.3140    1.1675 O   0  0  0  0  0  0  0  0  0  0  0  0
   -0.0113   -2.6869    0.5854 H   0  0  0  0  0  0  0  0  0  0  0  0
    1.5864   -1.1745    1.6334 H   0  0  0  0  0  0  0  0  0  0  0  0
    0.5283    0.5852    3.2209 H   0  0  0  0  0  0  0  0  0  0  0  0
   -1.0088    0.2724    2.4249 H   0  0  0  0  0  0  0  0  0  0  0  0
   -0.4581   -3.1551    2.8779 N   0  0  0  0  0  0  0  0  0  0  0  0
   -0.8046   -4.1477    3.8683 C   0  0  2  0  0  0  0  0  0  0  0  0
   -0.9985   -5.4782    3.1529 C   0  0  0  0  0  0  0  0  0  0  0  0
   -1.2644   -5.5636    1.9558 O   0  0  0  0  0  0  0  0  0  0  0  0
   -2.0592   -3.7532    4.6318 C   0  0  0  0  0  0  0  0  0  0  0  0
   -0.8643   -3.2495    1.9517 H   0  0  0  0  0  0  0  0  0  0  0  0
    0.0470   -4.2215    4.5535 H   0  0  0  0  0  0  0  0  0  0  0  0
   -2.9231   -3.6742    3.9618 H   0  0  0  0  0  0  0  0  0  0  0  0
   -2.3043   -4.4925    5.4014 H   0  0  0  0  0  0  0  0  0  0  0  0
   -1.9284   -2.7820    5.1212 H   0  0  0  0  0  0  0  0  0  0  0  0
   -0.8823   -6.5575    4.0176 N   0  0  0  0  0  0  0  0  0  0  0  0
   -1.0373   -7.9258    3.5819 C   0  0  0  0  0  0  0  0  0  0  0  0
   -0.6413   -6.3944    4.9908 H   0  0  0  0  0  0  0  0  0  0  0  0
   -2.0840   -8.2370    3.7145 H   0  0  0  0  0  0  0  0  0  0  0  0
   -0.7629   -8.0055    2.5197 H   0  0  0  0  0  0  0  0  0  0  0  0
   -0.3827   -8.5771    4.1796 H   0  0  0  0  0  0  0  0  0  0  0  0
  1  3  1  0  0  0  0
  1  7  1  0  0  0  0
  1  2  2  0  0  0  0
 30 31  1  0  0  0  0
 31 39  1  0  0  0  0
 31 32  2  0  0  0  0
  8  9  1  0  0  0  0
  9 17  1  0  0  0  0
  9 10  2  0  0  0  0
 18 19  1  0  0  0  0
 19 29  1  0  0  0  0
 19 20  2  0  0  0  0
 21 22  1  0  0  0  0
 22 23  1  0  0  0  0
 22 24  2  0  0  0  0
 30 33  1  0  0  0  0
  8 11  1  0  0  0  0
 39 40  1  0  0  0  0
 18 21  1  0  0  0  0
 29 30  1  0  0  0  0
  7  8  1  0  0  0  0
 17 18  1  0  0  0  0
  3  4  1  0  0  0  0
  3  5  1  0  0  0  0
  3  6  1  0  0  0  0
 33 36  1  0  0  0  0
 33 37  1  0  0  0  0
 33 38  1  0  0  0  0
 11 14  1  0  0  0  0
 11 15  1  0  0  0  0
 11 16  1  0  0  0  0
 40 42  1  0  0  0  0
 40 43  1  0  0  0  0
 40 44  1  0  0  0  0
 21 27  1  0  0  0  0
 21 28  1  0  0  0  0
 30 35  1  0  0  0  0
  8 13  1  0  0  0  0
 18 26  1  0  0  0  0
 39 41  1  0  0  0  0
  7 12  1  0  0  0  0
 29 34  1  0  0  0  0
 17 25  1  0  0  0  0
M  CHG  1  23  -1
M  END
$$$$

  -OEChem-05262214473D

 44 43  0     1  0  0  0  0  0999 V2000
   -4.0256   -1.8030   -2.1581 C   0  0  0  0  0  0  0  0  0  0  0  0
   -3.7513   -2.6782   -2.9709 O   0  0  0  0  0  0  0  0  0  0  0  0
   -5.3491   -1.1169   -2.2339 C   0  0  0  0  0  0  0  0  0  0  0  0
   -5.3223   -0.2211   -2.8750 H   0  0  0  0  0  0  0  0  0  0  0  0
   -6.1322   -1.7605   -2.6658 H   0  0  0  0  0  0  0  0  0  0  0  0
   -5.7568   -0.7715   -1.2704 H   0  0  0  0  0  0  0  0  0  0  0  0
   -3.2124   -1.3578   -1.1289 N   0  0  0  0  0  0  0  0  0  0  0  0
   -1.8971   -1.8843   -0.8752 C   0  0  2  0  0  0  0  0  0  0  0  0
   -1.2676   -1.0599    0.2399 C   0  0  0  0  0  0  0  0  0  0  0  0
   -1.6270    0.0833    0.5138 O   0  0  0  0  0  0  0  0  0  0  0  0
   -1.0364   -1.8506   -2.1285 C   0  0  0  0  0  0  0  0  0  0  0  0
   -3.5631   -0.6202   -0.5206 H   0  0  0  0  0  0  0  0  0  0  0  0
   -2.0301   -2.9174   -0.5360 H   0  0  0  0  0  0  0  0  0  0  0  0
   -0.8921   -0.8236   -2.4833 H   0  0  0  0  0  0  0  0  0  0  0  0
   -0.0457   -2.2777   -1.9410 H   0  0  0  0  0  0  0  0  0  0  0  0
   -1.5052   -2.4193   -2.9387 H   0  0  0  0  0  0  0  0  0  0  0  0
   -0.2267   -1.7335    0.8672 N   0  0  0  0  0  0  0  0  0  0  0  0
    0.5363   -1.1590    1.9465 C   0  0  2  0  0  0  0  0  0  0  0  0
    0.3605   -2.0695    3.1564 C   0  0  0  0  0  0  0  0  0  0  0  0
    0.6177   -1.7150    4.3051 O   0  0  0  0  0  0  0  0  0  0  0  0
    0.0784    0.2607    2.2725 C   0  0  0  0  0  0  0  0  0  0  0  0
    0.3785    1.3331    1.2176 C   0  0  0  0  0  0  0  0  0  0  0  0
    1.4090    1.0987    0.5217 O   0  5  0  0  0  0  0  0  0  0  0  0
   -0.4129    2.3140    1.1675 O   0  0  0  0  0  0  0  0  0  0  0  0
   -0.0113   -2.6869    0.5854 H   0  0  0  0  0  0  0  0  0  0  0  0
    1.5864   -1.1745    1.6334 H   0  0  0  0  0  0  0  0  0  0  0  0
    0.5283    0.5852    3.2209 H   0  0  0  0  0  0  0  0  0  0  0  0
   -1.0088    0.2724    2.4249 H   0  0  0  0  0  0  0  0  0  0  0  0
   -0.1661   -3.3052    2.8073 N   0  0  0  0  0  0  0  0  0  0  0  0
   -0.4556   -4.3345    3.7784 C   0  0  2  0  0  0  0  0  0  0  0  0
   -0.2600   -5.6859    3.1039 C   0  0  0  0  0  0  0  0  0  0  0  0
   -0.3109   -5.8410    1.8855 O   0  0  0  0  0  0  0  0  0  0  0  0
   -1.8686   -4.1988    4.3241 C   0  0  0  0  0  0  0  0  0  0  0  0
   -0.3935   -3.4946    1.8356 H   0  0  0  0  0  0  0  0  0  0  0  0
    0.2743   -4.2204    4.5873 H   0  0  0  0  0  0  0  0  0  0  0  0
   -2.6138   -4.3103    3.5281 H   0  0  0  0  0  0  0  0  0  0  0  0
   -2.0767   -4.9624    5.0809 H   0  0  0  0  0  0  0  0  0  0  0  0
   -2.0166   -3.2151    4.7825 H   0  0  0  0  0  0  0  0  0  0  0  0
   -0.0649   -6.7056    4.0249 N   0  0  0  0  0  0  0  0  0  0  0  0
    0.1319   -8.0820    3.6342 C   0  0  0  0  0  0  0  0  0  0  0  0
   -0.0185   -6.4826    5.0148 H   0  0  0  0  0  0  0  0  0  0  0  0
   -0.8373   -8.6021    3.6209 H   0  0  0  0  0  0  0  0  0  0  0  0
    0.5807   -8.1175    2.6306 H   0  0  0  0  0  0  0  0  0  0  0  0
    0.8025   -8.5749    4.3534 H   0  0  0  0  0  0  0  0  0  0  0  0
  1  3  1  0  0  0  0
  1  7  1  0  0  0  0
  1  2  2  0  0  0  0
 30 31  1  0  0  0  0
 31 39  1  0  0  0  0
 31 32  2  0  0  0  0
  8  9  1  0  0  0  0
  9 17  1  0  0  0  0
  9 10  2  0  0  0  0
 18 19  1  0  0  0  0
 19 29  1  0  0  0  0
 19 20  2  0  0  0  0
 21 22  1  0  0  0  0
 22 23  1  0  0  0  0
 22 24  2  0  0  0  0
 30 33  1  0  0  0  0
  8 11  1  0  0  0  0
 39 40  1  0  0  0  0
 18 21  1  0  0  0  0
 29 30  1  0  0  0  0
  7  8  1  0  0  0  0
 17 18  1  0  0  0  0
  3  4  1  0  0  0  0
  3  5  1  0  0  0  0
  3  6  1  0  0  0  0
 33 36  1  0  0  0  0
 33 37  1  0  0  0  0
 33 38  1  0  0  0  0
 11 14  1  0  0  0  0
 11 15  1  0  0  0  0
 11 16  1  0  0  0  0
 40 42  1  0  0  0  0
 40 43  1  0  0  0  0
 40 44  1  0  0  0  0
 21 27  1  0  0  0  0
 21 28  1  0  0  0  0
 30 35  1  0  0  0  0
  8 13  1  0  0  0  0
 18 26  1  0  0  0  0
 39 41  1  0  0  0  0
  7 12  1  0  0  0  0
 29 34  1  0  0  0  0
 17 25  1  0  0  0  0
M  CHG  1  23  -1
M  END
$$$$

  -OEChem-05262214473D

 44 43  0     1  0  0  0  0  0999 V2000
   -4.0256   -1.8030   -2.1581 C   0  0  0  0  0  0  0  0  0  0  0  0
   -3.7513   -2.6782   -2.9709 O   0  0  0  0  0  0  0  0  0  0  0  0
   -5.3491   -1.1169   -2.2339 C   0  0  0  0  0  0  0  0  0  0  0  0
   -5.3223   -0.2211   -2.8750 H   0  0  0  0  0  0  0  0  0  0  0  0
   -6.1322   -1.7605   -2.6658 H   0  0  0  0  0  0  0  0  0  0  0  0
   -5.7568   -0.7715   -1.2704 H   0  0  0  0  0  0  0  0  0  0  0  0
   -3.2124   -1.3578   -1.1289 N   0  0  0  0  0  0  0  0  0  0  0  0
   -1.8971   -1.8843   -0.8752 C   0  0  2  0  0  0  0  0  0  0  0  0
   -1.2676   -1.0599    0.2399 C   0  0  0  0  0  0  0  0  0  0  0  0
   -1.6270    0.0833    0.5138 O   0  0  0  0  0  0  0  0  0  0  0  0
   -1.0364   -1.8506   -2.1285 C   0  0  0  0  0  0  0  0  0  0  0  0
   -3.5631   -0.6202   -0.5206 H   0  0  0  0  0  0  0  0  0  0  0  0
   -2.0301   -2.9174   -0.5360 H   0  0  0  0  0  0  0  0  0  0  0  0
   -0.8921   -0.8236   -2.4833 H   0  0  0  0  0  0  0  0  0  0  0  0
   -0.0457   -2.2777   -1.9410 H   0  0  0  0  0  0  0  0  0  0  0  0
   -1.5052   -2.4193   -2.9387 H   0  0  0  0  0  0  0  0  0  0  0  0
   -0.2267   -1.7335    0.8672 N   0  0  0  0  0  0  0  0  0  0  0  0
    0.5363   -1.1590    1.9465 C   0  0  2  0  0  0  0  0  0  0  0  0
    0.3605   -2.0695    3.1564 C   0  0  0  0  0  0  0  0  0  0  0  0
    0.3559   -1.6536    4.3133 O   0  0  0  0  0  0  0  0  0  0  0  0
    0.0784    0.2607    2.2725 C   0  0  0  0  0  0  0  0  0  0  0  0
    0.3785    1.3331    1.2176 C   0  0  0  0  0  0  0  0  0  0  0  0
    1.4090    1.0987    0.5217 O   0  5  0  0  0  0  0  0  0  0  0  0
   -0.4129    2.3140    1.1675 O   0  0  0  0  0  0  0  0  0  0  0  0
   -0.0113   -2.6869    0.5854 H   0  0  0  0  0  0  0  0  0  0  0  0
    1.5864   -1.1745    1.6334 H   0  0  0  0  0  0  0  0  0  0  0  0
    0.5283    0.5852    3.2209 H   0  0  0  0  0  0  0  0  0  0  0  0
   -1.0088    0.2724    2.4249 H   0  0  0  0  0  0  0  0  0  0  0  0
    0.1576   -3.3923    2.7888 N   0  0  0  0  0  0  0  0  0  0  0  0
   -0.0663   -4.4459    3.7512 C   0  0  2  0  0  0  0  0  0  0  0  0
    0.5036   -5.7363    3.1769 C   0  0  0  0  0  0  0  0  0  0  0  0
    0.6781   -5.9153    1.9733 O   0  0  0  0  0  0  0  0  0  0  0  0
   -1.5454   -4.5993    4.0697 C   0  0  0  0  0  0  0  0  0  0  0  0
    0.1295   -3.6381    1.8036 H   0  0  0  0  0  0  0  0  0  0  0  0
    0.4883   -4.1716    4.6552 H   0  0  0  0  0  0  0  0  0  0  0  0
   -2.1174   -4.8741    3.1759 H   0  0  0  0  0  0  0  0  0  0  0  0
   -1.7107   -5.3790    4.8206 H   0  0  0  0  0  0  0  0  0  0  0  0
   -1.9604   -3.6616    4.4547 H   0  0  0  0  0  0  0  0  0  0  0  0
    0.7540   -6.6804    4.1628 N   0  0  0  0  0  0  0  0  0  0  0  0
    1.2853   -7.9912    3.8701 C   0  0  0  0  0  0  0  0  0  0  0  0
    0.5974   -6.4392    5.1370 H   0  0  0  0  0  0  0  0  0  0  0  0
    0.4564   -8.7014    3.7341 H   0  0  0  0  0  0  0  0  0  0  0  0
    1.8845   -7.9464    2.9487 H   0  0  0  0  0  0  0  0  0  0  0  0
    1.9200   -8.3241    4.7045 H   0  0  0  0  0  0  0  0  0  0  0  0
  1  3  1  0  0  0  0
  1  7  1  0  0  0  0
  1  2  2  0  0  0  0
 30 31  1  0  0  0  0
 31 39  1  0  0  0  0
 31 32  2  0  0  0  0
  8  9  1  0  0  0  0
  9 17  1  0  0  0  0
  9 10  2  0  0  0  0
 18 19  1  0  0  0  0
 19 29  1  0  0  0  0
 19 20  2  0  0  0  0
 21 22  1  0  0  0  0
 22 23  1  0  0  0  0
 22 24  2  0  0  0  0
 30 33  1  0  0  0  0
  8 11  1  0  0  0  0
 39 40  1  0  0  0  0
 18 21  1  0  0  0  0
 29 30  1  0  0  0  0
  7  8  1  0  0  0  0
 17 18  1  0  0  0  0
  3  4  1  0  0  0  0
  3  5  1  0  0  0  0
  3  6  1  0  0  0  0
 33 36  1  0  0  0  0
 33 37  1  0  0  0  0
 33 38  1  0  0  0  0
 11 14  1  0  0  0  0
 11 15  1  0  0  0  0
 11 16  1  0  0  0  0
 40 42  1  0  0  0  0
 40 43  1  0  0  0  0
 40 44  1  0  0  0  0
 21 27  1  0  0  0  0
 21 28  1  0  0  0  0
 30 35  1  0  0  0  0
  8 13  1  0  0  0  0
 18 26  1  0  0  0  0
 39 41  1  0  0  0  0
  7 12  1  0  0  0  0
 29 34  1  0  0  0  0
 17 25  1  0  0  0  0
M  CHG  1  23  -1
M  END
$$$$

  -OEChem-05262214473D

 44 43  0     1  0  0  0  0  0999 V2000
   -4.0256   -1.8030   -2.1581 C   0  0  0  0  0  0  0  0  0  0  0  0
   -3.7513   -2.6782   -2.9709 O   0  0  0  0  0  0  0  0  0  0  0  0
   -5.3491   -1.1169   -2.2339 C   0  0  0  0  0  0  0  0  0  0  0  0
   -5.3223   -0.2211   -2.8750 H   0  0  0  0  0  0  0  0  0  0  0  0
   -6.1322   -1.7605   -2.6658 H   0  0  0  0  0  0  0  0  0  0  0  0
   -5.7568   -0.7715   -1.2704 H   0  0  0  0  0  0  0  0  0  0  0  0
   -3.2124   -1.3578   -1.1289 N   0  0  0  0  0  0  0  0  0  0  0  0
   -1.8971   -1.8843   -0.8752 C   0  0  2  0  0  0  0  0  0  0  0  0
   -1.2676   -1.0599    0.2399 C   0  0  0  0  0  0  0  0  0  0  0  0
   -1.6270    0.0833    0.5138 O   0  0  0  0  0  0  0  0  0  0  0  0
   -1.0364   -1.8506   -2.1285 C   0  0  0  0  0  0  0  0  0  0  0  0
   -3.5631   -0.6202   -0.5206 H   0  0  0  0  0  0  0  0  0  0  0  0
   -2.0301   -2.9174   -0.5360 H   0  0  0  0  0  0  0  0  0  0  0  0
   -0.8921   -0.8236   -2.4833 H   0  0  0  0  0  0  0  0  0  0  0  0
   -0.0457   -2.2777   -1.9410 H   0  0  0  0  0  0  0  0  0  0  0  0
   -1.5052   -2.4193   -2.9387 H   0  0  0  0  0  0  0  0  0  0  0  0
   -0.2267   -1.7335    0.8672 N   0  0  0  0  0  0  0  0  0  0  0  0
    0.5363   -1.1590    1.9465 C   0  0  2  0  0  0  0  0  0  0  0  0
    0.3605   -2.0695    3.1564 C   0  0  0  0  0  0  0  0  0  0  0  0
    0.0892   -1.6479    4.2789 O   0  0  0  0  0  0  0  0  0  0  0  0
    0.0784    0.2607    2.2725 C   0  0  0  0  0  0  0  0  0  0  0  0
    0.3785    1.3331    1.2176 C   0  0  0  0  0  0  0  0  0  0  0  0
    1.4090    1.0987    0.5217 O   0  5  0  0  0  0  0  0  0  0  0  0
   -0.4129    2.3140    1.1675 O   0  0  0  0  0  0  0  0  0  0  0  0
   -0.0113   -2.6869    0.5854 H   0  0  0  0  0  0  0  0  0  0  0  0
    1.5864   -1.1745    1.6334 H   0  0  0  0  0  0  0  0  0  0  0  0
    0.5283    0.5852    3.2209 H   0  0  0  0  0  0  0  0  0  0  0  0
   -1.0088    0.2724    2.4249 H   0  0  0  0  0  0  0  0  0  0  0  0
    0.4910   -3.4105    2.8235 N   0  0  0  0  0  0  0  0  0  0  0  0
    0.3369   -4.4744    3.7883 C   0  0  2  0  0  0  0  0  0  0  0  0
    1.2402   -5.6259    3.3669 C   0  0  0  0  0  0  0  0  0  0  0  0
    1.6350   -5.7812    2.2132 O   0  0  0  0  0  0  0  0  0  0  0  0
   -1.1115   -4.9274    3.8859 C   0  0  0  0  0  0  0  0  0  0  0  0
    0.6692   -3.6702    1.8578 H   0  0  0  0  0  0  0  0  0  0  0  0
    0.6746   -4.0785    4.7523 H   0  0  0  0  0  0  0  0  0  0  0  0
   -1.4676   -5.3272    2.9294 H   0  0  0  0  0  0  0  0  0  0  0  0
   -1.2314   -5.7140    4.6381 H   0  0  0  0  0  0  0  0  0  0  0  0
   -1.7638   -4.0912    4.1600 H   0  0  0  0  0  0  0  0  0  0  0  0
    1.5185   -6.4839    4.4218 N   0  0  0  0  0  0  0  0  0  0  0  0
    2.3443   -7.6595    4.2735 C   0  0  0  0  0  0  0  0  0  0  0  0
    1.1645   -6.2671    5.3489 H   0  0  0  0  0  0  0  0  0  0  0  0
    1.7089   -8.5282    4.0463 H   0  0  0  0  0  0  0  0  0  0  0  0
    3.0596   -7.5038    3.4525 H   0  0  0  0  0  0  0  0  0  0  0  0
    2.8937   -7.8418    5.2089 H   0  0  0  0  0  0  0  0  0  0  0  0
  1  3  1  0  0  0  0
  1  7  1  0  0  0  0
  1  2  2  0  0  0  0
 30 31  1  0  0  0  0
 31 39  1  0  0  0  0
 31 32  2  0  0  0  0
  8  9  1  0  0  0  0
  9 17  1  0  0  0  0
  9 10  2  0  0  0  0
 18 19  1  0  0  0  0
 19 29  1  0  0  0  0
 19 20  2  0  0  0  0
 21 22  1  0  0  0  0
 22 23  1  0  0  0  0
 22 24  2  0  0  0  0
 30 33  1  0  0  0  0
  8 11  1  0  0  0  0
 39 40  1  0  0  0  0
 18 21  1  0  0  0  0
 29 30  1  0  0  0  0
  7  8  1  0  0  0  0
 17 18  1  0  0  0  0
  3  4  1  0  0  0  0
  3  5  1  0  0  0  0
  3  6  1  0  0  0  0
 33 36  1  0  0  0  0
 33 37  1  0  0  0  0
 33 38  1  0  0  0  0
 11 14  1  0  0  0  0
 11 15  1  0  0  0  0
 11 16  1  0  0  0  0
 40 42  1  0  0  0  0
 40 43  1  0  0  0  0
 40 44  1  0  0  0  0
 21 27  1  0  0  0  0
 21 28  1  0  0  0  0
 30 35  1  0  0  0  0
  8 13  1  0  0  0  0
 18 26  1  0  0  0  0
 39 41  1  0  0  0  0
  7 12  1  0  0  0  0
 29 34  1  0  0  0  0
 17 25  1  0  0  0  0
M  CHG  1  23  -1
M  END
$$$$

  -OEChem-05262214473D

 44 43  0     1  0  0  0  0  0999 V2000
   -4.0256   -1.8030   -2.1581 C   0  0  0  0  0  0  0  0  0  0  0  0
   -3.7513   -2.6782   -2.9709 O   0  0  0  0  0  0  0  0  0  0  0  0
   -5.3491   -1.1169   -2.2339 C   0  0  0  0  0  0  0  0  0  0  0  0
   -5.3223   -0.2211   -2.8750 H   0  0  0  0  0  0  0  0  0  0  0  0
   -6.1322   -1.7605   -2.6658 H   0  0  0  0  0  0  0  0  0  0  0  0
   -5.7568   -0.7715   -1.2704 H   0  0  0  0  0  0  0  0  0  0  0  0
   -3.2124   -1.3578   -1.1289 N   0  0  0  0  0  0  0  0  0  0  0  0
   -1.8971   -1.8843   -0.8752 C   0  0  2  0  0  0  0  0  0  0  0  0
   -1.2676   -1.0599    0.2399 C   0  0  0  0  0  0  0  0  0  0  0  0
   -1.6270    0.0833    0.5138 O   0  0  0  0  0  0  0  0  0  0  0  0
   -1.0364   -1.8506   -2.1285 C   0  0  0  0  0  0  0  0  0  0  0  0
   -3.5631   -0.6202   -0.5206 H   0  0  0  0  0  0  0  0  0  0  0  0
   -2.0301   -2.9174   -0.5360 H   0  0  0  0  0  0  0  0  0  0  0  0
   -0.8921   -0.8236   -2.4833 H   0  0  0  0  0  0  0  0  0  0  0  0
   -0.0457   -2.2777   -1.9410 H   0  0  0  0  0  0  0  0  0  0  0  0
   -1.5052   -2.4193   -2.9387 H   0  0  0  0  0  0  0  0  0  0  0  0
   -0.2267   -1.7335    0.8672 N   0  0  0  0  0  0  0  0  0  0  0  0
    0.5363   -1.1590    1.9465 C   0  0  2  0  0  0  0  0  0  0  0  0
    0.3605   -2.0695    3.1564 C   0  0  0  0  0  0  0  0  0  0  0  0
   -0.1643   -1.6981    4.2042 O   0  0  0  0  0  0  0  0  0  0  0  0
    0.0784    0.2607    2.2725 C   0  0  0  0  0  0  0  0  0  0  0  0
    0.3785    1.3331    1.2176 C   0  0  0  0  0  0  0  0  0  0  0  0
    1.4090    1.0987    0.5217 O   0  5  0  0  0  0  0  0  0  0  0  0
   -0.4129    2.3140    1.1675 O   0  0  0  0  0  0  0  0  0  0  0  0
   -0.0113   -2.6869    0.5854 H   0  0  0  0  0  0  0  0  0  0  0  0
    1.5864   -1.1745    1.6334 H   0  0  0  0  0  0  0  0  0  0  0  0
    0.5283    0.5852    3.2209 H   0  0  0  0  0  0  0  0  0  0  0  0
   -1.0088    0.2724    2.4249 H   0  0  0  0  0  0  0  0  0  0  0  0
    0.8115   -3.3586    2.9092 N   0  0  0  0  0  0  0  0  0  0  0  0
    0.7265   -4.4179    3.8874 C   0  0  2  0  0  0  0  0  0  0  0  0
    1.8997   -5.3623    3.6611 C   0  0  0  0  0  0  0  0  0  0  0  0
    2.4947   -5.4479    2.5889 O   0  0  0  0  0  0  0  0  0  0  0  0
   -0.5967   -5.1606    3.7851 C   0  0  0  0  0  0  0  0  0  0  0  0
    1.1887   -3.5888    1.9946 H   0  0  0  0  0  0  0  0  0  0  0  0
    0.8203   -3.9473    4.8722 H   0  0  0  0  0  0  0  0  0  0  0  0
   -0.7087   -5.6387    2.8052 H   0  0  0  0  0  0  0  0  0  0  0  0
   -0.6714   -5.9446    4.5459 H   0  0  0  0  0  0  0  0  0  0  0  0
   -1.4400   -4.4745    3.9186 H   0  0  0  0  0  0  0  0  0  0  0  0
    2.1765   -6.1292    4.7842 N   0  0  0  0  0  0  0  0  0  0  0  0
    3.2366   -7.1095    4.8170 C   0  0  0  0  0  0  0  0  0  0  0  0
    1.6442   -5.9781    5.6361 H   0  0  0  0  0  0  0  0  0  0  0  0
    2.8349   -8.0943    4.5364 H   0  0  0  0  0  0  0  0  0  0  0  0
    4.0257   -6.8198    4.1075 H   0  0  0  0  0  0  0  0  0  0  0  0
    3.6571   -7.1608    5.8321 H   0  0  0  0  0  0  0  0  0  0  0  0
  1  3  1  0  0  0  0
  1  7  1  0  0  0  0
  1  2  2  0  0  0  0
 30 31  1  0  0  0  0
 31 39  1  0  0  0  0
 31 32  2  0  0  0  0
  8  9  1  0  0  0  0
  9 17  1  0  0  0  0
  9 10  2  0  0  0  0
 18 19  1  0  0  0  0
 19 29  1  0  0  0  0
 19 20  2  0  0  0  0
 21 22  1  0  0  0  0
 22 23  1  0  0  0  0
 22 24  2  0  0  0  0
 30 33  1  0  0  0  0
  8 11  1  0  0  0  0
 39 40  1  0  0  0  0
 18 21  1  0  0  0  0
 29 30  1  0  0  0  0
  7  8  1  0  0  0  0
 17 18  1  0  0  0  0
  3  4  1  0  0  0  0
  3  5  1  0  0  0  0
  3  6  1  0  0  0  0
 33 36  1  0  0  0  0
 33 37  1  0  0  0  0
 33 38  1  0  0  0  0
 11 14  1  0  0  0  0
 11 15  1  0  0  0  0
 11 16  1  0  0  0  0
 40 42  1  0  0  0  0
 40 43  1  0  0  0  0
 40 44  1  0  0  0  0
 21 27  1  0  0  0  0
 21 28  1  0  0  0  0
 30 35  1  0  0  0  0
  8 13  1  0  0  0  0
 18 26  1  0  0  0  0
 39 41  1  0  0  0  0
  7 12  1  0  0  0  0
 29 34  1  0  0  0  0
 17 25  1  0  0  0  0
M  CHG  1  23  -1
M  END
$$$$

  -OEChem-05262214473D

 44 43  0     1  0  0  0  0  0999 V2000
   -4.0256   -1.8030   -2.1581 C   0  0  0  0  0  0  0  0  0  0  0  0
   -3.7513   -2.6782   -2.9709 O   0  0  0  0  0  0  0  0  0  0  0  0
   -5.3491   -1.1169   -2.2339 C   0  0  0  0  0  0  0  0  0  0  0  0
   -5.3223   -0.2211   -2.8750 H   0  0  0  0  0  0  0  0  0  0  0  0
   -6.1322   -1.7605   -2.6658 H   0  0  0  0  0  0  0  0  0  0  0  0
   -5.7568   -0.7715   -1.2704 H   0  0  0  0  0  0  0  0  0  0  0  0
   -3.2124   -1.3578   -1.1289 N   0  0  0  0  0  0  0  0  0  0  0  0
   -1.8971   -1.8843   -0.8752 C   0  0  2  0  0  0  0  0  0  0  0  0
   -1.2676   -1.0599    0.2399 C   0  0  0  0  0  0  0  0  0  0  0  0
   -1.6270    0.0833    0.5138 O   0  0  0  0  0  0  0  0  0  0  0  0
   -1.0364   -1.8506   -2.1285 C   0  0  0  0  0  0  0  0  0  0  0  0
   -3.5631   -0.6202   -0.5206 H   0  0  0  0  0  0  0  0  0  0  0  0
   -2.0301   -2.9174   -0.5360 H   0  0  0  0  0  0  0  0  0  0  0  0
   -0.8921   -0.8236   -2.4833 H   0  0  0  0  0  0  0  0  0  0  0  0
   -0.0457   -2.2777   -1.9410 H   0  0  0  0  0  0  0  0  0  0  0  0
   -1.5052   -2.4193   -2.9387 H   0  0  0  0  0  0  0  0  0  0  0  0
   -0.2267   -1.7335    0.8672 N   0  0  0  0  0  0  0  0  0  0  0  0
    0.5363   -1.1590    1.9465 C   0  0  2  0  0  0  0  0  0  0  0  0
    0.3605   -2.0695    3.1564 C   0  0  0  0  0  0  0  0  0  0  0  0
   -0.3873   -1.8010    4.0944 O   0  0  0  0  0  0  0  0  0  0  0  0
    0.0784    0.2607    2.2725 C   0  0  0  0  0  0  0  0  0  0  0  0
    0.3785    1.3331    1.2176 C   0  0  0  0  0  0  0  0  0  0  0  0
    1.4090    1.0987    0.5217 O   0  5  0  0  0  0  0  0  0  0  0  0
   -0.4129    2.3140    1.1675 O   0  0  0  0  0  0  0  0  0  0  0  0
   -0.0113   -2.6869    0.5854 H   0  0  0  0  0  0  0  0  0  0  0  0
    1.5864   -1.1745    1.6334 H   0  0  0  0  0  0  0  0  0  0  0  0
    0.5283    0.5852    3.2209 H   0  0  0  0  0  0  0  0  0  0  0  0
   -1.0088    0.2724    2.4249 H   0  0  0  0  0  0  0  0  0  0  0  0
    1.0971   -3.2400    3.0399 N   0  0  0  0  0  0  0  0  0  0  0  0
    1.0758   -4.2804    4.0416 C   0  0  2  0  0  0  0  0  0  0  0  0
    2.4371   -4.9634    4.0393 C   0  0  0  0  0  0  0  0  0  0  0  0
    3.1985   -4.9382    3.0746 O   0  0  0  0  0  0  0  0  0  0  0  0
   -0.0359   -5.2831    3.7744 C   0  0  0  0  0  0  0  0  0  0  0  0
    1.6526   -3.3993    2.2045 H   0  0  0  0  0  0  0  0  0  0  0  0
    0.9157   -3.7871    5.0065 H   0  0  0  0  0  0  0  0  0  0  0  0
    0.1075   -5.7875    2.8118 H   0  0  0  0  0  0  0  0  0  0  0  0
   -0.0688   -6.0551    4.5503 H   0  0  0  0  0  0  0  0  0  0  0  0
   -1.0113   -4.7855    3.7468 H   0  0  0  0  0  0  0  0  0  0  0  0
    2.6832   -5.6406    5.2255 N   0  0  0  0  0  0  0  0  0  0  0  0
    3.9016   -6.3787    5.4635 C   0  0  0  0  0  0  0  0  0  0  0  0
    2.0038   -5.5917    5.9790 H   0  0  0  0  0  0  0  0  0  0  0  0
    3.7576   -7.4292    5.1709 H   0  0  0  0  0  0  0  0  0  0  0  0
    4.7173   -5.9411    4.8691 H   0  0  0  0  0  0  0  0  0  0  0  0
    4.1583   -6.3277    6.5319 H   0  0  0  0  0  0  0  0  0  0  0  0
  1  3  1  0  0  0  0
  1  7  1  0  0  0  0
  1  2  2  0  0  0  0
 30 31  1  0  0  0  0
 31 39  1  0  0  0  0
 31 32  2  0  0  0  0
  8  9  1  0  0  0  0
  9 17  1  0  0  0  0
  9 10  2  0  0  0  0
 18 19  1  0  0  0  0
 19 29  1  0  0  0  0
 19 20  2  0  0  0  0
 21 22  1  0  0  0  0
 22 23  1  0  0  0  0
 22 24  2  0  0  0  0
 30 33  1  0  0  0  0
  8 11  1  0  0  0  0
 39 40  1  0  0  0  0
 18 21  1  0  0  0  0
 29 30  1  0  0  0  0
  7  8  1  0  0  0  0
 17 18  1  0  0  0  0
  3  4  1  0  0  0  0
  3  5  1  0  0  0  0
  3  6  1  0  0  0  0
 33 36  1  0  0  0  0
 33 37  1  0  0  0  0
 33 38  1  0  0  0  0
 11 14  1  0  0  0  0
 11 15  1  0  0  0  0
 11 16  1  0  0  0  0
 40 42  1  0  0  0  0
 40 43  1  0  0  0  0
 40 44  1  0  0  0  0
 21 27  1  0  0  0  0
 21 28  1  0  0  0  0
 30 35  1  0  0  0  0
  8 13  1  0  0  0  0
 18 26  1  0  0  0  0
 39 41  1  0  0  0  0
  7 12  1  0  0  0  0
 29 34  1  0  0  0  0
 17 25  1  0  0  0  0
M  CHG  1  23  -1
M  END
$$$$

  -OEChem-05262214473D

 44 43  0     1  0  0  0  0  0999 V2000
   -4.0256   -1.8030   -2.1581 C   0  0  0  0  0  0  0  0  0  0  0  0
   -3.7513   -2.6782   -2.9709 O   0  0  0  0  0  0  0  0  0  0  0  0
   -5.3491   -1.1169   -2.2339 C   0  0  0  0  0  0  0  0  0  0  0  0
   -5.3223   -0.2211   -2.8750 H   0  0  0  0  0  0  0  0  0  0  0  0
   -6.1322   -1.7605   -2.6658 H   0  0  0  0  0  0  0  0  0  0  0  0
   -5.7568   -0.7715   -1.2704 H   0  0  0  0  0  0  0  0  0  0  0  0
   -3.2124   -1.3578   -1.1289 N   0  0  0  0  0  0  0  0  0  0  0  0
   -1.8971   -1.8843   -0.8752 C   0  0  2  0  0  0  0  0  0  0  0  0
   -1.2676   -1.0599    0.2399 C   0  0  0  0  0  0  0  0  0  0  0  0
   -1.6270    0.0833    0.5138 O   0  0  0  0  0  0  0  0  0  0  0  0
   -1.0364   -1.8506   -2.1285 C   0  0  0  0  0  0  0  0  0  0  0  0
   -3.5631   -0.6202   -0.5206 H   0  0  0  0  0  0  0  0  0  0  0  0
   -2.0301   -2.9174   -0.5360 H   0  0  0  0  0  0  0  0  0  0  0  0
   -0.8921   -0.8236   -2.4833 H   0  0  0  0  0  0  0  0  0  0  0  0
   -0.0457   -2.2777   -1.9410 H   0  0  0  0  0  0  0  0  0  0  0  0
   -1.5052   -2.4193   -2.9387 H   0  0  0  0  0  0  0  0  0  0  0  0
   -0.2267   -1.7335    0.8672 N   0  0  0  0  0  0  0  0  0  0  0  0
    0.5363   -1.1590    1.9465 C   0  0  2  0  0  0  0  0  0  0  0  0
    0.3605   -2.0695    3.1564 C   0  0  0  0  0  0  0  0  0  0  0  0
   -0.5646   -1.9494    3.9570 O   0  0  0  0  0  0  0  0  0  0  0  0
    0.0784    0.2607    2.2725 C   0  0  0  0  0  0  0  0  0  0  0  0
    0.3785    1.3331    1.2176 C   0  0  0  0  0  0  0  0  0  0  0  0
    1.4090    1.0987    0.5217 O   0  5  0  0  0  0  0  0  0  0  0  0
   -0.4129    2.3140    1.1675 O   0  0  0  0  0  0  0  0  0  0  0  0
   -0.0113   -2.6869    0.5854 H   0  0  0  0  0  0  0  0  0  0  0  0
    1.5864   -1.1745    1.6334 H   0  0  0  0  0  0  0  0  0  0  0  0
    0.5283    0.5852    3.2209 H   0  0  0  0  0  0  0  0  0  0  0  0
   -1.0088    0.2724    2.4249 H   0  0  0  0  0  0  0  0  0  0  0  0
    1.3284   -3.0629    3.2067 N   0  0  0  0  0  0  0  0  0  0  0  0
    1.3612   -4.0712    4.2405 C   0  0  2  0  0  0  0  0  0  0  0  0
    2.8157   -4.4564    4.4758 C   0  0  0  0  0  0  0  0  0  0  0  0
    3.6986   -4.2868    3.6375 O   0  0  0  0  0  0  0  0  0  0  0  0
    0.5326   -5.2866    3.8544 C   0  0  0  0  0  0  0  0  0  0  0  0
    2.0294   -3.1147    2.4734 H   0  0  0  0  0  0  0  0  0  0  0  0
    0.9541   -3.6088    5.1463 H   0  0  0  0  0  0  0  0  0  0  0  0
    0.9254   -5.7633    2.9488 H   0  0  0  0  0  0  0  0  0  0  0  0
    0.5352   -6.0379    4.6510 H   0  0  0  0  0  0  0  0  0  0  0  0
   -0.5067   -5.0029    3.6565 H   0  0  0  0  0  0  0  0  0  0  0  0
    3.0040   -5.0514    5.7154 N   0  0  0  0  0  0  0  0  0  0  0  0
    4.2939   -5.5169    6.1689 C   0  0  0  0  0  0  0  0  0  0  0  0
    2.2187   -5.1345    6.3543 H   0  0  0  0  0  0  0  0  0  0  0  0
    4.4142   -6.5783    5.9065 H   0  0  0  0  0  0  0  0  0  0  0  0
    5.0870   -4.9276    5.6855 H   0  0  0  0  0  0  0  0  0  0  0  0
    4.3631   -5.3991    7.2604 H   0  0  0  0  0  0  0  0  0  0  0  0
  1  3  1  0  0  0  0
  1  7  1  0  0  0  0
  1  2  2  0  0  0  0
 30 31  1  0  0  0  0
 31 39  1  0  0  0  0
 31 32  2  0  0  0  0
  8  9  1  0  0  0  0
  9 17  1  0  0  0  0
  9 10  2  0  0  0  0
 18 19  1  0  0  0  0
 19 29  1  0  0  0  0
 19 20  2  0  0  0  0
 21 22  1  0  0  0  0
 22 23  1  0  0  0  0
 22 24  2  0  0  0  0
 30 33  1  0  0  0  0
  8 11  1  0  0  0  0
 39 40  1  0  0  0  0
 18 21  1  0  0  0  0
 29 30  1  0  0  0  0
  7  8  1  0  0  0  0
 17 18  1  0  0  0  0
  3  4  1  0  0  0  0
  3  5  1  0  0  0  0
  3  6  1  0  0  0  0
 33 36  1  0  0  0  0
 33 37  1  0  0  0  0
 33 38  1  0  0  0  0
 11 14  1  0  0  0  0
 11 15  1  0  0  0  0
 11 16  1  0  0  0  0
 40 42  1  0  0  0  0
 40 43  1  0  0  0  0
 40 44  1  0  0  0  0
 21 27  1  0  0  0  0
 21 28  1  0  0  0  0
 30 35  1  0  0  0  0
  8 13  1  0  0  0  0
 18 26  1  0  0  0  0
 39 41  1  0  0  0  0
  7 12  1  0  0  0  0
 29 34  1  0  0  0  0
 17 25  1  0  0  0  0
M  CHG  1  23  -1
M  END
$$$$

  -OEChem-05262214473D

 44 43  0     1  0  0  0  0  0999 V2000
   -4.0256   -1.8030   -2.1581 C   0  0  0  0  0  0  0  0  0  0  0  0
   -3.7513   -2.6782   -2.9709 O   0  0  0  0  0  0  0  0  0  0  0  0
   -5.3491   -1.1169   -2.2339 C   0  0  0  0  0  0  0  0  0  0  0  0
   -5.3223   -0.2211   -2.8750 H   0  0  0  0  0  0  0  0  0  0  0  0
   -6.1322   -1.7605   -2.6658 H   0  0  0  0  0  0  0  0  0  0  0  0
   -5.7568   -0.7715   -1.2704 H   0  0  0  0  0  0  0  0  0  0  0  0
   -3.2124   -1.3578   -1.1289 N   0  0  0  0  0  0  0  0  0  0  0  0
   -1.8971   -1.8843   -0.8752 C   0  0  2  0  0  0  0  0  0  0  0  0
   -1.2676   -1.0599    0.2399 C   0  0  0  0  0  0  0  0  0  0  0  0
   -1.6270    0.0833    0.5138 O   0  0  0  0  0  0  0  0  0  0  0  0
   -1.0364   -1.8506   -2.1285 C   0  0  0  0  0  0  0  0  0  0  0  0
   -3.5631   -0.6202   -0.5206 H   0  0  0  0  0  0  0  0  0  0  0  0
   -2.0301   -2.9174   -0.5360 H   0  0  0  0  0  0  0  0  0  0  0  0
   -0.8921   -0.8236   -2.4833 H   0  0  0  0  0  0  0  0  0  0  0  0
   -0.0457   -2.2777   -1.9410 H   0  0  0  0  0  0  0  0  0  0  0  0
   -1.5052   -2.4193   -2.9387 H   0  0  0  0  0  0  0  0  0  0  0  0
   -0.2267   -1.7335    0.8672 N   0  0  0  0  0  0  0  0  0  0  0  0
    0.5363   -1.1590    1.9465 C   0  0  2  0  0  0  0  0  0  0  0  0
    0.3605   -2.0695    3.1564 C   0  0  0  0  0  0  0  0  0  0  0  0
   -0.6841   -2.1333    3.8013 O   0  0  0  0  0  0  0  0  0  0  0  0
    0.0784    0.2607    2.2725 C   0  0  0  0  0  0  0  0  0  0  0  0
    0.3785    1.3331    1.2176 C   0  0  0  0  0  0  0  0  0  0  0  0
    1.4090    1.0987    0.5217 O   0  5  0  0  0  0  0  0  0  0  0  0
   -0.4129    2.3140    1.1675 O   0  0  0  0  0  0  0  0  0  0  0  0
   -0.0113   -2.6869    0.5854 H   0  0  0  0  0  0  0  0  0  0  0  0
    1.5864   -1.1745    1.6334 H   0  0  0  0  0  0  0  0  0  0  0  0
    0.5283    0.5852    3.2209 H   0  0  0  0  0  0  0  0  0  0  0  0
   -1.0088    0.2724    2.4249 H   0  0  0  0  0  0  0  0  0  0  0  0
    1.4897   -2.8393    3.3984 N   0  0  0  0  0  0  0  0  0  0  0  0
    1.5631   -3.8046    4.4704 C   0  0  2  0  0  0  0  0  0  0  0  0
    3.0099   -3.8759    4.9408 C   0  0  0  0  0  0  0  0  0  0  0  0
    3.9608   -3.5380    4.2390 O   0  0  0  0  0  0  0  0  0  0  0  0
    1.0701   -5.1708    4.0196 C   0  0  0  0  0  0  0  0  0  0  0  0
    2.2933   -2.7544    2.7829 H   0  0  0  0  0  0  0  0  0  0  0  0
    0.9329   -3.4245    5.2819 H   0  0  0  0  0  0  0  0  0  0  0  0
    1.6893   -5.5678    3.2069 H   0  0  0  0  0  0  0  0  0  0  0  0
    1.0996   -5.8941    4.8411 H   0  0  0  0  0  0  0  0  0  0  0  0
    0.0393   -5.1119    3.6538 H   0  0  0  0  0  0  0  0  0  0  0  0
    3.1172   -4.4018    6.2207 N   0  0  0  0  0  0  0  0  0  0  0  0
    4.3867   -4.5829    6.8853 C   0  0  0  0  0  0  0  0  0  0  0  0
    2.2744   -4.6374    6.7364 H   0  0  0  0  0  0  0  0  0  0  0  0
    4.7599   -5.5996    6.6932 H   0  0  0  0  0  0  0  0  0  0  0  0
    5.1097   -3.8483    6.5009 H   0  0  0  0  0  0  0  0  0  0  0  0
    4.2575   -4.4383    7.9680 H   0  0  0  0  0  0  0  0  0  0  0  0
  1  3  1  0  0  0  0
  1  7  1  0  0  0  0
  1  2  2  0  0  0  0
 30 31  1  0  0  0  0
 31 39  1  0  0  0  0
 31 32  2  0  0  0  0
  8  9  1  0  0  0  0
  9 17  1  0  0  0  0
  9 10  2  0  0  0  0
 18 19  1  0  0  0  0
 19 29  1  0  0  0  0
 19 20  2  0  0  0  0
 21 22  1  0  0  0  0
 22 23  1  0  0  0  0
 22 24  2  0  0  0  0
 30 33  1  0  0  0  0
  8 11  1  0  0  0  0
 39 40  1  0  0  0  0
 18 21  1  0  0  0  0
 29 30  1  0  0  0  0
  7  8  1  0  0  0  0
 17 18  1  0  0  0  0
  3  4  1  0  0  0  0
  3  5  1  0  0  0  0
  3  6  1  0  0  0  0
 33 36  1  0  0  0  0
 33 37  1  0  0  0  0
 33 38  1  0  0  0  0
 11 14  1  0  0  0  0
 11 15  1  0  0  0  0
 11 16  1  0  0  0  0
 40 42  1  0  0  0  0
 40 43  1  0  0  0  0
 40 44  1  0  0  0  0
 21 27  1  0  0  0  0
 21 28  1  0  0  0  0
 30 35  1  0  0  0  0
  8 13  1  0  0  0  0
 18 26  1  0  0  0  0
 39 41  1  0  0  0  0
  7 12  1  0  0  0  0
 29 34  1  0  0  0  0
 17 25  1  0  0  0  0
M  CHG  1  23  -1
M  END
$$$$

  -OEChem-05262214473D

 44 43  0     1  0  0  0  0  0999 V2000
   -4.0256   -1.8030   -2.1581 C   0  0  0  0  0  0  0  0  0  0  0  0
   -3.7513   -2.6782   -2.9709 O   0  0  0  0  0  0  0  0  0  0  0  0
   -5.3491   -1.1169   -2.2339 C   0  0  0  0  0  0  0  0  0  0  0  0
   -5.3223   -0.2211   -2.8750 H   0  0  0  0  0  0  0  0  0  0  0  0
   -6.1322   -1.7605   -2.6658 H   0  0  0  0  0  0  0  0  0  0  0  0
   -5.7568   -0.7715   -1.2704 H   0  0  0  0  0  0  0  0  0  0  0  0
   -3.2124   -1.3578   -1.1289 N   0  0  0  0  0  0  0  0  0  0  0  0
   -1.8971   -1.8843   -0.8752 C   0  0  2  0  0  0  0  0  0  0  0  0
   -1.2676   -1.0599    0.2399 C   0  0  0  0  0  0  0  0  0  0  0  0
   -1.6270    0.0833    0.5138 O   0  0  0  0  0  0  0  0  0  0  0  0
   -1.0364   -1.8506   -2.1285 C   0  0  0  0  0  0  0  0  0  0  0  0
   -3.5631   -0.6202   -0.5206 H   0  0  0  0  0  0  0  0  0  0  0  0
   -2.0301   -2.9174   -0.5360 H   0  0  0  0  0  0  0  0  0  0  0  0
   -0.8921   -0.8236   -2.4833 H   0  0  0  0  0  0  0  0  0  0  0  0
   -0.0457   -2.2777   -1.9410 H   0  0  0  0  0  0  0  0  0  0  0  0
   -1.5052   -2.4193   -2.9387 H   0  0  0  0  0  0  0  0  0  0  0  0
   -0.2267   -1.7335    0.8672 N   0  0  0  0  0  0  0  0  0  0  0  0
    0.5363   -1.1590    1.9465 C   0  0  2  0  0  0  0  0  0  0  0  0
    0.3605   -2.0695    3.1564 C   0  0  0  0  0  0  0  0  0  0  0  0
   -0.7377   -2.3401    3.6378 O   0  0  0  0  0  0  0  0  0  0  0  0
    0.0784    0.2607    2.2725 C   0  0  0  0  0  0  0  0  0  0  0  0
    0.3785    1.3331    1.2176 C   0  0  0  0  0  0  0  0  0  0  0  0
    1.4090    1.0987    0.5217 O   0  5  0  0  0  0  0  0  0  0  0  0
   -0.4129    2.3140    1.1675 O   0  0  0  0  0  0  0  0  0  0  0  0
   -0.0113   -2.6869    0.5854 H   0  0  0  0  0  0  0  0  0  0  0  0
    1.5864   -1.1745    1.6334 H   0  0  0  0  0  0  0  0  0  0  0  0
    0.5283    0.5852    3.2209 H   0  0  0  0  0  0  0  0  0  0  0  0
   -1.0088    0.2724    2.4249 H   0  0  0  0  0  0  0  0  0  0  0  0
    1.5699   -2.5845    3.6018 N   0  0  0  0  0  0  0  0  0  0  0  0
    1.6678   -3.4987    4.7158 C   0  0  2  0  0  0  0  0  0  0  0  0
    3.0063   -3.2614    5.4027 C   0  0  0  0  0  0  0  0  0  0  0  0
    3.9673   -2.7430    4.8382 O   0  0  0  0  0  0  0  0  0  0  0  0
    1.5400   -4.9435    4.2589 C   0  0  0  0  0  0  0  0  0  0  0  0
    2.4263   -2.3429    3.1118 H   0  0  0  0  0  0  0  0  0  0  0  0
    0.8537   -3.2468    5.4041 H   0  0  0  0  0  0  0  0  0  0  0  0
    2.3471   -5.2143    3.5684 H   0  0  0  0  0  0  0  0  0  0  0  0
    1.5858   -5.6337    5.1077 H   0  0  0  0  0  0  0  0  0  0  0  0
    0.5896   -5.1052    3.7388 H   0  0  0  0  0  0  0  0  0  0  0  0
    3.0149   -3.7359    6.7069 N   0  0  0  0  0  0  0  0  0  0  0  0
    4.1737   -3.6402    7.5637 C   0  0  0  0  0  0  0  0  0  0  0  0
    2.1670   -4.1345    7.0993 H   0  0  0  0  0  0  0  0  0  0  0  0
    4.7712   -4.5597    7.4773 H   0  0  0  0  0  0  0  0  0  0  0  0
    4.7838   -2.7768    7.2599 H   0  0  0  0  0  0  0  0  0  0  0  0
    3.8487   -3.5108    8.6066 H   0  0  0  0  0  0  0  0  0  0  0  0
  1  3  1  0  0  0  0
  1  7  1  0  0  0  0
  1  2  2  0  0  0  0
 30 31  1  0  0  0  0
 31 39  1  0  0  0  0
 31 32  2  0  0  0  0
  8  9  1  0  0  0  0
  9 17  1  0  0  0  0
  9 10  2  0  0  0  0
 18 19  1  0  0  0  0
 19 29  1  0  0  0  0
 19 20  2  0  0  0  0
 21 22  1  0  0  0  0
 22 23  1  0  0  0  0
 22 24  2  0  0  0  0
 30 33  1  0  0  0  0
  8 11  1  0  0  0  0
 39 40  1  0  0  0  0
 18 21  1  0  0  0  0
 29 30  1  0  0  0  0
  7  8  1  0  0  0  0
 17 18  1  0  0  0  0
  3  4  1  0  0  0  0
  3  5  1  0  0  0  0
  3  6  1  0  0  0  0
 33 36  1  0  0  0  0
 33 37  1  0  0  0  0
 33 38  1  0  0  0  0
 11 14  1  0  0  0  0
 11 15  1  0  0  0  0
 11 16  1  0  0  0  0
 40 42  1  0  0  0  0
 40 43  1  0  0  0  0
 40 44  1  0  0  0  0
 21 27  1  0  0  0  0
 21 28  1  0  0  0  0
 30 35  1  0  0  0  0
  8 13  1  0  0  0  0
 18 26  1  0  0  0  0
 39 41  1  0  0  0  0
  7 12  1  0  0  0  0
 29 34  1  0  0  0  0
 17 25  1  0  0  0  0
M  CHG  1  23  -1
M  END
$$$$

  -OEChem-05262214473D

 44 43  0     1  0  0  0  0  0999 V2000
   -4.0256   -1.8030   -2.1581 C   0  0  0  0  0  0  0  0  0  0  0  0
   -3.7513   -2.6782   -2.9709 O   0  0  0  0  0  0  0  0  0  0  0  0
   -5.3491   -1.1169   -2.2339 C   0  0  0  0  0  0  0  0  0  0  0  0
   -5.3223   -0.2211   -2.8750 H   0  0  0  0  0  0  0  0  0  0  0  0
   -6.1322   -1.7605   -2.6658 H   0  0  0  0  0  0  0  0  0  0  0  0
   -5.7568   -0.7715   -1.2704 H   0  0  0  0  0  0  0  0  0  0  0  0
   -3.2124   -1.3578   -1.1289 N   0  0  0  0  0  0  0  0  0  0  0  0
   -1.8971   -1.8843   -0.8752 C   0  0  2  0  0  0  0  0  0  0  0  0
   -1.2676   -1.0599    0.2399 C   0  0  0  0  0  0  0  0  0  0  0  0
   -1.6270    0.0833    0.5138 O   0  0  0  0  0  0  0  0  0  0  0  0
   -1.0364   -1.8506   -2.1285 C   0  0  0  0  0  0  0  0  0  0  0  0
   -3.5631   -0.6202   -0.5206 H   0  0  0  0  0  0  0  0  0  0  0  0
   -2.0301   -2.9174   -0.5360 H   0  0  0  0  0  0  0  0  0  0  0  0
   -0.8921   -0.8236   -2.4833 H   0  0  0  0  0  0  0  0  0  0  0  0
   -0.0457   -2.2777   -1.9410 H   0  0  0  0  0  0  0  0  0  0  0  0
   -1.5052   -2.4193   -2.9387 H   0  0  0  0  0  0  0  0  0  0  0  0
   -0.2267   -1.7335    0.8672 N   0  0  0  0  0  0  0  0  0  0  0  0
    0.5363   -1.1590    1.9465 C   0  0  2  0  0  0  0  0  0  0  0  0
    0.3605   -2.0695    3.1564 C   0  0  0  0  0  0  0  0  0  0  0  0
   -0.7218   -2.5558    3.4779 O   0  0  0  0  0  0  0  0  0  0  0  0
    0.0784    0.2607    2.2725 C   0  0  0  0  0  0  0  0  0  0  0  0
    0.3785    1.3331    1.2176 C   0  0  0  0  0  0  0  0  0  0  0  0
    1.4090    1.0987    0.5217 O   0  5  0  0  0  0  0  0  0  0  0  0
   -0.4129    2.3140    1.1675 O   0  0  0  0  0  0  0  0  0  0  0  0
   -0.0113   -2.6869    0.5854 H   0  0  0  0  0  0  0  0  0  0  0  0
    1.5864   -1.1745    1.6334 H   0  0  0  0  0  0  0  0  0  0  0  0
    0.5283    0.5852    3.2209 H   0  0  0  0  0  0  0  0  0  0  0  0
   -1.0088    0.2724    2.4249 H   0  0  0  0  0  0  0  0  0  0  0  0
    1.5636   -2.3159    3.8030 N   0  0  0  0  0  0  0  0  0  0  0  0
    1.6682   -3.1744    4.9599 C   0  0  2  0  0  0  0  0  0  0  0  0
    2.8051   -2.6548    5.8299 C   0  0  0  0  0  0  0  0  0  0  0  0
    3.7176   -1.9558    5.3943 O   0  0  0  0  0  0  0  0  0  0  0  0
    1.9101   -4.6204    4.5558 C   0  0  0  0  0  0  0  0  0  0  0  0
    2.4194   -1.9083    3.4378 H   0  0  0  0  0  0  0  0  0  0  0  0
    0.7218   -3.0877    5.5046 H   0  0  0  0  0  0  0  0  0  0  0  0
    2.8540   -4.7270    4.0088 H   0  0  0  0  0  0  0  0  0  0  0  0
    1.9607   -5.2743    5.4327 H   0  0  0  0  0  0  0  0  0  0  0  0
    1.1065   -4.9831    3.9058 H   0  0  0  0  0  0  0  0  0  0  0  0
    2.7042   -3.0993    7.1408 N   0  0  0  0  0  0  0  0  0  0  0  0
    3.6695   -2.7532    8.1579 C   0  0  0  0  0  0  0  0  0  0  0  0
    1.9039   -3.6599    7.4181 H   0  0  0  0  0  0  0  0  0  0  0  0
    4.4472   -3.5296    8.2054 H   0  0  0  0  0  0  0  0  0  0  0  0
    4.1316   -1.7861    7.9107 H   0  0  0  0  0  0  0  0  0  0  0  0
    3.1647   -2.6798    9.1325 H   0  0  0  0  0  0  0  0  0  0  0  0
  1  3  1  0  0  0  0
  1  7  1  0  0  0  0
  1  2  2  0  0  0  0
 30 31  1  0  0  0  0
 31 39  1  0  0  0  0
 31 32  2  0  0  0  0
  8  9  1  0  0  0  0
  9 17  1  0  0  0  0
  9 10  2  0  0  0  0
 18 19  1  0  0  0  0
 19 29  1  0  0  0  0
 19 20  2  0  0  0  0
 21 22  1  0  0  0  0
 22 23  1  0  0  0  0
 22 24  2  0  0  0  0
 30 33  1  0  0  0  0
  8 11  1  0  0  0  0
 39 40  1  0  0  0  0
 18 21  1  0  0  0  0
 29 30  1  0  0  0  0
  7  8  1  0  0  0  0
 17 18  1  0  0  0  0
  3  4  1  0  0  0  0
  3  5  1  0  0  0  0
  3  6  1  0  0  0  0
 33 36  1  0  0  0  0
 33 37  1  0  0  0  0
 33 38  1  0  0  0  0
 11 14  1  0  0  0  0
 11 15  1  0  0  0  0
 11 16  1  0  0  0  0
 40 42  1  0  0  0  0
 40 43  1  0  0  0  0
 40 44  1  0  0  0  0
 21 27  1  0  0  0  0
 21 28  1  0  0  0  0
 30 35  1  0  0  0  0
  8 13  1  0  0  0  0
 18 26  1  0  0  0  0
 39 41  1  0  0  0  0
  7 12  1  0  0  0  0
 29 34  1  0  0  0  0
 17 25  1  0  0  0  0
M  CHG  1  23  -1
M  END
$$$$

  -OEChem-05262214473D

 44 43  0     1  0  0  0  0  0999 V2000
   -4.0256   -1.8030   -2.1581 C   0  0  0  0  0  0  0  0  0  0  0  0
   -3.7513   -2.6782   -2.9709 O   0  0  0  0  0  0  0  0  0  0  0  0
   -5.3491   -1.1169   -2.2339 C   0  0  0  0  0  0  0  0  0  0  0  0
   -5.3223   -0.2211   -2.8750 H   0  0  0  0  0  0  0  0  0  0  0  0
   -6.1322   -1.7605   -2.6658 H   0  0  0  0  0  0  0  0  0  0  0  0
   -5.7568   -0.7715   -1.2704 H   0  0  0  0  0  0  0  0  0  0  0  0
   -3.2124   -1.3578   -1.1289 N   0  0  0  0  0  0  0  0  0  0  0  0
   -1.8971   -1.8843   -0.8752 C   0  0  2  0  0  0  0  0  0  0  0  0
   -1.2676   -1.0599    0.2399 C   0  0  0  0  0  0  0  0  0  0  0  0
   -1.6270    0.0833    0.5138 O   0  0  0  0  0  0  0  0  0  0  0  0
   -1.0364   -1.8506   -2.1285 C   0  0  0  0  0  0  0  0  0  0  0  0
   -3.5631   -0.6202   -0.5206 H   0  0  0  0  0  0  0  0  0  0  0  0
   -2.0301   -2.9174   -0.5360 H   0  0  0  0  0  0  0  0  0  0  0  0
   -0.8921   -0.8236   -2.4833 H   0  0  0  0  0  0  0  0  0  0  0  0
   -0.0457   -2.2777   -1.9410 H   0  0  0  0  0  0  0  0  0  0  0  0
   -1.5052   -2.4193   -2.9387 H   0  0  0  0  0  0  0  0  0  0  0  0
   -0.2267   -1.7335    0.8672 N   0  0  0  0  0  0  0  0  0  0  0  0
    0.5363   -1.1590    1.9465 C   0  0  2  0  0  0  0  0  0  0  0  0
    0.3605   -2.0695    3.1564 C   0  0  0  0  0  0  0  0  0  0  0  0
   -0.6373   -2.7656    3.3323 O   0  0  0  0  0  0  0  0  0  0  0  0
    0.0784    0.2607    2.2725 C   0  0  0  0  0  0  0  0  0  0  0  0
    0.3785    1.3331    1.2176 C   0  0  0  0  0  0  0  0  0  0  0  0
    1.4090    1.0987    0.5217 O   0  5  0  0  0  0  0  0  0  0  0  0
   -0.4129    2.3140    1.1675 O   0  0  0  0  0  0  0  0  0  0  0  0
   -0.0113   -2.6869    0.5854 H   0  0  0  0  0  0  0  0  0  0  0  0
    1.5864   -1.1745    1.6334 H   0  0  0  0  0  0  0  0  0  0  0  0
    0.5283    0.5852    3.2209 H   0  0  0  0  0  0  0  0  0  0  0  0
   -1.0088    0.2724    2.4249 H   0  0  0  0  0  0  0  0  0  0  0  0
    1.4713   -2.0516    3.9884 N   0  0  0  0  0  0  0  0  0  0  0  0
    1.5642   -2.8538    5.1860 C   0  0  2  0  0  0  0  0  0  0  0  0
    2.4202   -2.0975    6.1934 C   0  0  0  0  0  0  0  0  0  0  0  0
    3.2287   -1.2301    5.8693 O   0  0  0  0  0  0  0  0  0  0  0  0
    2.1554   -4.2233    4.8902 C   0  0  0  0  0  0  0  0  0  0  0  0
    2.2731   -1.4802    3.7387 H   0  0  0  0  0  0  0  0  0  0  0  0
    0.5461   -2.9582    5.5766 H   0  0  0  0  0  0  0  0  0  0  0  0
    3.1755   -4.1390    4.4979 H   0  0  0  0  0  0  0  0  0  0  0  0
    2.1988   -4.8404    5.7937 H   0  0  0  0  0  0  0  0  0  0  0  0
    1.5550   -4.7539    4.1433 H   0  0  0  0  0  0  0  0  0  0  0  0
    2.2062   -2.5352    7.4929 N   0  0  0  0  0  0  0  0  0  0  0  0
    2.9083   -1.9822    8.6275 C   0  0  0  0  0  0  0  0  0  0  0  0
    1.5029   -3.2461    7.6713 H   0  0  0  0  0  0  0  0  0  0  0  0
    3.8101   -2.5794    8.8279 H   0  0  0  0  0  0  0  0  0  0  0  0
    3.1975   -0.9437    8.4089 H   0  0  0  0  0  0  0  0  0  0  0  0
    2.2519   -2.0020    9.5099 H   0  0  0  0  0  0  0  0  0  0  0  0
  1  3  1  0  0  0  0
  1  7  1  0  0  0  0
  1  2  2  0  0  0  0
 30 31  1  0  0  0  0
 31 39  1  0  0  0  0
 31 32  2  0  0  0  0
  8  9  1  0  0  0  0
  9 17  1  0  0  0  0
  9 10  2  0  0  0  0
 18 19  1  0  0  0  0
 19 29  1  0  0  0  0
 19 20  2  0  0  0  0
 21 22  1  0  0  0  0
 22 23  1  0  0  0  0
 22 24  2  0  0  0  0
 30 33  1  0  0  0  0
  8 11  1  0  0  0  0
 39 40  1  0  0  0  0
 18 21  1  0  0  0  0
 29 30  1  0  0  0  0
  7  8  1  0  0  0  0
 17 18  1  0  0  0  0
  3  4  1  0  0  0  0
  3  5  1  0  0  0  0
  3  6  1  0  0  0  0
 33 36  1  0  0  0  0
 33 37  1  0  0  0  0
 33 38  1  0  0  0  0
 11 14  1  0  0  0  0
 11 15  1  0  0  0  0
 11 16  1  0  0  0  0
 40 42  1  0  0  0  0
 40 43  1  0  0  0  0
 40 44  1  0  0  0  0
 21 27  1  0  0  0  0
 21 28  1  0  0  0  0
 30 35  1  0  0  0  0
  8 13  1  0  0  0  0
 18 26  1  0  0  0  0
 39 41  1  0  0  0  0
  7 12  1  0  0  0  0
 29 34  1  0  0  0  0
 17 25  1  0  0  0  0
M  CHG  1  23  -1
M  END
$$$$

  -OEChem-05262214473D

 44 43  0     1  0  0  0  0  0999 V2000
   -4.0256   -1.8030   -2.1581 C   0  0  0  0  0  0  0  0  0  0  0  0
   -3.7513   -2.6782   -2.9709 O   0  0  0  0  0  0  0  0  0  0  0  0
   -5.3491   -1.1169   -2.2339 C   0  0  0  0  0  0  0  0  0  0  0  0
   -5.3223   -0.2211   -2.8750 H   0  0  0  0  0  0  0  0  0  0  0  0
   -6.1322   -1.7605   -2.6658 H   0  0  0  0  0  0  0  0  0  0  0  0
   -5.7568   -0.7715   -1.2704 H   0  0  0  0  0  0  0  0  0  0  0  0
   -3.2124   -1.3578   -1.1289 N   0  0  0  0  0  0  0  0  0  0  0  0
   -1.8971   -1.8843   -0.8752 C   0  0  2  0  0  0  0  0  0  0  0  0
   -1.2676   -1.0599    0.2399 C   0  0  0  0  0  0  0  0  0  0  0  0
   -1.6270    0.0833    0.5138 O   0  0  0  0  0  0  0  0  0  0  0  0
   -1.0364   -1.8506   -2.1285 C   0  0  0  0  0  0  0  0  0  0  0  0
   -3.5631   -0.6202   -0.5206 H   0  0  0  0  0  0  0  0  0  0  0  0
   -2.0301   -2.9174   -0.5360 H   0  0  0  0  0  0  0  0  0  0  0  0
   -0.8921   -0.8236   -2.4833 H   0  0  0  0  0  0  0  0  0  0  0  0
   -0.0457   -2.2777   -1.9410 H   0  0  0  0  0  0  0  0  0  0  0  0
   -1.5052   -2.4193   -2.9387 H   0  0  0  0  0  0  0  0  0  0  0  0
   -0.2267   -1.7335    0.8672 N   0  0  0  0  0  0  0  0  0  0  0  0
    0.5363   -1.1590    1.9465 C   0  0  2  0  0  0  0  0  0  0  0  0
    0.3605   -2.0695    3.1564 C   0  0  0  0  0  0  0  0  0  0  0  0
   -0.4901   -2.9553    3.2109 O   0  0  0  0  0  0  0  0  0  0  0  0
    0.0784    0.2607    2.2725 C   0  0  0  0  0  0  0  0  0  0  0  0
    0.3785    1.3331    1.2176 C   0  0  0  0  0  0  0  0  0  0  0  0
    1.4090    1.0987    0.5217 O   0  5  0  0  0  0  0  0  0  0  0  0
   -0.4129    2.3140    1.1675 O   0  0  0  0  0  0  0  0  0  0  0  0
   -0.0113   -2.6869    0.5854 H   0  0  0  0  0  0  0  0  0  0  0  0
    1.5864   -1.1745    1.6334 H   0  0  0  0  0  0  0  0  0  0  0  0
    0.5283    0.5852    3.2209 H   0  0  0  0  0  0  0  0  0  0  0  0
   -1.0088    0.2724    2.4249 H   0  0  0  0  0  0  0  0  0  0  0  0
    1.2991   -1.8099    4.1454 N   0  0  0  0  0  0  0  0  0  0  0  0
    1.3630   -2.5587    5.3788 C   0  0  2  0  0  0  0  0  0  0  0  0
    1.8777   -1.6273    6.4684 C   0  0  0  0  0  0  0  0  0  0  0  0
    2.5340   -0.6154    6.2309 O   0  0  0  0  0  0  0  0  0  0  0  0
    2.2591   -3.7795    5.2392 C   0  0  0  0  0  0  0  0  0  0  0  0
    1.9973   -1.0878    3.9939 H   0  0  0  0  0  0  0  0  0  0  0  0
    0.3387   -2.8671    5.6150 H   0  0  0  0  0  0  0  0  0  0  0  0
    3.2895   -3.4904    5.0026 H   0  0  0  0  0  0  0  0  0  0  0  0
    2.2838   -4.3616    6.1663 H   0  0  0  0  0  0  0  0  0  0  0  0
    1.9044   -4.4334    4.4353 H   0  0  0  0  0  0  0  0  0  0  0  0
    1.5549   -2.0822    7.7392 N   0  0  0  0  0  0  0  0  0  0  0  0
    1.9422   -1.3799    8.9404 C   0  0  0  0  0  0  0  0  0  0  0  0
    0.9914   -2.9211    7.8415 H   0  0  0  0  0  0  0  0  0  0  0  0
    2.9033   -1.7738    9.3023 H   0  0  0  0  0  0  0  0  0  0  0  0
    2.0452   -0.3070    8.7206 H   0  0  0  0  0  0  0  0  0  0  0  0
    1.1727   -1.5236    9.7132 H   0  0  0  0  0  0  0  0  0  0  0  0
  1  3  1  0  0  0  0
  1  7  1  0  0  0  0
  1  2  2  0  0  0  0
 30 31  1  0  0  0  0
 31 39  1  0  0  0  0
 31 32  2  0  0  0  0
  8  9  1  0  0  0  0
  9 17  1  0  0  0  0
  9 10  2  0  0  0  0
 18 19  1  0  0  0  0
 19 29  1  0  0  0  0
 19 20  2  0  0  0  0
 21 22  1  0  0  0  0
 22 23  1  0  0  0  0
 22 24  2  0  0  0  0
 30 33  1  0  0  0  0
  8 11  1  0  0  0  0
 39 40  1  0  0  0  0
 18 21  1  0  0  0  0
 29 30  1  0  0  0  0
  7  8  1  0  0  0  0
 17 18  1  0  0  0  0
  3  4  1  0  0  0  0
  3  5  1  0  0  0  0
  3  6  1  0  0  0  0
 33 36  1  0  0  0  0
 33 37  1  0  0  0  0
 33 38  1  0  0  0  0
 11 14  1  0  0  0  0
 11 15  1  0  0  0  0
 11 16  1  0  0  0  0
 40 42  1  0  0  0  0
 40 43  1  0  0  0  0
 40 44  1  0  0  0  0
 21 27  1  0  0  0  0
 21 28  1  0  0  0  0
 30 35  1  0  0  0  0
  8 13  1  0  0  0  0
 18 26  1  0  0  0  0
 39 41  1  0  0  0  0
  7 12  1  0  0  0  0
 29 34  1  0  0  0  0
 17 25  1  0  0  0  0
M  CHG  1  23  -1
M  END
$$$$

  -OEChem-05262214473D

 44 43  0     1  0  0  0  0  0999 V2000
   -4.0256   -1.8030   -2.1581 C   0  0  0  0  0  0  0  0  0  0  0  0
   -3.7513   -2.6782   -2.9709 O   0  0  0  0  0  0  0  0  0  0  0  0
   -5.3491   -1.1169   -2.2339 C   0  0  0  0  0  0  0  0  0  0  0  0
   -5.3223   -0.2211   -2.8750 H   0  0  0  0  0  0  0  0  0  0  0  0
   -6.1322   -1.7605   -2.6658 H   0  0  0  0  0  0  0  0  0  0  0  0
   -5.7568   -0.7715   -1.2704 H   0  0  0  0  0  0  0  0  0  0  0  0
   -3.2124   -1.3578   -1.1289 N   0  0  0  0  0  0  0  0  0  0  0  0
   -1.8971   -1.8843   -0.8752 C   0  0  2  0  0  0  0  0  0  0  0  0
   -1.2676   -1.0599    0.2399 C   0  0  0  0  0  0  0  0  0  0  0  0
   -1.6270    0.0833    0.5138 O   0  0  0  0  0  0  0  0  0  0  0  0
   -1.0364   -1.8506   -2.1285 C   0  0  0  0  0  0  0  0  0  0  0  0
   -3.5631   -0.6202   -0.5206 H   0  0  0  0  0  0  0  0  0  0  0  0
   -2.0301   -2.9174   -0.5360 H   0  0  0  0  0  0  0  0  0  0  0  0
   -0.8921   -0.8236   -2.4833 H   0  0  0  0  0  0  0  0  0  0  0  0
   -0.0457   -2.2777   -1.9410 H   0  0  0  0  0  0  0  0  0  0  0  0
   -1.5052   -2.4193   -2.9387 H   0  0  0  0  0  0  0  0  0  0  0  0
   -0.2267   -1.7335    0.8672 N   0  0  0  0  0  0  0  0  0  0  0  0
    0.5363   -1.1590    1.9465 C   0  0  2  0  0  0  0  0  0  0  0  0
    0.6759   -2.2322    3.0201 C   0  0  0  0  0  0  0  0  0  0  0  0
    0.2317   -3.3711    2.8912 O   0  0  0  0  0  0  0  0  0  0  0  0
   -0.1373    0.0866    2.5177 C   0  0  0  0  0  0  0  0  0  0  0  0
   -0.1678    1.3225    1.6094 C   0  0  0  0  0  0  0  0  0  0  0  0
    0.8000    1.3901    0.7971 O   0  5  0  0  0  0  0  0  0  0  0  0
   -1.1287    2.1224    1.7754 O   0  0  0  0  0  0  0  0  0  0  0  0
   -0.0113   -2.6869    0.5854 H   0  0  0  0  0  0  0  0  0  0  0  0
    1.5270   -0.9232    1.5417 H   0  0  0  0  0  0  0  0  0  0  0  0
    0.3516    0.3719    3.4592 H   0  0  0  0  0  0  0  0  0  0  0  0
   -1.1822   -0.1399    2.7669 H   0  0  0  0  0  0  0  0  0  0  0  0
    1.4000   -1.7830    4.1157 N   0  0  0  0  0  0  0  0  0  0  0  0
    1.6971   -2.6213    5.2537 C   0  0  2  0  0  0  0  0  0  0  0  0
    1.7671   -1.7316    6.4878 C   0  0  0  0  0  0  0  0  0  0  0  0
    1.9911   -0.5242    6.4324 O   0  0  0  0  0  0  0  0  0  0  0  0
    2.9999   -3.3806    5.0565 C   0  0  0  0  0  0  0  0  0  0  0  0
    1.7709   -0.8373    4.1153 H   0  0  0  0  0  0  0  0  0  0  0  0
    0.8625   -3.3234    5.3558 H   0  0  0  0  0  0  0  0  0  0  0  0
    3.8477   -2.6937    4.9522 H   0  0  0  0  0  0  0  0  0  0  0  0
    3.2093   -4.0372    5.9074 H   0  0  0  0  0  0  0  0  0  0  0  0
    2.9586   -3.9972    4.1521 H   0  0  0  0  0  0  0  0  0  0  0  0
    1.5929   -2.4520    7.6612 N   0  0  0  0  0  0  0  0  0  0  0  0
    1.6292   -1.8359    8.9670 C   0  0  0  0  0  0  0  0  0  0  0  0
    1.3932   -3.4467    7.6118 H   0  0  0  0  0  0  0  0  0  0  0  0
    2.6521   -1.8862    9.3683 H   0  0  0  0  0  0  0  0  0  0  0  0
    1.3191   -0.7838    8.8846 H   0  0  0  0  0  0  0  0  0  0  0  0
    0.9437   -2.3684    9.6427 H   0  0  0  0  0  0  0  0  0  0  0  0
  1  3  1  0  0  0  0
  1  7  1  0  0  0  0
  1  2  2  0  0  0  0
 30 31  1  0  0  0  0
 31 39  1  0  0  0  0
 31 32  2  0  0  0  0
  8  9  1  0  0  0  0
  9 17  1  0  0  0  0
  9 10  2  0  0  0  0
 18 19  1  0  0  0  0
 19 29  1  0  0  0  0
 19 20  2  0  0  0  0
 21 22  1  0  0  0  0
 22 23  1  0  0  0  0
 22 24  2  0  0  0  0
 30 33  1  0  0  0  0
  8 11  1  0  0  0  0
 39 40  1  0  0  0  0
 18 21  1  0  0  0  0
 29 30  1  0  0  0  0
  7  8  1  0  0  0  0
 17 18  1  0  0  0  0
  3  4  1  0  0  0  0
  3  5  1  0  0  0  0
  3  6  1  0  0  0  0
 33 36  1  0  0  0  0
 33 37  1  0  0  0  0
 33 38  1  0  0  0  0
 11 14  1  0  0  0  0
 11 15  1  0  0  0  0
 11 16  1  0  0  0  0
 40 42  1  0  0  0  0
 40 43  1  0  0  0  0
 40 44  1  0  0  0  0
 21 27  1  0  0  0  0
 21 28  1  0  0  0  0
 30 35  1  0  0  0  0
  8 13  1  0  0  0  0
 18 26  1  0  0  0  0
 39 41  1  0  0  0  0
  7 12  1  0  0  0  0
 29 34  1  0  0  0  0
 17 25  1  0  0  0  0
M  CHG  1  23  -1
M  END
$$$$

  -OEChem-05262214473D

 44 43  0     1  0  0  0  0  0999 V2000
   -4.0256   -1.8030   -2.1581 C   0  0  0  0  0  0  0  0  0  0  0  0
   -3.7513   -2.6782   -2.9709 O   0  0  0  0  0  0  0  0  0  0  0  0
   -5.3491   -1.1169   -2.2339 C   0  0  0  0  0  0  0  0  0  0  0  0
   -5.3223   -0.2211   -2.8750 H   0  0  0  0  0  0  0  0  0  0  0  0
   -6.1322   -1.7605   -2.6658 H   0  0  0  0  0  0  0  0  0  0  0  0
   -5.7568   -0.7715   -1.2704 H   0  0  0  0  0  0  0  0  0  0  0  0
   -3.2124   -1.3578   -1.1289 N   0  0  0  0  0  0  0  0  0  0  0  0
   -1.8971   -1.8843   -0.8752 C   0  0  2  0  0  0  0  0  0  0  0  0
   -1.2676   -1.0599    0.2399 C   0  0  0  0  0  0  0  0  0  0  0  0
   -1.6270    0.0833    0.5138 O   0  0  0  0  0  0  0  0  0  0  0  0
   -1.0364   -1.8506   -2.1285 C   0  0  0  0  0  0  0  0  0  0  0  0
   -3.5631   -0.6202   -0.5206 H   0  0  0  0  0  0  0  0  0  0  0  0
   -2.0301   -2.9174   -0.5360 H   0  0  0  0  0  0  0  0  0  0  0  0
   -0.8921   -0.8236   -2.4833 H   0  0  0  0  0  0  0  0  0  0  0  0
   -0.0457   -2.2777   -1.9410 H   0  0  0  0  0  0  0  0  0  0  0  0
   -1.5052   -2.4193   -2.9387 H   0  0  0  0  0  0  0  0  0  0  0  0
   -0.2267   -1.7335    0.8672 N   0  0  0  0  0  0  0  0  0  0  0  0
    0.5363   -1.1590    1.9465 C   0  0  2  0  0  0  0  0  0  0  0  0
    0.6759   -2.2322    3.0201 C   0  0  0  0  0  0  0  0  0  0  0  0
    0.4800   -3.4263    2.8037 O   0  0  0  0  0  0  0  0  0  0  0  0
   -0.1373    0.0866    2.5177 C   0  0  0  0  0  0  0  0  0  0  0  0
   -0.1678    1.3225    1.6094 C   0  0  0  0  0  0  0  0  0  0  0  0
    0.8000    1.3901    0.7971 O   0  5  0  0  0  0  0  0  0  0  0  0
   -1.1287    2.1224    1.7754 O   0  0  0  0  0  0  0  0  0  0  0  0
   -0.0113   -2.6869    0.5854 H   0  0  0  0  0  0  0  0  0  0  0  0
    1.5270   -0.9232    1.5417 H   0  0  0  0  0  0  0  0  0  0  0  0
    0.3516    0.3719    3.4592 H   0  0  0  0  0  0  0  0  0  0  0  0
   -1.1822   -0.1399    2.7669 H   0  0  0  0  0  0  0  0  0  0  0  0
    1.0954   -1.7048    4.2334 N   0  0  0  0  0  0  0  0  0  0  0  0
    1.3323   -2.5215    5.4010 C   0  0  2  0  0  0  0  0  0  0  0  0
    1.0137   -1.6845    6.6329 C   0  0  0  0  0  0  0  0  0  0  0  0
    1.0174   -0.4553    6.6279 O   0  0  0  0  0  0  0  0  0  0  0  0
    2.7667   -3.0251    5.4422 C   0  0  0  0  0  0  0  0  0  0  0  0
    1.2794   -0.7086    4.3080 H   0  0  0  0  0  0  0  0  0  0  0  0
    0.6370   -3.3659    5.3427 H   0  0  0  0  0  0  0  0  0  0  0  0
    3.4779   -2.1931    5.5007 H   0  0  0  0  0  0  0  0  0  0  0  0
    2.9369   -3.6672    6.3127 H   0  0  0  0  0  0  0  0  0  0  0  0
    3.0033   -3.6018    4.5415 H   0  0  0  0  0  0  0  0  0  0  0  0
    0.7670   -2.4716    7.7490 N   0  0  0  0  0  0  0  0  0  0  0  0
    0.4534   -1.9126    9.0433 C   0  0  0  0  0  0  0  0  0  0  0  0
    0.7665   -3.4831    7.6569 H   0  0  0  0  0  0  0  0  0  0  0  0
    1.3788   -1.7941    9.6261 H   0  0  0  0  0  0  0  0  0  0  0  0
   -0.0255   -0.9310    8.9124 H   0  0  0  0  0  0  0  0  0  0  0  0
   -0.2323   -2.5868    9.5774 H   0  0  0  0  0  0  0  0  0  0  0  0
  1  3  1  0  0  0  0
  1  7  1  0  0  0  0
  1  2  2  0  0  0  0
 30 31  1  0  0  0  0
 31 39  1  0  0  0  0
 31 32  2  0  0  0  0
  8  9  1  0  0  0  0
  9 17  1  0  0  0  0
  9 10  2  0  0  0  0
 18 19  1  0  0  0  0
 19 29  1  0  0  0  0
 19 20  2  0  0  0  0
 21 22  1  0  0  0  0
 22 23  1  0  0  0  0
 22 24  2  0  0  0  0
 30 33  1  0  0  0  0
  8 11  1  0  0  0  0
 39 40  1  0  0  0  0
 18 21  1  0  0  0  0
 29 30  1  0  0  0  0
  7  8  1  0  0  0  0
 17 18  1  0  0  0  0
  3  4  1  0  0  0  0
  3  5  1  0  0  0  0
  3  6  1  0  0  0  0
 33 36  1  0  0  0  0
 33 37  1  0  0  0  0
 33 38  1  0  0  0  0
 11 14  1  0  0  0  0
 11 15  1  0  0  0  0
 11 16  1  0  0  0  0
 40 42  1  0  0  0  0
 40 43  1  0  0  0  0
 40 44  1  0  0  0  0
 21 27  1  0  0  0  0
 21 28  1  0  0  0  0
 30 35  1  0  0  0  0
  8 13  1  0  0  0  0
 18 26  1  0  0  0  0
 39 41  1  0  0  0  0
  7 12  1  0  0  0  0
 29 34  1  0  0  0  0
 17 25  1  0  0  0  0
M  CHG  1  23  -1
M  END
$$$$

  -OEChem-05262214473D

 44 43  0     1  0  0  0  0  0999 V2000
   -4.0256   -1.8030   -2.1581 C   0  0  0  0  0  0  0  0  0  0  0  0
   -3.7513   -2.6782   -2.9709 O   0  0  0  0  0  0  0  0  0  0  0  0
   -5.3491   -1.1169   -2.2339 C   0  0  0  0  0  0  0  0  0  0  0  0
   -5.3223   -0.2211   -2.8750 H   0  0  0  0  0  0  0  0  0  0  0  0
   -6.1322   -1.7605   -2.6658 H   0  0  0  0  0  0  0  0  0  0  0  0
   -5.7568   -0.7715   -1.2704 H   0  0  0  0  0  0  0  0  0  0  0  0
   -3.2124   -1.3578   -1.1289 N   0  0  0  0  0  0  0  0  0  0  0  0
   -1.8971   -1.8843   -0.8752 C   0  0  2  0  0  0  0  0  0  0  0  0
   -1.2676   -1.0599    0.2399 C   0  0  0  0  0  0  0  0  0  0  0  0
   -1.6270    0.0833    0.5138 O   0  0  0  0  0  0  0  0  0  0  0  0
   -1.0364   -1.8506   -2.1285 C   0  0  0  0  0  0  0  0  0  0  0  0
   -3.5631   -0.6202   -0.5206 H   0  0  0  0  0  0  0  0  0  0  0  0
   -2.0301   -2.9174   -0.5360 H   0  0  0  0  0  0  0  0  0  0  0  0
   -0.8921   -0.8236   -2.4833 H   0  0  0  0  0  0  0  0  0  0  0  0
   -0.0457   -2.2777   -1.9410 H   0  0  0  0  0  0  0  0  0  0  0  0
   -1.5052   -2.4193   -2.9387 H   0  0  0  0  0  0  0  0  0  0  0  0
   -0.2267   -1.7335    0.8672 N   0  0  0  0  0  0  0  0  0  0  0  0
    0.5363   -1.1590    1.9465 C   0  0  2  0  0  0  0  0  0  0  0  0
    0.6759   -2.2322    3.0201 C   0  0  0  0  0  0  0  0  0  0  0  0
    0.7459   -3.4323    2.7632 O   0  0  0  0  0  0  0  0  0  0  0  0
   -0.1373    0.0866    2.5177 C   0  0  0  0  0  0  0  0  0  0  0  0
   -0.1678    1.3225    1.6094 C   0  0  0  0  0  0  0  0  0  0  0  0
    0.8000    1.3901    0.7971 O   0  5  0  0  0  0  0  0  0  0  0  0
   -1.1287    2.1224    1.7754 O   0  0  0  0  0  0  0  0  0  0  0  0
   -0.0113   -2.6869    0.5854 H   0  0  0  0  0  0  0  0  0  0  0  0
    1.5270   -0.9232    1.5417 H   0  0  0  0  0  0  0  0  0  0  0  0
    0.3516    0.3719    3.4592 H   0  0  0  0  0  0  0  0  0  0  0  0
   -1.1822   -0.1399    2.7669 H   0  0  0  0  0  0  0  0  0  0  0  0
    0.7655   -1.6876    4.2935 N   0  0  0  0  0  0  0  0  0  0  0  0
    0.9349   -2.4950    5.4792 C   0  0  2  0  0  0  0  0  0  0  0  0
    0.2509   -1.7798    6.6368 C   0  0  0  0  0  0  0  0  0  0  0  0
    0.0286   -0.5708    6.6411 O   0  0  0  0  0  0  0  0  0  0  0  0
    2.4063   -2.7333    5.7808 C   0  0  0  0  0  0  0  0  0  0  0  0
    0.7462   -0.6784    4.4075 H   0  0  0  0  0  0  0  0  0  0  0  0
    0.4294   -3.4478    5.2879 H   0  0  0  0  0  0  0  0  0  0  0  0
    2.9295   -1.7899    5.9751 H   0  0  0  0  0  0  0  0  0  0  0  0
    2.5325   -3.3691    6.6633 H   0  0  0  0  0  0  0  0  0  0  0  0
    2.9034   -3.2209    4.9352 H   0  0  0  0  0  0  0  0  0  0  0  0
   -0.0432   -2.6431    7.6830 N   0  0  0  0  0  0  0  0  0  0  0  0
   -0.6823   -2.2027    8.9010 C   0  0  0  0  0  0  0  0  0  0  0  0
    0.1595   -3.6336    7.5855 H   0  0  0  0  0  0  0  0  0  0  0  0
    0.0851   -1.9433    9.6452 H   0  0  0  0  0  0  0  0  0  0  0  0
   -1.3025   -1.3189    8.6907 H   0  0  0  0  0  0  0  0  0  0  0  0
   -1.3166   -3.0105    9.2949 H   0  0  0  0  0  0  0  0  0  0  0  0
  1  3  1  0  0  0  0
  1  7  1  0  0  0  0
  1  2  2  0  0  0  0
 30 31  1  0  0  0  0
 31 39  1  0  0  0  0
 31 32  2  0  0  0  0
  8  9  1  0  0  0  0
  9 17  1  0  0  0  0
  9 10  2  0  0  0  0
 18 19  1  0  0  0  0
 19 29  1  0  0  0  0
 19 20  2  0  0  0  0
 21 22  1  0  0  0  0
 22 23  1  0  0  0  0
 22 24  2  0  0  0  0
 30 33  1  0  0  0  0
  8 11  1  0  0  0  0
 39 40  1  0  0  0  0
 18 21  1  0  0  0  0
 29 30  1  0  0  0  0
  7  8  1  0  0  0  0
 17 18  1  0  0  0  0
  3  4  1  0  0  0  0
  3  5  1  0  0  0  0
  3  6  1  0  0  0  0
 33 36  1  0  0  0  0
 33 37  1  0  0  0  0
 33 38  1  0  0  0  0
 11 14  1  0  0  0  0
 11 15  1  0  0  0  0
 11 16  1  0  0  0  0
 40 42  1  0  0  0  0
 40 43  1  0  0  0  0
 40 44  1  0  0  0  0
 21 27  1  0  0  0  0
 21 28  1  0  0  0  0
 30 35  1  0  0  0  0
  8 13  1  0  0  0  0
 18 26  1  0  0  0  0
 39 41  1  0  0  0  0
  7 12  1  0  0  0  0
 29 34  1  0  0  0  0
 17 25  1  0  0  0  0
M  CHG  1  23  -1
M  END
$$$$

  -OEChem-05262214473D

 44 43  0     1  0  0  0  0  0999 V2000
   -4.0256   -1.8030   -2.1581 C   0  0  0  0  0  0  0  0  0  0  0  0
   -3.7513   -2.6782   -2.9709 O   0  0  0  0  0  0  0  0  0  0  0  0
   -5.3491   -1.1169   -2.2339 C   0  0  0  0  0  0  0  0  0  0  0  0
   -5.3223   -0.2211   -2.8750 H   0  0  0  0  0  0  0  0  0  0  0  0
   -6.1322   -1.7605   -2.6658 H   0  0  0  0  0  0  0  0  0  0  0  0
   -5.7568   -0.7715   -1.2704 H   0  0  0  0  0  0  0  0  0  0  0  0
   -3.2124   -1.3578   -1.1289 N   0  0  0  0  0  0  0  0  0  0  0  0
   -1.8971   -1.8843   -0.8752 C   0  0  2  0  0  0  0  0  0  0  0  0
   -1.2676   -1.0599    0.2399 C   0  0  0  0  0  0  0  0  0  0  0  0
   -1.6270    0.0833    0.5138 O   0  0  0  0  0  0  0  0  0  0  0  0
   -1.0364   -1.8506   -2.1285 C   0  0  0  0  0  0  0  0  0  0  0  0
   -3.5631   -0.6202   -0.5206 H   0  0  0  0  0  0  0  0  0  0  0  0
   -2.0301   -2.9174   -0.5360 H   0  0  0  0  0  0  0  0  0  0  0  0
   -0.8921   -0.8236   -2.4833 H   0  0  0  0  0  0  0  0  0  0  0  0
   -0.0457   -2.2777   -1.9410 H   0  0  0  0  0  0  0  0  0  0  0  0
   -1.5052   -2.4193   -2.9387 H   0  0  0  0  0  0  0  0  0  0  0  0
   -0.2267   -1.7335    0.8672 N   0  0  0  0  0  0  0  0  0  0  0  0
    0.5363   -1.1590    1.9465 C   0  0  2  0  0  0  0  0  0  0  0  0
    0.6759   -2.2322    3.0201 C   0  0  0  0  0  0  0  0  0  0  0  0
    1.0112   -3.3887    2.7723 O   0  0  0  0  0  0  0  0  0  0  0  0
   -0.1373    0.0866    2.5177 C   0  0  0  0  0  0  0  0  0  0  0  0
   -0.1678    1.3225    1.6094 C   0  0  0  0  0  0  0  0  0  0  0  0
    0.8000    1.3901    0.7971 O   0  5  0  0  0  0  0  0  0  0  0  0
   -1.1287    2.1224    1.7754 O   0  0  0  0  0  0  0  0  0  0  0  0
   -0.0113   -2.6869    0.5854 H   0  0  0  0  0  0  0  0  0  0  0  0
    1.5270   -0.9232    1.5417 H   0  0  0  0  0  0  0  0  0  0  0  0
    0.3516    0.3719    3.4592 H   0  0  0  0  0  0  0  0  0  0  0  0
   -1.1822   -0.1399    2.7669 H   0  0  0  0  0  0  0  0  0  0  0  0
    0.4328   -1.7325    4.2919 N   0  0  0  0  0  0  0  0  0  0  0  0
    0.5320   -2.5437    5.4829 C   0  0  2  0  0  0  0  0  0  0  0  0
   -0.4692   -2.0110    6.4994 C   0  0  0  0  0  0  0  0  0  0  0  0
   -0.9078   -0.8630    6.4708 O   0  0  0  0  0  0  0  0  0  0  0  0
    1.9434   -2.5252    6.0490 C   0  0  0  0  0  0  0  0  0  0  0  0
    0.2074   -0.7488    4.4072 H   0  0  0  0  0  0  0  0  0  0  0  0
    0.2538   -3.5634    5.1952 H   0  0  0  0  0  0  0  0  0  0  0  0
    2.2398   -1.5117    6.3429 H   0  0  0  0  0  0  0  0  0  0  0  0
    2.0237   -3.1632    6.9353 H   0  0  0  0  0  0  0  0  0  0  0  0
    2.6658   -2.8806    5.3064 H   0  0  0  0  0  0  0  0  0  0  0  0
   -0.7824   -2.9549    7.4675 N   0  0  0  0  0  0  0  0  0  0  0  0
   -1.7004   -2.6866    8.5498 C   0  0  0  0  0  0  0  0  0  0  0  0
   -0.3863   -3.8879    7.4023 H   0  0  0  0  0  0  0  0  0  0  0  0
   -1.1408   -2.3237    9.4245 H   0  0  0  0  0  0  0  0  0  0  0  0
   -2.4249   -1.9212    8.2347 H   0  0  0  0  0  0  0  0  0  0  0  0
   -2.2352   -3.6108    8.8144 H   0  0  0  0  0  0  0  0  0  0  0  0
  1  3  1  0  0  0  0
  1  7  1  0  0  0  0
  1  2  2  0  0  0  0
 30 31  1  0  0  0  0
 31 39  1  0  0  0  0
 31 32  2  0  0  0  0
  8  9  1  0  0  0  0
  9 17  1  0  0  0  0
  9 10  2  0  0  0  0
 18 19  1  0  0  0  0
 19 29  1  0  0  0  0
 19 20  2  0  0  0  0
 21 22  1  0  0  0  0
 22 23  1  0  0  0  0
 22 24  2  0  0  0  0
 30 33  1  0  0  0  0
  8 11  1  0  0  0  0
 39 40  1  0  0  0  0
 18 21  1  0  0  0  0
 29 30  1  0  0  0  0
  7  8  1  0  0  0  0
 17 18  1  0  0  0  0
  3  4  1  0  0  0  0
  3  5  1  0  0  0  0
  3  6  1  0  0  0  0
 33 36  1  0  0  0  0
 33 37  1  0  0  0  0
 33 38  1  0  0  0  0
 11 14  1  0  0  0  0
 11 15  1  0  0  0  0
 11 16  1  0  0  0  0
 40 42  1  0  0  0  0
 40 43  1  0  0  0  0
 40 44  1  0  0  0  0
 21 27  1  0  0  0  0
 21 28  1  0  0  0  0
 30 35  1  0  0  0  0
  8 13  1  0  0  0  0
 18 26  1  0  0  0  0
 39 41  1  0  0  0  0
  7 12  1  0  0  0  0
 29 34  1  0  0  0  0
 17 25  1  0  0  0  0
M  CHG  1  23  -1
M  END
$$$$

  -OEChem-05262214473D

 44 43  0     1  0  0  0  0  0999 V2000
   -4.0256   -1.8030   -2.1581 C   0  0  0  0  0  0  0  0  0  0  0  0
   -3.7513   -2.6782   -2.9709 O   0  0  0  0  0  0  0  0  0  0  0  0
   -5.3491   -1.1169   -2.2339 C   0  0  0  0  0  0  0  0  0  0  0  0
   -5.3223   -0.2211   -2.8750 H   0  0  0  0  0  0  0  0  0  0  0  0
   -6.1322   -1.7605   -2.6658 H   0  0  0  0  0  0  0  0  0  0  0  0
   -5.7568   -0.7715   -1.2704 H   0  0  0  0  0  0  0  0  0  0  0  0
   -3.2124   -1.3578   -1.1289 N   0  0  0  0  0  0  0  0  0  0  0  0
   -1.8971   -1.8843   -0.8752 C   0  0  2  0  0  0  0  0  0  0  0  0
   -1.2676   -1.0599    0.2399 C   0  0  0  0  0  0  0  0  0  0  0  0
   -1.6270    0.0833    0.5138 O   0  0  0  0  0  0  0  0  0  0  0  0
   -1.0364   -1.8506   -2.1285 C   0  0  0  0  0  0  0  0  0  0  0  0
   -3.5631   -0.6202   -0.5206 H   0  0  0  0  0  0  0  0  0  0  0  0
   -2.0301   -2.9174   -0.5360 H   0  0  0  0  0  0  0  0  0  0  0  0
   -0.8921   -0.8236   -2.4833 H   0  0  0  0  0  0  0  0  0  0  0  0
   -0.0457   -2.2777   -1.9410 H   0  0  0  0  0  0  0  0  0  0  0  0
   -1.5052   -2.4193   -2.9387 H   0  0  0  0  0  0  0  0  0  0  0  0
   -0.2267   -1.7335    0.8672 N   0  0  0  0  0  0  0  0  0  0  0  0
    0.5363   -1.1590    1.9465 C   0  0  2  0  0  0  0  0  0  0  0  0
    0.6759   -2.2322    3.0201 C   0  0  0  0  0  0  0  0  0  0  0  0
    1.2578   -3.2984    2.8305 O   0  0  0  0  0  0  0  0  0  0  0  0
   -0.1373    0.0866    2.5177 C   0  0  0  0  0  0  0  0  0  0  0  0
   -0.1678    1.3225    1.6094 C   0  0  0  0  0  0  0  0  0  0  0  0
    0.8000    1.3901    0.7971 O   0  5  0  0  0  0  0  0  0  0  0  0
   -1.1287    2.1224    1.7754 O   0  0  0  0  0  0  0  0  0  0  0  0
   -0.0113   -2.6869    0.5854 H   0  0  0  0  0  0  0  0  0  0  0  0
    1.5270   -0.9232    1.5417 H   0  0  0  0  0  0  0  0  0  0  0  0
    0.3516    0.3719    3.4592 H   0  0  0  0  0  0  0  0  0  0  0  0
   -1.1822   -0.1399    2.7669 H   0  0  0  0  0  0  0  0  0  0  0  0
    0.1199   -1.8365    4.2286 N   0  0  0  0  0  0  0  0  0  0  0  0
    0.1510   -2.6642    5.4120 C   0  0  2  0  0  0  0  0  0  0  0  0
   -1.0976   -2.3623    6.2300 C   0  0  0  0  0  0  0  0  0  0  0  0
   -1.7281   -1.3118    6.1289 O   0  0  0  0  0  0  0  0  0  0  0  0
    1.4094   -2.4149    6.2287 C   0  0  0  0  0  0  0  0  0  0  0  0
   -0.3001   -0.9150    4.3071 H   0  0  0  0  0  0  0  0  0  0  0  0
    0.1221   -3.7048    5.0709 H   0  0  0  0  0  0  0  0  0  0  0  0
    1.4559   -1.3774    6.5792 H   0  0  0  0  0  0  0  0  0  0  0  0
    1.4452   -3.0634    7.1103 H   0  0  0  0  0  0  0  0  0  0  0  0
    2.3067   -2.6039    5.6296 H   0  0  0  0  0  0  0  0  0  0  0  0
   -1.4004   -3.3857    7.1173 N   0  0  0  0  0  0  0  0  0  0  0  0
   -2.5317   -3.3313    8.0135 C   0  0  0  0  0  0  0  0  0  0  0  0
   -0.8338   -4.2287    7.1198 H   0  0  0  0  0  0  0  0  0  0  0  0
   -2.2154   -2.9093    8.9788 H   0  0  0  0  0  0  0  0  0  0  0  0
   -3.3162   -2.6967    7.5754 H   0  0  0  0  0  0  0  0  0  0  0  0
   -2.9255   -4.3466    8.1686 H   0  0  0  0  0  0  0  0  0  0  0  0
  1  3  1  0  0  0  0
  1  7  1  0  0  0  0
  1  2  2  0  0  0  0
 30 31  1  0  0  0  0
 31 39  1  0  0  0  0
 31 32  2  0  0  0  0
  8  9  1  0  0  0  0
  9 17  1  0  0  0  0
  9 10  2  0  0  0  0
 18 19  1  0  0  0  0
 19 29  1  0  0  0  0
 19 20  2  0  0  0  0
 21 22  1  0  0  0  0
 22 23  1  0  0  0  0
 22 24  2  0  0  0  0
 30 33  1  0  0  0  0
  8 11  1  0  0  0  0
 39 40  1  0  0  0  0
 18 21  1  0  0  0  0
 29 30  1  0  0  0  0
  7  8  1  0  0  0  0
 17 18  1  0  0  0  0
  3  4  1  0  0  0  0
  3  5  1  0  0  0  0
  3  6  1  0  0  0  0
 33 36  1  0  0  0  0
 33 37  1  0  0  0  0
 33 38  1  0  0  0  0
 11 14  1  0  0  0  0
 11 15  1  0  0  0  0
 11 16  1  0  0  0  0
 40 42  1  0  0  0  0
 40 43  1  0  0  0  0
 40 44  1  0  0  0  0
 21 27  1  0  0  0  0
 21 28  1  0  0  0  0
 30 35  1  0  0  0  0
  8 13  1  0  0  0  0
 18 26  1  0  0  0  0
 39 41  1  0  0  0  0
  7 12  1  0  0  0  0
 29 34  1  0  0  0  0
 17 25  1  0  0  0  0
M  CHG  1  23  -1
M  END
$$$$

  -OEChem-05262214473D

 44 43  0     1  0  0  0  0  0999 V2000
   -4.0256   -1.8030   -2.1581 C   0  0  0  0  0  0  0  0  0  0  0  0
   -3.7513   -2.6782   -2.9709 O   0  0  0  0  0  0  0  0  0  0  0  0
   -5.3491   -1.1169   -2.2339 C   0  0  0  0  0  0  0  0  0  0  0  0
   -5.3223   -0.2211   -2.8750 H   0  0  0  0  0  0  0  0  0  0  0  0
   -6.1322   -1.7605   -2.6658 H   0  0  0  0  0  0  0  0  0  0  0  0
   -5.7568   -0.7715   -1.2704 H   0  0  0  0  0  0  0  0  0  0  0  0
   -3.2124   -1.3578   -1.1289 N   0  0  0  0  0  0  0  0  0  0  0  0
   -1.8971   -1.8843   -0.8752 C   0  0  2  0  0  0  0  0  0  0  0  0
   -1.2676   -1.0599    0.2399 C   0  0  0  0  0  0  0  0  0  0  0  0
   -1.6270    0.0833    0.5138 O   0  0  0  0  0  0  0  0  0  0  0  0
   -1.0364   -1.8506   -2.1285 C   0  0  0  0  0  0  0  0  0  0  0  0
   -3.5631   -0.6202   -0.5206 H   0  0  0  0  0  0  0  0  0  0  0  0
   -2.0301   -2.9174   -0.5360 H   0  0  0  0  0  0  0  0  0  0  0  0
   -0.8921   -0.8236   -2.4833 H   0  0  0  0  0  0  0  0  0  0  0  0
   -0.0457   -2.2777   -1.9410 H   0  0  0  0  0  0  0  0  0  0  0  0
   -1.5052   -2.4193   -2.9387 H   0  0  0  0  0  0  0  0  0  0  0  0
   -0.2267   -1.7335    0.8672 N   0  0  0  0  0  0  0  0  0  0  0  0
    0.5363   -1.1590    1.9465 C   0  0  2  0  0  0  0  0  0  0  0  0
    0.6759   -2.2322    3.0201 C   0  0  0  0  0  0  0  0  0  0  0  0
    1.4689   -3.1676    2.9338 O   0  0  0  0  0  0  0  0  0  0  0  0
   -0.1373    0.0866    2.5177 C   0  0  0  0  0  0  0  0  0  0  0  0
   -0.1678    1.3225    1.6094 C   0  0  0  0  0  0  0  0  0  0  0  0
    0.8000    1.3901    0.7971 O   0  5  0  0  0  0  0  0  0  0  0  0
   -1.1287    2.1224    1.7754 O   0  0  0  0  0  0  0  0  0  0  0  0
   -0.0113   -2.6869    0.5854 H   0  0  0  0  0  0  0  0  0  0  0  0
    1.5270   -0.9232    1.5417 H   0  0  0  0  0  0  0  0  0  0  0  0
    0.3516    0.3719    3.4592 H   0  0  0  0  0  0  0  0  0  0  0  0
   -1.1822   -0.1399    2.7669 H   0  0  0  0  0  0  0  0  0  0  0  0
   -0.1518   -1.9925    4.1080 N   0  0  0  0  0  0  0  0  0  0  0  0
   -0.1821   -2.8485    5.2711 C   0  0  2  0  0  0  0  0  0  0  0  0
   -1.5915   -2.8098    5.8469 C   0  0  0  0  0  0  0  0  0  0  0  0
   -2.3762   -1.8868    5.6384 O   0  0  0  0  0  0  0  0  0  0  0  0
    0.8407   -2.4100    6.3076 C   0  0  0  0  0  0  0  0  0  0  0  0
   -0.7418   -1.1657    4.1140 H   0  0  0  0  0  0  0  0  0  0  0  0
    0.0433   -3.8626    4.9235 H   0  0  0  0  0  0  0  0  0  0  0  0
    0.6312   -1.3961    6.6677 H   0  0  0  0  0  0  0  0  0  0  0  0
    0.8363   -3.0767    7.1762 H   0  0  0  0  0  0  0  0  0  0  0  0
    1.8504   -2.4098    5.8830 H   0  0  0  0  0  0  0  0  0  0  0  0
   -1.8550   -3.9061    6.6561 N   0  0  0  0  0  0  0  0  0  0  0  0
   -3.1194   -4.0928    7.3287 C   0  0  0  0  0  0  0  0  0  0  0  0
   -1.1525   -4.6327    6.7574 H   0  0  0  0  0  0  0  0  0  0  0  0
   -3.0654   -3.6603    8.3387 H   0  0  0  0  0  0  0  0  0  0  0  0
   -3.9156   -3.5926    6.7579 H   0  0  0  0  0  0  0  0  0  0  0  0
   -3.3405   -5.1679    7.4017 H   0  0  0  0  0  0  0  0  0  0  0  0
  1  3  1  0  0  0  0
  1  7  1  0  0  0  0
  1  2  2  0  0  0  0
 30 31  1  0  0  0  0
 31 39  1  0  0  0  0
 31 32  2  0  0  0  0
  8  9  1  0  0  0  0
  9 17  1  0  0  0  0
  9 10  2  0  0  0  0
 18 19  1  0  0  0  0
 19 29  1  0  0  0  0
 19 20  2  0  0  0  0
 21 22  1  0  0  0  0
 22 23  1  0  0  0  0
 22 24  2  0  0  0  0
 30 33  1  0  0  0  0
  8 11  1  0  0  0  0
 39 40  1  0  0  0  0
 18 21  1  0  0  0  0
 29 30  1  0  0  0  0
  7  8  1  0  0  0  0
 17 18  1  0  0  0  0
  3  4  1  0  0  0  0
  3  5  1  0  0  0  0
  3  6  1  0  0  0  0
 33 36  1  0  0  0  0
 33 37  1  0  0  0  0
 33 38  1  0  0  0  0
 11 14  1  0  0  0  0
 11 15  1  0  0  0  0
 11 16  1  0  0  0  0
 40 42  1  0  0  0  0
 40 43  1  0  0  0  0
 40 44  1  0  0  0  0
 21 27  1  0  0  0  0
 21 28  1  0  0  0  0
 30 35  1  0  0  0  0
  8 13  1  0  0  0  0
 18 26  1  0  0  0  0
 39 41  1  0  0  0  0
  7 12  1  0  0  0  0
 29 34  1  0  0  0  0
 17 25  1  0  0  0  0
M  CHG  1  23  -1
M  END
$$$$

  -OEChem-05262214473D

 44 43  0     1  0  0  0  0  0999 V2000
   -4.0256   -1.8030   -2.1581 C   0  0  0  0  0  0  0  0  0  0  0  0
   -3.7513   -2.6782   -2.9709 O   0  0  0  0  0  0  0  0  0  0  0  0
   -5.3491   -1.1169   -2.2339 C   0  0  0  0  0  0  0  0  0  0  0  0
   -5.3223   -0.2211   -2.8750 H   0  0  0  0  0  0  0  0  0  0  0  0
   -6.1322   -1.7605   -2.6658 H   0  0  0  0  0  0  0  0  0  0  0  0
   -5.7568   -0.7715   -1.2704 H   0  0  0  0  0  0  0  0  0  0  0  0
   -3.2124   -1.3578   -1.1289 N   0  0  0  0  0  0  0  0  0  0  0  0
   -1.8971   -1.8843   -0.8752 C   0  0  2  0  0  0  0  0  0  0  0  0
   -1.2676   -1.0599    0.2399 C   0  0  0  0  0  0  0  0  0  0  0  0
   -1.6270    0.0833    0.5138 O   0  0  0  0  0  0  0  0  0  0  0  0
   -1.0364   -1.8506   -2.1285 C   0  0  0  0  0  0  0  0  0  0  0  0
   -3.5631   -0.6202   -0.5206 H   0  0  0  0  0  0  0  0  0  0  0  0
   -2.0301   -2.9174   -0.5360 H   0  0  0  0  0  0  0  0  0  0  0  0
   -0.8921   -0.8236   -2.4833 H   0  0  0  0  0  0  0  0  0  0  0  0
   -0.0457   -2.2777   -1.9410 H   0  0  0  0  0  0  0  0  0  0  0  0
   -1.5052   -2.4193   -2.9387 H   0  0  0  0  0  0  0  0  0  0  0  0
   -0.2267   -1.7335    0.8672 N   0  0  0  0  0  0  0  0  0  0  0  0
    0.5363   -1.1590    1.9465 C   0  0  2  0  0  0  0  0  0  0  0  0
    0.6759   -2.2322    3.0201 C   0  0  0  0  0  0  0  0  0  0  0  0
    1.6302   -3.0052    3.0751 O   0  0  0  0  0  0  0  0  0  0  0  0
   -0.1373    0.0866    2.5177 C   0  0  0  0  0  0  0  0  0  0  0  0
   -0.1678    1.3225    1.6094 C   0  0  0  0  0  0  0  0  0  0  0  0
    0.8000    1.3901    0.7971 O   0  5  0  0  0  0  0  0  0  0  0  0
   -1.1287    2.1224    1.7754 O   0  0  0  0  0  0  0  0  0  0  0  0
   -0.0113   -2.6869    0.5854 H   0  0  0  0  0  0  0  0  0  0  0  0
    1.5270   -0.9232    1.5417 H   0  0  0  0  0  0  0  0  0  0  0  0
    0.3516    0.3719    3.4592 H   0  0  0  0  0  0  0  0  0  0  0  0
   -1.1822   -0.1399    2.7669 H   0  0  0  0  0  0  0  0  0  0  0  0
   -0.3639   -2.1899    3.9383 N   0  0  0  0  0  0  0  0  0  0  0  0
   -0.4446   -3.0838    5.0700 C   0  0  2  0  0  0  0  0  0  0  0  0
   -1.9172   -3.3230    5.3763 C   0  0  0  0  0  0  0  0  0  0  0  0
   -2.8081   -2.5487    5.0330 O   0  0  0  0  0  0  0  0  0  0  0  0
    0.2762   -2.5108    6.2803 C   0  0  0  0  0  0  0  0  0  0  0  0
   -1.0876   -1.4837    3.8411 H   0  0  0  0  0  0  0  0  0  0  0  0
    0.0228   -4.0258    4.7630 H   0  0  0  0  0  0  0  0  0  0  0  0
   -0.1781   -1.5667    6.6025 H   0  0  0  0  0  0  0  0  0  0  0  0
    0.2385   -3.2021    7.1286 H   0  0  0  0  0  0  0  0  0  0  0  0
    1.3281   -2.3115    6.0492 H   0  0  0  0  0  0  0  0  0  0  0  0
   -2.1152   -4.4808    6.1156 N   0  0  0  0  0  0  0  0  0  0  0  0
   -3.4235   -4.9193    6.5422 C   0  0  0  0  0  0  0  0  0  0  0  0
   -1.3206   -5.0725    6.3397 H   0  0  0  0  0  0  0  0  0  0  0  0
   -3.6330   -4.5255    7.5477 H   0  0  0  0  0  0  0  0  0  0  0  0
   -4.1823   -4.5478    5.8377 H   0  0  0  0  0  0  0  0  0  0  0  0
   -3.4520   -6.0186    6.5657 H   0  0  0  0  0  0  0  0  0  0  0  0
  1  3  1  0  0  0  0
  1  7  1  0  0  0  0
  1  2  2  0  0  0  0
 30 31  1  0  0  0  0
 31 39  1  0  0  0  0
 31 32  2  0  0  0  0
  8  9  1  0  0  0  0
  9 17  1  0  0  0  0
  9 10  2  0  0  0  0
 18 19  1  0  0  0  0
 19 29  1  0  0  0  0
 19 20  2  0  0  0  0
 21 22  1  0  0  0  0
 22 23  1  0  0  0  0
 22 24  2  0  0  0  0
 30 33  1  0  0  0  0
  8 11  1  0  0  0  0
 39 40  1  0  0  0  0
 18 21  1  0  0  0  0
 29 30  1  0  0  0  0
  7  8  1  0  0  0  0
 17 18  1  0  0  0  0
  3  4  1  0  0  0  0
  3  5  1  0  0  0  0
  3  6  1  0  0  0  0
 33 36  1  0  0  0  0
 33 37  1  0  0  0  0
 33 38  1  0  0  0  0
 11 14  1  0  0  0  0
 11 15  1  0  0  0  0
 11 16  1  0  0  0  0
 40 42  1  0  0  0  0
 40 43  1  0  0  0  0
 40 44  1  0  0  0  0
 21 27  1  0  0  0  0
 21 28  1  0  0  0  0
 30 35  1  0  0  0  0
  8 13  1  0  0  0  0
 18 26  1  0  0  0  0
 39 41  1  0  0  0  0
  7 12  1  0  0  0  0
 29 34  1  0  0  0  0
 17 25  1  0  0  0  0
M  CHG  1  23  -1
M  END
$$$$

  -OEChem-05262214473D

 44 43  0     1  0  0  0  0  0999 V2000
   -4.0256   -1.8030   -2.1581 C   0  0  0  0  0  0  0  0  0  0  0  0
   -3.7513   -2.6782   -2.9709 O   0  0  0  0  0  0  0  0  0  0  0  0
   -5.3491   -1.1169   -2.2339 C   0  0  0  0  0  0  0  0  0  0  0  0
   -5.3223   -0.2211   -2.8750 H   0  0  0  0  0  0  0  0  0  0  0  0
   -6.1322   -1.7605   -2.6658 H   0  0  0  0  0  0  0  0  0  0  0  0
   -5.7568   -0.7715   -1.2704 H   0  0  0  0  0  0  0  0  0  0  0  0
   -3.2124   -1.3578   -1.1289 N   0  0  0  0  0  0  0  0  0  0  0  0
   -1.8971   -1.8843   -0.8752 C   0  0  2  0  0  0  0  0  0  0  0  0
   -1.2676   -1.0599    0.2399 C   0  0  0  0  0  0  0  0  0  0  0  0
   -1.6270    0.0833    0.5138 O   0  0  0  0  0  0  0  0  0  0  0  0
   -1.0364   -1.8506   -2.1285 C   0  0  0  0  0  0  0  0  0  0  0  0
   -3.5631   -0.6202   -0.5206 H   0  0  0  0  0  0  0  0  0  0  0  0
   -2.0301   -2.9174   -0.5360 H   0  0  0  0  0  0  0  0  0  0  0  0
   -0.8921   -0.8236   -2.4833 H   0  0  0  0  0  0  0  0  0  0  0  0
   -0.0457   -2.2777   -1.9410 H   0  0  0  0  0  0  0  0  0  0  0  0
   -1.5052   -2.4193   -2.9387 H   0  0  0  0  0  0  0  0  0  0  0  0
   -0.2267   -1.7335    0.8672 N   0  0  0  0  0  0  0  0  0  0  0  0
    0.5363   -1.1590    1.9465 C   0  0  2  0  0  0  0  0  0  0  0  0
    0.6759   -2.2322    3.0201 C   0  0  0  0  0  0  0  0  0  0  0  0
    1.7307   -2.8223    3.2449 O   0  0  0  0  0  0  0  0  0  0  0  0
   -0.1373    0.0866    2.5177 C   0  0  0  0  0  0  0  0  0  0  0  0
   -0.1678    1.3225    1.6094 C   0  0  0  0  0  0  0  0  0  0  0  0
    0.8000    1.3901    0.7971 O   0  5  0  0  0  0  0  0  0  0  0  0
   -1.1287    2.1224    1.7754 O   0  0  0  0  0  0  0  0  0  0  0  0
   -0.0113   -2.6869    0.5854 H   0  0  0  0  0  0  0  0  0  0  0  0
    1.5270   -0.9232    1.5417 H   0  0  0  0  0  0  0  0  0  0  0  0
    0.3516    0.3719    3.4592 H   0  0  0  0  0  0  0  0  0  0  0  0
   -1.1822   -0.1399    2.7669 H   0  0  0  0  0  0  0  0  0  0  0  0
   -0.5019   -2.4152    3.7311 N   0  0  0  0  0  0  0  0  0  0  0  0
   -0.6187   -3.3542    4.8224 C   0  0  2  0  0  0  0  0  0  0  0  0
   -2.0525   -3.8669    4.8502 C   0  0  0  0  0  0  0  0  0  0  0  0
   -2.9944   -3.2524    4.3538 O   0  0  0  0  0  0  0  0  0  0  0  0
   -0.2458   -2.7104    6.1487 C   0  0  0  0  0  0  0  0  0  0  0  0
   -1.3138   -1.8475    3.5069 H   0  0  0  0  0  0  0  0  0  0  0  0
    0.0620   -4.1833    4.6004 H   0  0  0  0  0  0  0  0  0  0  0  0
   -0.9169   -1.8774    6.3880 H   0  0  0  0  0  0  0  0  0  0  0  0
   -0.3074   -3.4310    6.9708 H   0  0  0  0  0  0  0  0  0  0  0  0
    0.7755   -2.3157    6.1169 H   0  0  0  0  0  0  0  0  0  0  0  0
   -2.1633   -5.0705    5.5324 N   0  0  0  0  0  0  0  0  0  0  0  0
   -3.4233   -5.7543    5.7074 C   0  0  0  0  0  0  0  0  0  0  0  0
   -1.3267   -5.5180    5.8952 H   0  0  0  0  0  0  0  0  0  0  0  0
   -3.8793   -5.4459    6.6597 H   0  0  0  0  0  0  0  0  0  0  0  0
   -4.0982   -5.4973    4.8776 H   0  0  0  0  0  0  0  0  0  0  0  0
   -3.2523   -6.8409    5.7178 H   0  0  0  0  0  0  0  0  0  0  0  0
  1  3  1  0  0  0  0
  1  7  1  0  0  0  0
  1  2  2  0  0  0  0
 30 31  1  0  0  0  0
 31 39  1  0  0  0  0
 31 32  2  0  0  0  0
  8  9  1  0  0  0  0
  9 17  1  0  0  0  0
  9 10  2  0  0  0  0
 18 19  1  0  0  0  0
 19 29  1  0  0  0  0
 19 20  2  0  0  0  0
 21 22  1  0  0  0  0
 22 23  1  0  0  0  0
 22 24  2  0  0  0  0
 30 33  1  0  0  0  0
  8 11  1  0  0  0  0
 39 40  1  0  0  0  0
 18 21  1  0  0  0  0
 29 30  1  0  0  0  0
  7  8  1  0  0  0  0
 17 18  1  0  0  0  0
  3  4  1  0  0  0  0
  3  5  1  0  0  0  0
  3  6  1  0  0  0  0
 33 36  1  0  0  0  0
 33 37  1  0  0  0  0
 33 38  1  0  0  0  0
 11 14  1  0  0  0  0
 11 15  1  0  0  0  0
 11 16  1  0  0  0  0
 40 42  1  0  0  0  0
 40 43  1  0  0  0  0
 40 44  1  0  0  0  0
 21 27  1  0  0  0  0
 21 28  1  0  0  0  0
 30 35  1  0  0  0  0
  8 13  1  0  0  0  0
 18 26  1  0  0  0  0
 39 41  1  0  0  0  0
  7 12  1  0  0  0  0
 29 34  1  0  0  0  0
 17 25  1  0  0  0  0
M  CHG  1  23  -1
M  END
$$$$

  -OEChem-05262214473D

 44 43  0     1  0  0  0  0  0999 V2000
   -4.0256   -1.8030   -2.1581 C   0  0  0  0  0  0  0  0  0  0  0  0
   -3.7513   -2.6782   -2.9709 O   0  0  0  0  0  0  0  0  0  0  0  0
   -5.3491   -1.1169   -2.2339 C   0  0  0  0  0  0  0  0  0  0  0  0
   -5.3223   -0.2211   -2.8750 H   0  0  0  0  0  0  0  0  0  0  0  0
   -6.1322   -1.7605   -2.6658 H   0  0  0  0  0  0  0  0  0  0  0  0
   -5.7568   -0.7715   -1.2704 H   0  0  0  0  0  0  0  0  0  0  0  0
   -3.2124   -1.3578   -1.1289 N   0  0  0  0  0  0  0  0  0  0  0  0
   -1.8971   -1.8843   -0.8752 C   0  0  2  0  0  0  0  0  0  0  0  0
   -1.2676   -1.0599    0.2399 C   0  0  0  0  0  0  0  0  0  0  0  0
   -1.6270    0.0833    0.5138 O   0  0  0  0  0  0  0  0  0  0  0  0
   -1.0364   -1.8506   -2.1285 C   0  0  0  0  0  0  0  0  0  0  0  0
   -3.5631   -0.6202   -0.5206 H   0  0  0  0  0  0  0  0  0  0  0  0
   -2.0301   -2.9174   -0.5360 H   0  0  0  0  0  0  0  0  0  0  0  0
   -0.8921   -0.8236   -2.4833 H   0  0  0  0  0  0  0  0  0  0  0  0
   -0.0457   -2.2777   -1.9410 H   0  0  0  0  0  0  0  0  0  0  0  0
   -1.5052   -2.4193   -2.9387 H   0  0  0  0  0  0  0  0  0  0  0  0
   -0.2267   -1.7335    0.8672 N   0  0  0  0  0  0  0  0  0  0  0  0
    0.5363   -1.1590    1.9465 C   0  0  2  0  0  0  0  0  0  0  0  0
    0.6759   -2.2322    3.0201 C   0  0  0  0  0  0  0  0  0  0  0  0
    1.7634   -2.6313    3.4315 O   0  0  0  0  0  0  0  0  0  0  0  0
   -0.1373    0.0866    2.5177 C   0  0  0  0  0  0  0  0  0  0  0  0
   -0.1678    1.3225    1.6094 C   0  0  0  0  0  0  0  0  0  0  0  0
    0.8000    1.3901    0.7971 O   0  5  0  0  0  0  0  0  0  0  0  0
   -1.1287    2.1224    1.7754 O   0  0  0  0  0  0  0  0  0  0  0  0
   -0.0113   -2.6869    0.5854 H   0  0  0  0  0  0  0  0  0  0  0  0
    1.5270   -0.9232    1.5417 H   0  0  0  0  0  0  0  0  0  0  0  0
    0.3516    0.3719    3.4592 H   0  0  0  0  0  0  0  0  0  0  0  0
   -1.1822   -0.1399    2.7669 H   0  0  0  0  0  0  0  0  0  0  0  0
   -0.5563   -2.6530    3.5004 N   0  0  0  0  0  0  0  0  0  0  0  0
   -0.6924   -3.6413    4.5451 C   0  0  2  0  0  0  0  0  0  0  0  0
   -1.9882   -4.4045    4.3045 C   0  0  0  0  0  0  0  0  0  0  0  0
   -2.9222   -3.9500    3.6471 O   0  0  0  0  0  0  0  0  0  0  0  0
   -0.6896   -2.9952    5.9217 C   0  0  0  0  0  0  0  0  0  0  0  0
   -1.4052   -2.2322    3.1342 H   0  0  0  0  0  0  0  0  0  0  0  0
    0.1582   -4.3245    4.4468 H   0  0  0  0  0  0  0  0  0  0  0  0
   -1.5348   -2.3071    6.0389 H   0  0  0  0  0  0  0  0  0  0  0  0
   -0.7641   -3.7479    6.7135 H   0  0  0  0  0  0  0  0  0  0  0  0
    0.2301   -2.4221    6.0815 H   0  0  0  0  0  0  0  0  0  0  0  0
   -1.9960   -5.6350    4.9463 N   0  0  0  0  0  0  0  0  0  0  0  0
   -3.1188   -6.5411    4.8813 C   0  0  0  0  0  0  0  0  0  0  0  0
   -1.1704   -5.9389    5.4541 H   0  0  0  0  0  0  0  0  0  0  0  0
   -3.7877   -6.3588    5.7353 H   0  0  0  0  0  0  0  0  0  0  0  0
   -3.6689   -6.3764    3.9431 H   0  0  0  0  0  0  0  0  0  0  0  0
   -2.7549   -7.5786    4.9157 H   0  0  0  0  0  0  0  0  0  0  0  0
  1  3  1  0  0  0  0
  1  7  1  0  0  0  0
  1  2  2  0  0  0  0
 30 31  1  0  0  0  0
 31 39  1  0  0  0  0
 31 32  2  0  0  0  0
  8  9  1  0  0  0  0
  9 17  1  0  0  0  0
  9 10  2  0  0  0  0
 18 19  1  0  0  0  0
 19 29  1  0  0  0  0
 19 20  2  0  0  0  0
 21 22  1  0  0  0  0
 22 23  1  0  0  0  0
 22 24  2  0  0  0  0
 30 33  1  0  0  0  0
  8 11  1  0  0  0  0
 39 40  1  0  0  0  0
 18 21  1  0  0  0  0
 29 30  1  0  0  0  0
  7  8  1  0  0  0  0
 17 18  1  0  0  0  0
  3  4  1  0  0  0  0
  3  5  1  0  0  0  0
  3  6  1  0  0  0  0
 33 36  1  0  0  0  0
 33 37  1  0  0  0  0
 33 38  1  0  0  0  0
 11 14  1  0  0  0  0
 11 15  1  0  0  0  0
 11 16  1  0  0  0  0
 40 42  1  0  0  0  0
 40 43  1  0  0  0  0
 40 44  1  0  0  0  0
 21 27  1  0  0  0  0
 21 28  1  0  0  0  0
 30 35  1  0  0  0  0
  8 13  1  0  0  0  0
 18 26  1  0  0  0  0
 39 41  1  0  0  0  0
  7 12  1  0  0  0  0
 29 34  1  0  0  0  0
 17 25  1  0  0  0  0
M  CHG  1  23  -1
M  END
$$$$

  -OEChem-05262214473D

 44 43  0     1  0  0  0  0  0999 V2000
   -4.0256   -1.8030   -2.1581 C   0  0  0  0  0  0  0  0  0  0  0  0
   -3.7513   -2.6782   -2.9709 O   0  0  0  0  0  0  0  0  0  0  0  0
   -5.3491   -1.1169   -2.2339 C   0  0  0  0  0  0  0  0  0  0  0  0
   -5.3223   -0.2211   -2.8750 H   0  0  0  0  0  0  0  0  0  0  0  0
   -6.1322   -1.7605   -2.6658 H   0  0  0  0  0  0  0  0  0  0  0  0
   -5.7568   -0.7715   -1.2704 H   0  0  0  0  0  0  0  0  0  0  0  0
   -3.2124   -1.3578   -1.1289 N   0  0  0  0  0  0  0  0  0  0  0  0
   -1.8971   -1.8843   -0.8752 C   0  0  2  0  0  0  0  0  0  0  0  0
   -1.2676   -1.0599    0.2399 C   0  0  0  0  0  0  0  0  0  0  0  0
   -1.6270    0.0833    0.5138 O   0  0  0  0  0  0  0  0  0  0  0  0
   -1.0364   -1.8506   -2.1285 C   0  0  0  0  0  0  0  0  0  0  0  0
   -3.5631   -0.6202   -0.5206 H   0  0  0  0  0  0  0  0  0  0  0  0
   -2.0301   -2.9174   -0.5360 H   0  0  0  0  0  0  0  0  0  0  0  0
   -0.8921   -0.8236   -2.4833 H   0  0  0  0  0  0  0  0  0  0  0  0
   -0.0457   -2.2777   -1.9410 H   0  0  0  0  0  0  0  0  0  0  0  0
   -1.5052   -2.4193   -2.9387 H   0  0  0  0  0  0  0  0  0  0  0  0
   -0.2267   -1.7335    0.8672 N   0  0  0  0  0  0  0  0  0  0  0  0
    0.5363   -1.1590    1.9465 C   0  0  2  0  0  0  0  0  0  0  0  0
    0.6759   -2.2322    3.0201 C   0  0  0  0  0  0  0  0  0  0  0  0
    1.7263   -2.4453    3.6222 O   0  0  0  0  0  0  0  0  0  0  0  0
   -0.1373    0.0866    2.5177 C   0  0  0  0  0  0  0  0  0  0  0  0
   -0.1678    1.3225    1.6094 C   0  0  0  0  0  0  0  0  0  0  0  0
    0.8000    1.3901    0.7971 O   0  5  0  0  0  0  0  0  0  0  0  0
   -1.1287    2.1224    1.7754 O   0  0  0  0  0  0  0  0  0  0  0  0
   -0.0113   -2.6869    0.5854 H   0  0  0  0  0  0  0  0  0  0  0  0
    1.5270   -0.9232    1.5417 H   0  0  0  0  0  0  0  0  0  0  0  0
    0.3516    0.3719    3.4592 H   0  0  0  0  0  0  0  0  0  0  0  0
   -1.1822   -0.1399    2.7669 H   0  0  0  0  0  0  0  0  0  0  0  0
   -0.5235   -2.8872    3.2621 N   0  0  0  0  0  0  0  0  0  0  0  0
   -0.6607   -3.9254    4.2569 C   0  0  2  0  0  0  0  0  0  0  0  0
   -1.7287   -4.8990    3.7763 C   0  0  0  0  0  0  0  0  0  0  0  0
   -2.5966   -4.5939    2.9611 O   0  0  0  0  0  0  0  0  0  0  0  0
   -1.0251   -3.3458    5.6149 C   0  0  0  0  0  0  0  0  0  0  0  0
   -1.3554   -2.6116    2.7485 H   0  0  0  0  0  0  0  0  0  0  0  0
    0.3049   -4.4397    4.3125 H   0  0  0  0  0  0  0  0  0  0  0  0
   -1.9897   -2.8265    5.5789 H   0  0  0  0  0  0  0  0  0  0  0  0
   -1.1007   -4.1312    6.3741 H   0  0  0  0  0  0  0  0  0  0  0  0
   -0.2709   -2.6235    5.9454 H   0  0  0  0  0  0  0  0  0  0  0  0
   -1.6247   -6.1359    4.3973 N   0  0  0  0  0  0  0  0  0  0  0  0
   -2.5307   -7.2260    4.1202 C   0  0  0  0  0  0  0  0  0  0  0  0
   -0.8624   -6.3066    5.0465 H   0  0  0  0  0  0  0  0  0  0  0  0
   -3.3644   -7.2019    4.8374 H   0  0  0  0  0  0  0  0  0  0  0  0
   -2.9237   -7.1251    3.0978 H   0  0  0  0  0  0  0  0  0  0  0  0
   -1.9939   -8.1816    4.2140 H   0  0  0  0  0  0  0  0  0  0  0  0
  1  3  1  0  0  0  0
  1  7  1  0  0  0  0
  1  2  2  0  0  0  0
 30 31  1  0  0  0  0
 31 39  1  0  0  0  0
 31 32  2  0  0  0  0
  8  9  1  0  0  0  0
  9 17  1  0  0  0  0
  9 10  2  0  0  0  0
 18 19  1  0  0  0  0
 19 29  1  0  0  0  0
 19 20  2  0  0  0  0
 21 22  1  0  0  0  0
 22 23  1  0  0  0  0
 22 24  2  0  0  0  0
 30 33  1  0  0  0  0
  8 11  1  0  0  0  0
 39 40  1  0  0  0  0
 18 21  1  0  0  0  0
 29 30  1  0  0  0  0
  7  8  1  0  0  0  0
 17 18  1  0  0  0  0
  3  4  1  0  0  0  0
  3  5  1  0  0  0  0
  3  6  1  0  0  0  0
 33 36  1  0  0  0  0
 33 37  1  0  0  0  0
 33 38  1  0  0  0  0
 11 14  1  0  0  0  0
 11 15  1  0  0  0  0
 11 16  1  0  0  0  0
 40 42  1  0  0  0  0
 40 43  1  0  0  0  0
 40 44  1  0  0  0  0
 21 27  1  0  0  0  0
 21 28  1  0  0  0  0
 30 35  1  0  0  0  0
  8 13  1  0  0  0  0
 18 26  1  0  0  0  0
 39 41  1  0  0  0  0
  7 12  1  0  0  0  0
 29 34  1  0  0  0  0
 17 25  1  0  0  0  0
M  CHG  1  23  -1
M  END
$$$$

  -OEChem-05262214473D

 44 43  0     1  0  0  0  0  0999 V2000
   -4.0256   -1.8030   -2.1581 C   0  0  0  0  0  0  0  0  0  0  0  0
   -3.7513   -2.6782   -2.9709 O   0  0  0  0  0  0  0  0  0  0  0  0
   -5.3491   -1.1169   -2.2339 C   0  0  0  0  0  0  0  0  0  0  0  0
   -5.3223   -0.2211   -2.8750 H   0  0  0  0  0  0  0  0  0  0  0  0
   -6.1322   -1.7605   -2.6658 H   0  0  0  0  0  0  0  0  0  0  0  0
   -5.7568   -0.7715   -1.2704 H   0  0  0  0  0  0  0  0  0  0  0  0
   -3.2124   -1.3578   -1.1289 N   0  0  0  0  0  0  0  0  0  0  0  0
   -1.8971   -1.8843   -0.8752 C   0  0  2  0  0  0  0  0  0  0  0  0
   -1.2676   -1.0599    0.2399 C   0  0  0  0  0  0  0  0  0  0  0  0
   -1.6270    0.0833    0.5138 O   0  0  0  0  0  0  0  0  0  0  0  0
   -1.0364   -1.8506   -2.1285 C   0  0  0  0  0  0  0  0  0  0  0  0
   -3.5631   -0.6202   -0.5206 H   0  0  0  0  0  0  0  0  0  0  0  0
   -2.0301   -2.9174   -0.5360 H   0  0  0  0  0  0  0  0  0  0  0  0
   -0.8921   -0.8236   -2.4833 H   0  0  0  0  0  0  0  0  0  0  0  0
   -0.0457   -2.2777   -1.9410 H   0  0  0  0  0  0  0  0  0  0  0  0
   -1.5052   -2.4193   -2.9387 H   0  0  0  0  0  0  0  0  0  0  0  0
   -0.2267   -1.7335    0.8672 N   0  0  0  0  0  0  0  0  0  0  0  0
    0.5363   -1.1590    1.9465 C   0  0  2  0  0  0  0  0  0  0  0  0
    0.6759   -2.2322    3.0201 C   0  0  0  0  0  0  0  0  0  0  0  0
    1.6217   -2.2770    3.8041 O   0  0  0  0  0  0  0  0  0  0  0  0
   -0.1373    0.0866    2.5177 C   0  0  0  0  0  0  0  0  0  0  0  0
   -0.1678    1.3225    1.6094 C   0  0  0  0  0  0  0  0  0  0  0  0
    0.8000    1.3901    0.7971 O   0  5  0  0  0  0  0  0  0  0  0  0
   -1.1287    2.1224    1.7754 O   0  0  0  0  0  0  0  0  0  0  0  0
   -0.0113   -2.6869    0.5854 H   0  0  0  0  0  0  0  0  0  0  0  0
    1.5270   -0.9232    1.5417 H   0  0  0  0  0  0  0  0  0  0  0  0
    0.3516    0.3719    3.4592 H   0  0  0  0  0  0  0  0  0  0  0  0
   -1.1822   -0.1399    2.7669 H   0  0  0  0  0  0  0  0  0  0  0  0
   -0.4057   -3.1018    3.0323 N   0  0  0  0  0  0  0  0  0  0  0  0
   -0.5258   -4.1872    3.9777 C   0  0  2  0  0  0  0  0  0  0  0  0
   -1.2916   -5.3169    3.3017 C   0  0  0  0  0  0  0  0  0  0  0  0
   -2.0397   -5.1402    2.3425 O   0  0  0  0  0  0  0  0  0  0  0  0
   -1.2292   -3.7384    5.2491 C   0  0  0  0  0  0  0  0  0  0  0  0
   -1.1679   -2.9599    2.3760 H   0  0  0  0  0  0  0  0  0  0  0  0
    0.4920   -4.5211    4.2069 H   0  0  0  0  0  0  0  0  0  0  0  0
   -2.2506   -3.4002    5.0393 H   0  0  0  0  0  0  0  0  0  0  0  0
   -1.2941   -4.5547    5.9760 H   0  0  0  0  0  0  0  0  0  0  0  0
   -0.6933   -2.9060    5.7179 H   0  0  0  0  0  0  0  0  0  0  0  0
   -1.0747   -6.5390    3.9228 N   0  0  0  0  0  0  0  0  0  0  0  0
   -1.6991   -7.7623    3.4759 C   0  0  0  0  0  0  0  0  0  0  0  0
   -0.4235   -6.5958    4.7003 H   0  0  0  0  0  0  0  0  0  0  0  0
   -2.6382   -7.9179    4.0272 H   0  0  0  0  0  0  0  0  0  0  0  0
   -1.9135   -7.6924    2.3993 H   0  0  0  0  0  0  0  0  0  0  0  0
   -1.0211   -8.6086    3.6606 H   0  0  0  0  0  0  0  0  0  0  0  0
  1  3  1  0  0  0  0
  1  7  1  0  0  0  0
  1  2  2  0  0  0  0
 30 31  1  0  0  0  0
 31 39  1  0  0  0  0
 31 32  2  0  0  0  0
  8  9  1  0  0  0  0
  9 17  1  0  0  0  0
  9 10  2  0  0  0  0
 18 19  1  0  0  0  0
 19 29  1  0  0  0  0
 19 20  2  0  0  0  0
 21 22  1  0  0  0  0
 22 23  1  0  0  0  0
 22 24  2  0  0  0  0
 30 33  1  0  0  0  0
  8 11  1  0  0  0  0
 39 40  1  0  0  0  0
 18 21  1  0  0  0  0
 29 30  1  0  0  0  0
  7  8  1  0  0  0  0
 17 18  1  0  0  0  0
  3  4  1  0  0  0  0
  3  5  1  0  0  0  0
  3  6  1  0  0  0  0
 33 36  1  0  0  0  0
 33 37  1  0  0  0  0
 33 38  1  0  0  0  0
 11 14  1  0  0  0  0
 11 15  1  0  0  0  0
 11 16  1  0  0  0  0
 40 42  1  0  0  0  0
 40 43  1  0  0  0  0
 40 44  1  0  0  0  0
 21 27  1  0  0  0  0
 21 28  1  0  0  0  0
 30 35  1  0  0  0  0
  8 13  1  0  0  0  0
 18 26  1  0  0  0  0
 39 41  1  0  0  0  0
  7 12  1  0  0  0  0
 29 34  1  0  0  0  0
 17 25  1  0  0  0  0
M  CHG  1  23  -1
M  END
$$$$

  -OEChem-05262214473D

 44 43  0     1  0  0  0  0  0999 V2000
   -4.0256   -1.8030   -2.1581 C   0  0  0  0  0  0  0  0  0  0  0  0
   -3.7513   -2.6782   -2.9709 O   0  0  0  0  0  0  0  0  0  0  0  0
   -5.3491   -1.1169   -2.2339 C   0  0  0  0  0  0  0  0  0  0  0  0
   -5.3223   -0.2211   -2.8750 H   0  0  0  0  0  0  0  0  0  0  0  0
   -6.1322   -1.7605   -2.6658 H   0  0  0  0  0  0  0  0  0  0  0  0
   -5.7568   -0.7715   -1.2704 H   0  0  0  0  0  0  0  0  0  0  0  0
   -3.2124   -1.3578   -1.1289 N   0  0  0  0  0  0  0  0  0  0  0  0
   -1.8971   -1.8843   -0.8752 C   0  0  2  0  0  0  0  0  0  0  0  0
   -1.2676   -1.0599    0.2399 C   0  0  0  0  0  0  0  0  0  0  0  0
   -1.6270    0.0833    0.5138 O   0  0  0  0  0  0  0  0  0  0  0  0
   -1.0364   -1.8506   -2.1285 C   0  0  0  0  0  0  0  0  0  0  0  0
   -3.5631   -0.6202   -0.5206 H   0  0  0  0  0  0  0  0  0  0  0  0
   -2.0301   -2.9174   -0.5360 H   0  0  0  0  0  0  0  0  0  0  0  0
   -0.8921   -0.8236   -2.4833 H   0  0  0  0  0  0  0  0  0  0  0  0
   -0.0457   -2.2777   -1.9410 H   0  0  0  0  0  0  0  0  0  0  0  0
   -1.5052   -2.4193   -2.9387 H   0  0  0  0  0  0  0  0  0  0  0  0
   -0.2267   -1.7335    0.8672 N   0  0  0  0  0  0  0  0  0  0  0  0
    0.5363   -1.1590    1.9465 C   0  0  2  0  0  0  0  0  0  0  0  0
    0.6759   -2.2322    3.0201 C   0  0  0  0  0  0  0  0  0  0  0  0
    1.4569   -2.1377    3.9648 O   0  0  0  0  0  0  0  0  0  0  0  0
   -0.1373    0.0866    2.5177 C   0  0  0  0  0  0  0  0  0  0  0  0
   -0.1678    1.3225    1.6094 C   0  0  0  0  0  0  0  0  0  0  0  0
    0.8000    1.3901    0.7971 O   0  5  0  0  0  0  0  0  0  0  0  0
   -1.1287    2.1224    1.7754 O   0  0  0  0  0  0  0  0  0  0  0  0
   -0.0113   -2.6869    0.5854 H   0  0  0  0  0  0  0  0  0  0  0  0
    1.5270   -0.9232    1.5417 H   0  0  0  0  0  0  0  0  0  0  0  0
    0.3516    0.3719    3.4592 H   0  0  0  0  0  0  0  0  0  0  0  0
   -1.1822   -0.1399    2.7669 H   0  0  0  0  0  0  0  0  0  0  0  0
   -0.2109   -3.2821    2.8267 N   0  0  0  0  0  0  0  0  0  0  0  0
   -0.2969   -4.4089    3.7263 C   0  0  2  0  0  0  0  0  0  0  0  0
   -0.7067   -5.6297    2.9131 C   0  0  0  0  0  0  0  0  0  0  0  0
   -1.2895   -5.5518    1.8335 O   0  0  0  0  0  0  0  0  0  0  0  0
   -1.2882   -4.1461    4.8492 C   0  0  0  0  0  0  0  0  0  0  0  0
   -0.8554   -3.2533    2.0420 H   0  0  0  0  0  0  0  0  0  0  0  0
    0.7068   -4.5631    4.1369 H   0  0  0  0  0  0  0  0  0  0  0  0
   -2.2997   -3.9892    4.4570 H   0  0  0  0  0  0  0  0  0  0  0  0
   -1.3312   -4.9896    5.5461 H   0  0  0  0  0  0  0  0  0  0  0  0
   -1.0083   -3.2506    5.4145 H   0  0  0  0  0  0  0  0  0  0  0  0
   -0.3836   -6.8169    3.5551 N   0  0  0  0  0  0  0  0  0  0  0  0
   -0.6808   -8.1135    2.9924 C   0  0  0  0  0  0  0  0  0  0  0  0
    0.1162   -6.7871    4.4389 H   0  0  0  0  0  0  0  0  0  0  0  0
   -1.6586   -8.4579    3.3600 H   0  0  0  0  0  0  0  0  0  0  0  0
   -0.7069   -8.0396    1.8952 H   0  0  0  0  0  0  0  0  0  0  0  0
    0.0972   -8.8306    3.2932 H   0  0  0  0  0  0  0  0  0  0  0  0
  1  3  1  0  0  0  0
  1  7  1  0  0  0  0
  1  2  2  0  0  0  0
 30 31  1  0  0  0  0
 31 39  1  0  0  0  0
 31 32  2  0  0  0  0
  8  9  1  0  0  0  0
  9 17  1  0  0  0  0
  9 10  2  0  0  0  0
 18 19  1  0  0  0  0
 19 29  1  0  0  0  0
 19 20  2  0  0  0  0
 21 22  1  0  0  0  0
 22 23  1  0  0  0  0
 22 24  2  0  0  0  0
 30 33  1  0  0  0  0
  8 11  1  0  0  0  0
 39 40  1  0  0  0  0
 18 21  1  0  0  0  0
 29 30  1  0  0  0  0
  7  8  1  0  0  0  0
 17 18  1  0  0  0  0
  3  4  1  0  0  0  0
  3  5  1  0  0  0  0
  3  6  1  0  0  0  0
 33 36  1  0  0  0  0
 33 37  1  0  0  0  0
 33 38  1  0  0  0  0
 11 14  1  0  0  0  0
 11 15  1  0  0  0  0
 11 16  1  0  0  0  0
 40 42  1  0  0  0  0
 40 43  1  0  0  0  0
 40 44  1  0  0  0  0
 21 27  1  0  0  0  0
 21 28  1  0  0  0  0
 30 35  1  0  0  0  0
  8 13  1  0  0  0  0
 18 26  1  0  0  0  0
 39 41  1  0  0  0  0
  7 12  1  0  0  0  0
 29 34  1  0  0  0  0
 17 25  1  0  0  0  0
M  CHG  1  23  -1
M  END
$$$$

  -OEChem-05262214473D

 44 43  0     1  0  0  0  0  0999 V2000
   -4.0256   -1.8030   -2.1581 C   0  0  0  0  0  0  0  0  0  0  0  0
   -3.7513   -2.6782   -2.9709 O   0  0  0  0  0  0  0  0  0  0  0  0
   -5.3491   -1.1169   -2.2339 C   0  0  0  0  0  0  0  0  0  0  0  0
   -5.3223   -0.2211   -2.8750 H   0  0  0  0  0  0  0  0  0  0  0  0
   -6.1322   -1.7605   -2.6658 H   0  0  0  0  0  0  0  0  0  0  0  0
   -5.7568   -0.7715   -1.2704 H   0  0  0  0  0  0  0  0  0  0  0  0
   -3.2124   -1.3578   -1.1289 N   0  0  0  0  0  0  0  0  0  0  0  0
   -1.8971   -1.8843   -0.8752 C   0  0  2  0  0  0  0  0  0  0  0  0
   -1.2676   -1.0599    0.2399 C   0  0  0  0  0  0  0  0  0  0  0  0
   -1.6270    0.0833    0.5138 O   0  0  0  0  0  0  0  0  0  0  0  0
   -1.0364   -1.8506   -2.1285 C   0  0  0  0  0  0  0  0  0  0  0  0
   -3.5631   -0.6202   -0.5206 H   0  0  0  0  0  0  0  0  0  0  0  0
   -2.0301   -2.9174   -0.5360 H   0  0  0  0  0  0  0  0  0  0  0  0
   -0.8921   -0.8236   -2.4833 H   0  0  0  0  0  0  0  0  0  0  0  0
   -0.0457   -2.2777   -1.9410 H   0  0  0  0  0  0  0  0  0  0  0  0
   -1.5052   -2.4193   -2.9387 H   0  0  0  0  0  0  0  0  0  0  0  0
   -0.2267   -1.7335    0.8672 N   0  0  0  0  0  0  0  0  0  0  0  0
    0.5363   -1.1590    1.9465 C   0  0  2  0  0  0  0  0  0  0  0  0
    0.6759   -2.2322    3.0201 C   0  0  0  0  0  0  0  0  0  0  0  0
    1.2430   -2.0371    4.0932 O   0  0  0  0  0  0  0  0  0  0  0  0
   -0.1373    0.0866    2.5177 C   0  0  0  0  0  0  0  0  0  0  0  0
   -0.1678    1.3225    1.6094 C   0  0  0  0  0  0  0  0  0  0  0  0
    0.8000    1.3901    0.7971 O   0  5  0  0  0  0  0  0  0  0  0  0
   -1.1287    2.1224    1.7754 O   0  0  0  0  0  0  0  0  0  0  0  0
   -0.0113   -2.6869    0.5854 H   0  0  0  0  0  0  0  0  0  0  0  0
    1.5270   -0.9232    1.5417 H   0  0  0  0  0  0  0  0  0  0  0  0
    0.3516    0.3719    3.4592 H   0  0  0  0  0  0  0  0  0  0  0  0
   -1.1822   -0.1399    2.7669 H   0  0  0  0  0  0  0  0  0  0  0  0
    0.0475   -3.4159    2.6593 N   0  0  0  0  0  0  0  0  0  0  0  0
    0.0104   -4.5754    3.5199 C   0  0  2  0  0  0  0  0  0  0  0  0
   -0.0140   -5.8159    2.6368 C   0  0  0  0  0  0  0  0  0  0  0  0
   -0.3971   -5.8005    1.4688 O   0  0  0  0  0  0  0  0  0  0  0  0
   -1.1981   -4.5412    4.4425 C   0  0  0  0  0  0  0  0  0  0  0  0
   -0.4392   -3.4718    1.7695 H   0  0  0  0  0  0  0  0  0  0  0  0
    0.9348   -4.5628    4.1076 H   0  0  0  0  0  0  0  0  0  0  0  0
   -2.1337   -4.5532    3.8716 H   0  0  0  0  0  0  0  0  0  0  0  0
   -1.2094   -5.4062    5.1138 H   0  0  0  0  0  0  0  0  0  0  0  0
   -1.1946   -3.6336    5.0558 H   0  0  0  0  0  0  0  0  0  0  0  0
    0.4017   -6.9506    3.3192 N   0  0  0  0  0  0  0  0  0  0  0  0
    0.4550   -8.2556    2.7026 C   0  0  0  0  0  0  0  0  0  0  0  0
    0.7200   -6.8672    4.2802 H   0  0  0  0  0  0  0  0  0  0  0  0
   -0.4924   -8.7851    2.8812 H   0  0  0  0  0  0  0  0  0  0  0  0
    0.6136   -8.1432    1.6199 H   0  0  0  0  0  0  0  0  0  0  0  0
    1.2849   -8.8325    3.1367 H   0  0  0  0  0  0  0  0  0  0  0  0
  1  3  1  0  0  0  0
  1  7  1  0  0  0  0
  1  2  2  0  0  0  0
 30 31  1  0  0  0  0
 31 39  1  0  0  0  0
 31 32  2  0  0  0  0
  8  9  1  0  0  0  0
  9 17  1  0  0  0  0
  9 10  2  0  0  0  0
 18 19  1  0  0  0  0
 19 29  1  0  0  0  0
 19 20  2  0  0  0  0
 21 22  1  0  0  0  0
 22 23  1  0  0  0  0
 22 24  2  0  0  0  0
 30 33  1  0  0  0  0
  8 11  1  0  0  0  0
 39 40  1  0  0  0  0
 18 21  1  0  0  0  0
 29 30  1  0  0  0  0
  7  8  1  0  0  0  0
 17 18  1  0  0  0  0
  3  4  1  0  0  0  0
  3  5  1  0  0  0  0
  3  6  1  0  0  0  0
 33 36  1  0  0  0  0
 33 37  1  0  0  0  0
 33 38  1  0  0  0  0
 11 14  1  0  0  0  0
 11 15  1  0  0  0  0
 11 16  1  0  0  0  0
 40 42  1  0  0  0  0
 40 43  1  0  0  0  0
 40 44  1  0  0  0  0
 21 27  1  0  0  0  0
 21 28  1  0  0  0  0
 30 35  1  0  0  0  0
  8 13  1  0  0  0  0
 18 26  1  0  0  0  0
 39 41  1  0  0  0  0
  7 12  1  0  0  0  0
 29 34  1  0  0  0  0
 17 25  1  0  0  0  0
M  CHG  1  23  -1
M  END
$$$$

  -OEChem-05262214473D

 44 43  0     1  0  0  0  0  0999 V2000
   -4.0256   -1.8030   -2.1581 C   0  0  0  0  0  0  0  0  0  0  0  0
   -3.7513   -2.6782   -2.9709 O   0  0  0  0  0  0  0  0  0  0  0  0
   -5.3491   -1.1169   -2.2339 C   0  0  0  0  0  0  0  0  0  0  0  0
   -5.3223   -0.2211   -2.8750 H   0  0  0  0  0  0  0  0  0  0  0  0
   -6.1322   -1.7605   -2.6658 H   0  0  0  0  0  0  0  0  0  0  0  0
   -5.7568   -0.7715   -1.2704 H   0  0  0  0  0  0  0  0  0  0  0  0
   -3.2124   -1.3578   -1.1289 N   0  0  0  0  0  0  0  0  0  0  0  0
   -1.8971   -1.8843   -0.8752 C   0  0  2  0  0  0  0  0  0  0  0  0
   -1.2676   -1.0599    0.2399 C   0  0  0  0  0  0  0  0  0  0  0  0
   -1.6270    0.0833    0.5138 O   0  0  0  0  0  0  0  0  0  0  0  0
   -1.0364   -1.8506   -2.1285 C   0  0  0  0  0  0  0  0  0  0  0  0
   -3.5631   -0.6202   -0.5206 H   0  0  0  0  0  0  0  0  0  0  0  0
   -2.0301   -2.9174   -0.5360 H   0  0  0  0  0  0  0  0  0  0  0  0
   -0.8921   -0.8236   -2.4833 H   0  0  0  0  0  0  0  0  0  0  0  0
   -0.0457   -2.2777   -1.9410 H   0  0  0  0  0  0  0  0  0  0  0  0
   -1.5052   -2.4193   -2.9387 H   0  0  0  0  0  0  0  0  0  0  0  0
   -0.2267   -1.7335    0.8672 N   0  0  0  0  0  0  0  0  0  0  0  0
    0.5363   -1.1590    1.9465 C   0  0  2  0  0  0  0  0  0  0  0  0
    0.6759   -2.2322    3.0201 C   0  0  0  0  0  0  0  0  0  0  0  0
    0.9947   -1.9819    4.1807 O   0  0  0  0  0  0  0  0  0  0  0  0
   -0.1373    0.0866    2.5177 C   0  0  0  0  0  0  0  0  0  0  0  0
   -0.1678    1.3225    1.6094 C   0  0  0  0  0  0  0  0  0  0  0  0
    0.8000    1.3901    0.7971 O   0  5  0  0  0  0  0  0  0  0  0  0
   -1.1287    2.1224    1.7754 O   0  0  0  0  0  0  0  0  0  0  0  0
   -0.0113   -2.6869    0.5854 H   0  0  0  0  0  0  0  0  0  0  0  0
    1.5270   -0.9232    1.5417 H   0  0  0  0  0  0  0  0  0  0  0  0
    0.3516    0.3719    3.4592 H   0  0  0  0  0  0  0  0  0  0  0  0
   -1.1822   -0.1399    2.7669 H   0  0  0  0  0  0  0  0  0  0  0  0
    0.3521   -3.4941    2.5415 N   0  0  0  0  0  0  0  0  0  0  0  0
    0.3752   -4.6753    3.3726 C   0  0  2  0  0  0  0  0  0  0  0  0
    0.7395   -5.8630    2.4917 C   0  0  0  0  0  0  0  0  0  0  0  0
    0.5766   -5.8694    1.2733 O   0  0  0  0  0  0  0  0  0  0  0  0
   -0.9648   -4.8967    4.0568 C   0  0  0  0  0  0  0  0  0  0  0  0
    0.0522   -3.6005    1.5769 H   0  0  0  0  0  0  0  0  0  0  0  0
    1.1602   -4.5203    4.1207 H   0  0  0  0  0  0  0  0  0  0  0  0
   -1.7639   -5.0538    3.3230 H   0  0  0  0  0  0  0  0  0  0  0  0
   -0.9370   -5.7762    4.7085 H   0  0  0  0  0  0  0  0  0  0  0  0
   -1.2393   -4.0290    4.6664 H   0  0  0  0  0  0  0  0  0  0  0  0
    1.2276   -6.9311    3.2314 N   0  0  0  0  0  0  0  0  0  0  0  0
    1.6308   -8.1790    2.6262 C   0  0  0  0  0  0  0  0  0  0  0  0
    1.3467   -6.8308    4.2351 H   0  0  0  0  0  0  0  0  0  0  0  0
    0.7809   -8.8773    2.6235 H   0  0  0  0  0  0  0  0  0  0  0  0
    1.9582   -7.9959    1.5921 H   0  0  0  0  0  0  0  0  0  0  0  0
    2.4609   -8.6142    3.2020 H   0  0  0  0  0  0  0  0  0  0  0  0
  1  3  1  0  0  0  0
  1  7  1  0  0  0  0
  1  2  2  0  0  0  0
 30 31  1  0  0  0  0
 31 39  1  0  0  0  0
 31 32  2  0  0  0  0
  8  9  1  0  0  0  0
  9 17  1  0  0  0  0
  9 10  2  0  0  0  0
 18 19  1  0  0  0  0
 19 29  1  0  0  0  0
 19 20  2  0  0  0  0
 21 22  1  0  0  0  0
 22 23  1  0  0  0  0
 22 24  2  0  0  0  0
 30 33  1  0  0  0  0
  8 11  1  0  0  0  0
 39 40  1  0  0  0  0
 18 21  1  0  0  0  0
 29 30  1  0  0  0  0
  7  8  1  0  0  0  0
 17 18  1  0  0  0  0
  3  4  1  0  0  0  0
  3  5  1  0  0  0  0
  3  6  1  0  0  0  0
 33 36  1  0  0  0  0
 33 37  1  0  0  0  0
 33 38  1  0  0  0  0
 11 14  1  0  0  0  0
 11 15  1  0  0  0  0
 11 16  1  0  0  0  0
 40 42  1  0  0  0  0
 40 43  1  0  0  0  0
 40 44  1  0  0  0  0
 21 27  1  0  0  0  0
 21 28  1  0  0  0  0
 30 35  1  0  0  0  0
  8 13  1  0  0  0  0
 18 26  1  0  0  0  0
 39 41  1  0  0  0  0
  7 12  1  0  0  0  0
 29 34  1  0  0  0  0
 17 25  1  0  0  0  0
M  CHG  1  23  -1
M  END
$$$$

  -OEChem-05262214473D

 44 43  0     1  0  0  0  0  0999 V2000
   -4.0256   -1.8030   -2.1581 C   0  0  0  0  0  0  0  0  0  0  0  0
   -3.7513   -2.6782   -2.9709 O   0  0  0  0  0  0  0  0  0  0  0  0
   -5.3491   -1.1169   -2.2339 C   0  0  0  0  0  0  0  0  0  0  0  0
   -5.3223   -0.2211   -2.8750 H   0  0  0  0  0  0  0  0  0  0  0  0
   -6.1322   -1.7605   -2.6658 H   0  0  0  0  0  0  0  0  0  0  0  0
   -5.7568   -0.7715   -1.2704 H   0  0  0  0  0  0  0  0  0  0  0  0
   -3.2124   -1.3578   -1.1289 N   0  0  0  0  0  0  0  0  0  0  0  0
   -1.8971   -1.8843   -0.8752 C   0  0  2  0  0  0  0  0  0  0  0  0
   -1.2676   -1.0599    0.2399 C   0  0  0  0  0  0  0  0  0  0  0  0
   -1.6270    0.0833    0.5138 O   0  0  0  0  0  0  0  0  0  0  0  0
   -1.0364   -1.8506   -2.1285 C   0  0  0  0  0  0  0  0  0  0  0  0
   -3.5631   -0.6202   -0.5206 H   0  0  0  0  0  0  0  0  0  0  0  0
   -2.0301   -2.9174   -0.5360 H   0  0  0  0  0  0  0  0  0  0  0  0
   -0.8921   -0.8236   -2.4833 H   0  0  0  0  0  0  0  0  0  0  0  0
   -0.0457   -2.2777   -1.9410 H   0  0  0  0  0  0  0  0  0  0  0  0
   -1.5052   -2.4193   -2.9387 H   0  0  0  0  0  0  0  0  0  0  0  0
   -0.2267   -1.7335    0.8672 N   0  0  0  0  0  0  0  0  0  0  0  0
    0.5363   -1.1590    1.9465 C   0  0  2  0  0  0  0  0  0  0  0  0
    0.6759   -2.2322    3.0201 C   0  0  0  0  0  0  0  0  0  0  0  0
    0.7288   -1.9759    4.2212 O   0  0  0  0  0  0  0  0  0  0  0  0
   -0.1373    0.0866    2.5177 C   0  0  0  0  0  0  0  0  0  0  0  0
   -0.1678    1.3225    1.6094 C   0  0  0  0  0  0  0  0  0  0  0  0
    0.8000    1.3901    0.7971 O   0  5  0  0  0  0  0  0  0  0  0  0
   -1.1287    2.1224    1.7754 O   0  0  0  0  0  0  0  0  0  0  0  0
   -0.0113   -2.6869    0.5854 H   0  0  0  0  0  0  0  0  0  0  0  0
    1.5270   -0.9232    1.5417 H   0  0  0  0  0  0  0  0  0  0  0  0
    0.3516    0.3719    3.4592 H   0  0  0  0  0  0  0  0  0  0  0  0
   -1.1822   -0.1399    2.7669 H   0  0  0  0  0  0  0  0  0  0  0  0
    0.6820   -3.5113    2.4814 N   0  0  0  0  0  0  0  0  0  0  0  0
    0.7726   -4.7018    3.2944 C   0  0  2  0  0  0  0  0  0  0  0  0
    1.5022   -5.7677    2.4877 C   0  0  0  0  0  0  0  0  0  0  0  0
    1.5654   -5.7539    1.2601 O   0  0  0  0  0  0  0  0  0  0  0  0
   -0.6045   -5.1885    3.7182 C   0  0  0  0  0  0  0  0  0  0  0  0
    0.5855   -3.6307    1.4773 H   0  0  0  0  0  0  0  0  0  0  0  0
    1.3678   -4.4385    4.1755 H   0  0  0  0  0  0  0  0  0  0  0  0
   -1.2155   -5.4570    2.8487 H   0  0  0  0  0  0  0  0  0  0  0  0
   -0.5327   -6.0743    4.3579 H   0  0  0  0  0  0  0  0  0  0  0  0
   -1.1394   -4.4099    4.2727 H   0  0  0  0  0  0  0  0  0  0  0  0
    2.0377   -6.7596    3.2974 N   0  0  0  0  0  0  0  0  0  0  0  0
    2.7665   -7.8888    2.7685 C   0  0  0  0  0  0  0  0  0  0  0  0
    1.9536   -6.6803    4.3066 H   0  0  0  0  0  0  0  0  0  0  0  0
    2.0746   -8.7280    2.6043 H   0  0  0  0  0  0  0  0  0  0  0  0
    3.2352   -7.6080    1.8138 H   0  0  0  0  0  0  0  0  0  0  0  0
    3.5452   -8.1904    3.4845 H   0  0  0  0  0  0  0  0  0  0  0  0
  1  3  1  0  0  0  0
  1  7  1  0  0  0  0
  1  2  2  0  0  0  0
 30 31  1  0  0  0  0
 31 39  1  0  0  0  0
 31 32  2  0  0  0  0
  8  9  1  0  0  0  0
  9 17  1  0  0  0  0
  9 10  2  0  0  0  0
 18 19  1  0  0  0  0
 19 29  1  0  0  0  0
 19 20  2  0  0  0  0
 21 22  1  0  0  0  0
 22 23  1  0  0  0  0
 22 24  2  0  0  0  0
 30 33  1  0  0  0  0
  8 11  1  0  0  0  0
 39 40  1  0  0  0  0
 18 21  1  0  0  0  0
 29 30  1  0  0  0  0
  7  8  1  0  0  0  0
 17 18  1  0  0  0  0
  3  4  1  0  0  0  0
  3  5  1  0  0  0  0
  3  6  1  0  0  0  0
 33 36  1  0  0  0  0
 33 37  1  0  0  0  0
 33 38  1  0  0  0  0
 11 14  1  0  0  0  0
 11 15  1  0  0  0  0
 11 16  1  0  0  0  0
 40 42  1  0  0  0  0
 40 43  1  0  0  0  0
 40 44  1  0  0  0  0
 21 27  1  0  0  0  0
 21 28  1  0  0  0  0
 30 35  1  0  0  0  0
  8 13  1  0  0  0  0
 18 26  1  0  0  0  0
 39 41  1  0  0  0  0
  7 12  1  0  0  0  0
 29 34  1  0  0  0  0
 17 25  1  0  0  0  0
M  CHG  1  23  -1
M  END
$$$$

  -OEChem-05262214473D

 44 43  0     1  0  0  0  0  0999 V2000
   -4.0256   -1.8030   -2.1581 C   0  0  0  0  0  0  0  0  0  0  0  0
   -3.7513   -2.6782   -2.9709 O   0  0  0  0  0  0  0  0  0  0  0  0
   -5.3491   -1.1169   -2.2339 C   0  0  0  0  0  0  0  0  0  0  0  0
   -5.3223   -0.2211   -2.8750 H   0  0  0  0  0  0  0  0  0  0  0  0
   -6.1322   -1.7605   -2.6658 H   0  0  0  0  0  0  0  0  0  0  0  0
   -5.7568   -0.7715   -1.2704 H   0  0  0  0  0  0  0  0  0  0  0  0
   -3.2124   -1.3578   -1.1289 N   0  0  0  0  0  0  0  0  0  0  0  0
   -1.8971   -1.8843   -0.8752 C   0  0  2  0  0  0  0  0  0  0  0  0
   -1.2676   -1.0599    0.2399 C   0  0  0  0  0  0  0  0  0  0  0  0
   -1.6270    0.0833    0.5138 O   0  0  0  0  0  0  0  0  0  0  0  0
   -1.0364   -1.8506   -2.1285 C   0  0  0  0  0  0  0  0  0  0  0  0
   -3.5631   -0.6202   -0.5206 H   0  0  0  0  0  0  0  0  0  0  0  0
   -2.0301   -2.9174   -0.5360 H   0  0  0  0  0  0  0  0  0  0  0  0
   -0.8921   -0.8236   -2.4833 H   0  0  0  0  0  0  0  0  0  0  0  0
   -0.0457   -2.2777   -1.9410 H   0  0  0  0  0  0  0  0  0  0  0  0
   -1.5052   -2.4193   -2.9387 H   0  0  0  0  0  0  0  0  0  0  0  0
   -0.2267   -1.7335    0.8672 N   0  0  0  0  0  0  0  0  0  0  0  0
    0.5363   -1.1590    1.9465 C   0  0  2  0  0  0  0  0  0  0  0  0
    0.6759   -2.2322    3.0201 C   0  0  0  0  0  0  0  0  0  0  0  0
    0.4636   -2.0196    4.2121 O   0  0  0  0  0  0  0  0  0  0  0  0
   -0.1373    0.0866    2.5177 C   0  0  0  0  0  0  0  0  0  0  0  0
   -0.1678    1.3225    1.6094 C   0  0  0  0  0  0  0  0  0  0  0  0
    0.8000    1.3901    0.7971 O   0  5  0  0  0  0  0  0  0  0  0  0
   -1.1287    2.1224    1.7754 O   0  0  0  0  0  0  0  0  0  0  0  0
   -0.0113   -2.6869    0.5854 H   0  0  0  0  0  0  0  0  0  0  0  0
    1.5270   -0.9232    1.5417 H   0  0  0  0  0  0  0  0  0  0  0  0
    0.3516    0.3719    3.4592 H   0  0  0  0  0  0  0  0  0  0  0  0
   -1.1822   -0.1399    2.7669 H   0  0  0  0  0  0  0  0  0  0  0  0
    1.0147   -3.4663    2.4831 N   0  0  0  0  0  0  0  0  0  0  0  0
    1.1755   -4.6531    3.2907 C   0  0  2  0  0  0  0  0  0  0  0  0
    2.2224   -5.5365    2.6251 C   0  0  0  0  0  0  0  0  0  0  0  0
    2.5018   -5.4617    1.4304 O   0  0  0  0  0  0  0  0  0  0  0  0
   -0.1415   -5.3966    3.4499 C   0  0  0  0  0  0  0  0  0  0  0  0
    1.1243   -3.5603    1.4776 H   0  0  0  0  0  0  0  0  0  0  0  0
    1.5435   -4.3229    4.2682 H   0  0  0  0  0  0  0  0  0  0  0  0
   -0.5258   -5.7352    2.4809 H   0  0  0  0  0  0  0  0  0  0  0  0
   -0.0239   -6.2802    4.0859 H   0  0  0  0  0  0  0  0  0  0  0  0
   -0.9018   -4.7503    3.9015 H   0  0  0  0  0  0  0  0  0  0  0  0
    2.7770   -6.4478    3.5129 N   0  0  0  0  0  0  0  0  0  0  0  0
    3.7847   -7.4049    3.1198 C   0  0  0  0  0  0  0  0  0  0  0  0
    2.4995   -6.4260    4.4898 H   0  0  0  0  0  0  0  0  0  0  0  0
    3.3005   -8.3476    2.8251 H   0  0  0  0  0  0  0  0  0  0  0  0
    4.3576   -7.0057    2.2698 H   0  0  0  0  0  0  0  0  0  0  0  0
    4.4638   -7.5902    3.9650 H   0  0  0  0  0  0  0  0  0  0  0  0
  1  3  1  0  0  0  0
  1  7  1  0  0  0  0
  1  2  2  0  0  0  0
 30 31  1  0  0  0  0
 31 39  1  0  0  0  0
 31 32  2  0  0  0  0
  8  9  1  0  0  0  0
  9 17  1  0  0  0  0
  9 10  2  0  0  0  0
 18 19  1  0  0  0  0
 19 29  1  0  0  0  0
 19 20  2  0  0  0  0
 21 22  1  0  0  0  0
 22 23  1  0  0  0  0
 22 24  2  0  0  0  0
 30 33  1  0  0  0  0
  8 11  1  0  0  0  0
 39 40  1  0  0  0  0
 18 21  1  0  0  0  0
 29 30  1  0  0  0  0
  7  8  1  0  0  0  0
 17 18  1  0  0  0  0
  3  4  1  0  0  0  0
  3  5  1  0  0  0  0
  3  6  1  0  0  0  0
 33 36  1  0  0  0  0
 33 37  1  0  0  0  0
 33 38  1  0  0  0  0
 11 14  1  0  0  0  0
 11 15  1  0  0  0  0
 11 16  1  0  0  0  0
 40 42  1  0  0  0  0
 40 43  1  0  0  0  0
 40 44  1  0  0  0  0
 21 27  1  0  0  0  0
 21 28  1  0  0  0  0
 30 35  1  0  0  0  0
  8 13  1  0  0  0  0
 18 26  1  0  0  0  0
 39 41  1  0  0  0  0
  7 12  1  0  0  0  0
 29 34  1  0  0  0  0
 17 25  1  0  0  0  0
M  CHG  1  23  -1
M  END
$$$$

  -OEChem-05262214473D

 44 43  0     1  0  0  0  0  0999 V2000
   -4.0256   -1.8030   -2.1581 C   0  0  0  0  0  0  0  0  0  0  0  0
   -3.7513   -2.6782   -2.9709 O   0  0  0  0  0  0  0  0  0  0  0  0
   -5.3491   -1.1169   -2.2339 C   0  0  0  0  0  0  0  0  0  0  0  0
   -5.3223   -0.2211   -2.8750 H   0  0  0  0  0  0  0  0  0  0  0  0
   -6.1322   -1.7605   -2.6658 H   0  0  0  0  0  0  0  0  0  0  0  0
   -5.7568   -0.7715   -1.2704 H   0  0  0  0  0  0  0  0  0  0  0  0
   -3.2124   -1.3578   -1.1289 N   0  0  0  0  0  0  0  0  0  0  0  0
   -1.8971   -1.8843   -0.8752 C   0  0  2  0  0  0  0  0  0  0  0  0
   -1.2676   -1.0599    0.2399 C   0  0  0  0  0  0  0  0  0  0  0  0
   -1.6270    0.0833    0.5138 O   0  0  0  0  0  0  0  0  0  0  0  0
   -1.0364   -1.8506   -2.1285 C   0  0  0  0  0  0  0  0  0  0  0  0
   -3.5631   -0.6202   -0.5206 H   0  0  0  0  0  0  0  0  0  0  0  0
   -2.0301   -2.9174   -0.5360 H   0  0  0  0  0  0  0  0  0  0  0  0
   -0.8921   -0.8236   -2.4833 H   0  0  0  0  0  0  0  0  0  0  0  0
   -0.0457   -2.2777   -1.9410 H   0  0  0  0  0  0  0  0  0  0  0  0
   -1.5052   -2.4193   -2.9387 H   0  0  0  0  0  0  0  0  0  0  0  0
   -0.2267   -1.7335    0.8672 N   0  0  0  0  0  0  0  0  0  0  0  0
    0.5363   -1.1590    1.9465 C   0  0  2  0  0  0  0  0  0  0  0  0
    0.6759   -2.2322    3.0201 C   0  0  0  0  0  0  0  0  0  0  0  0
    0.2170   -2.1099    4.1539 O   0  0  0  0  0  0  0  0  0  0  0  0
   -0.1373    0.0866    2.5177 C   0  0  0  0  0  0  0  0  0  0  0  0
   -0.1678    1.3225    1.6094 C   0  0  0  0  0  0  0  0  0  0  0  0
    0.8000    1.3901    0.7971 O   0  5  0  0  0  0  0  0  0  0  0  0
   -1.1287    2.1224    1.7754 O   0  0  0  0  0  0  0  0  0  0  0  0
   -0.0113   -2.6869    0.5854 H   0  0  0  0  0  0  0  0  0  0  0  0
    1.5270   -0.9232    1.5417 H   0  0  0  0  0  0  0  0  0  0  0  0
    0.3516    0.3719    3.4592 H   0  0  0  0  0  0  0  0  0  0  0  0
   -1.1822   -0.1399    2.7669 H   0  0  0  0  0  0  0  0  0  0  0  0
    1.3276   -3.3623    2.5463 N   0  0  0  0  0  0  0  0  0  0  0  0
    1.5565   -4.5325    3.3616 C   0  0  2  0  0  0  0  0  0  0  0  0
    2.8508   -5.1852    2.8945 C   0  0  0  0  0  0  0  0  0  0  0  0
    3.3221   -5.0128    1.7724 O   0  0  0  0  0  0  0  0  0  0  0  0
    0.3925   -5.5069    3.2702 C   0  0  0  0  0  0  0  0  0  0  0  0
    1.6318   -3.3941    1.5777 H   0  0  0  0  0  0  0  0  0  0  0  0
    1.6752   -4.1814    4.3925 H   0  0  0  0  0  0  0  0  0  0  0  0
    0.2581   -5.8695    2.2446 H   0  0  0  0  0  0  0  0  0  0  0  0
    0.5547   -6.3800    3.9109 H   0  0  0  0  0  0  0  0  0  0  0  0
   -0.5427   -5.0269    3.5783 H   0  0  0  0  0  0  0  0  0  0  0  0
    3.3950   -6.0170    3.8631 N   0  0  0  0  0  0  0  0  0  0  0  0
    4.6159   -6.7602    3.6561 C   0  0  0  0  0  0  0  0  0  0  0  0
    2.9470   -6.0852    4.7722 H   0  0  0  0  0  0  0  0  0  0  0  0
    4.3751   -7.7620    3.2707 H   0  0  0  0  0  0  0  0  0  0  0  0
    5.2488   -6.2302    2.9291 H   0  0  0  0  0  0  0  0  0  0  0  0
    5.1541   -6.8544    4.6108 H   0  0  0  0  0  0  0  0  0  0  0  0
  1  3  1  0  0  0  0
  1  7  1  0  0  0  0
  1  2  2  0  0  0  0
 30 31  1  0  0  0  0
 31 39  1  0  0  0  0
 31 32  2  0  0  0  0
  8  9  1  0  0  0  0
  9 17  1  0  0  0  0
  9 10  2  0  0  0  0
 18 19  1  0  0  0  0
 19 29  1  0  0  0  0
 19 20  2  0  0  0  0
 21 22  1  0  0  0  0
 22 23  1  0  0  0  0
 22 24  2  0  0  0  0
 30 33  1  0  0  0  0
  8 11  1  0  0  0  0
 39 40  1  0  0  0  0
 18 21  1  0  0  0  0
 29 30  1  0  0  0  0
  7  8  1  0  0  0  0
 17 18  1  0  0  0  0
  3  4  1  0  0  0  0
  3  5  1  0  0  0  0
  3  6  1  0  0  0  0
 33 36  1  0  0  0  0
 33 37  1  0  0  0  0
 33 38  1  0  0  0  0
 11 14  1  0  0  0  0
 11 15  1  0  0  0  0
 11 16  1  0  0  0  0
 40 42  1  0  0  0  0
 40 43  1  0  0  0  0
 40 44  1  0  0  0  0
 21 27  1  0  0  0  0
 21 28  1  0  0  0  0
 30 35  1  0  0  0  0
  8 13  1  0  0  0  0
 18 26  1  0  0  0  0
 39 41  1  0  0  0  0
  7 12  1  0  0  0  0
 29 34  1  0  0  0  0
 17 25  1  0  0  0  0
M  CHG  1  23  -1
M  END
$$$$

  -OEChem-05262214473D

 44 43  0     1  0  0  0  0  0999 V2000
   -4.0256   -1.8030   -2.1581 C   0  0  0  0  0  0  0  0  0  0  0  0
   -3.7513   -2.6782   -2.9709 O   0  0  0  0  0  0  0  0  0  0  0  0
   -5.3491   -1.1169   -2.2339 C   0  0  0  0  0  0  0  0  0  0  0  0
   -5.3223   -0.2211   -2.8750 H   0  0  0  0  0  0  0  0  0  0  0  0
   -6.1322   -1.7605   -2.6658 H   0  0  0  0  0  0  0  0  0  0  0  0
   -5.7568   -0.7715   -1.2704 H   0  0  0  0  0  0  0  0  0  0  0  0
   -3.2124   -1.3578   -1.1289 N   0  0  0  0  0  0  0  0  0  0  0  0
   -1.8971   -1.8843   -0.8752 C   0  0  2  0  0  0  0  0  0  0  0  0
   -1.2676   -1.0599    0.2399 C   0  0  0  0  0  0  0  0  0  0  0  0
   -1.6270    0.0833    0.5138 O   0  0  0  0  0  0  0  0  0  0  0  0
   -1.0364   -1.8506   -2.1285 C   0  0  0  0  0  0  0  0  0  0  0  0
   -3.5631   -0.6202   -0.5206 H   0  0  0  0  0  0  0  0  0  0  0  0
   -2.0301   -2.9174   -0.5360 H   0  0  0  0  0  0  0  0  0  0  0  0
   -0.8921   -0.8236   -2.4833 H   0  0  0  0  0  0  0  0  0  0  0  0
   -0.0457   -2.2777   -1.9410 H   0  0  0  0  0  0  0  0  0  0  0  0
   -1.5052   -2.4193   -2.9387 H   0  0  0  0  0  0  0  0  0  0  0  0
   -0.2267   -1.7335    0.8672 N   0  0  0  0  0  0  0  0  0  0  0  0
    0.5363   -1.1590    1.9465 C   0  0  2  0  0  0  0  0  0  0  0  0
    0.6759   -2.2322    3.0201 C   0  0  0  0  0  0  0  0  0  0  0  0
    0.0058   -2.2407    4.0506 O   0  0  0  0  0  0  0  0  0  0  0  0
   -0.1373    0.0866    2.5177 C   0  0  0  0  0  0  0  0  0  0  0  0
   -0.1678    1.3225    1.6094 C   0  0  0  0  0  0  0  0  0  0  0  0
    0.8000    1.3901    0.7971 O   0  5  0  0  0  0  0  0  0  0  0  0
   -1.1287    2.1224    1.7754 O   0  0  0  0  0  0  0  0  0  0  0  0
   -0.0113   -2.6869    0.5854 H   0  0  0  0  0  0  0  0  0  0  0  0
    1.5270   -0.9232    1.5417 H   0  0  0  0  0  0  0  0  0  0  0  0
    0.3516    0.3719    3.4592 H   0  0  0  0  0  0  0  0  0  0  0  0
   -1.1822   -0.1399    2.7669 H   0  0  0  0  0  0  0  0  0  0  0  0
    1.5993   -3.2063    2.6669 N   0  0  0  0  0  0  0  0  0  0  0  0
    1.8896   -4.3482    3.5025 C   0  0  2  0  0  0  0  0  0  0  0  0
    3.3447   -4.7377    3.2776 C   0  0  0  0  0  0  0  0  0  0  0  0
    3.9702   -4.4379    2.2628 O   0  0  0  0  0  0  0  0  0  0  0  0
    0.9612   -5.5118    3.1913 C   0  0  0  0  0  0  0  0  0  0  0  0
    2.0735   -3.1434    1.7708 H   0  0  0  0  0  0  0  0  0  0  0  0
    1.7539   -4.0237    4.5399 H   0  0  0  0  0  0  0  0  0  0  0  0
    1.0828   -5.8508    2.1561 H   0  0  0  0  0  0  0  0  0  0  0  0
    1.1636   -6.3667    3.8450 H   0  0  0  0  0  0  0  0  0  0  0  0
   -0.0864   -5.2210    3.3249 H   0  0  0  0  0  0  0  0  0  0  0  0
    3.8496   -5.4965    4.3243 N   0  0  0  0  0  0  0  0  0  0  0  0
    5.2036   -5.9987    4.3408 C   0  0  0  0  0  0  0  0  0  0  0  0
    3.2656   -5.6812    5.1346 H   0  0  0  0  0  0  0  0  0  0  0  0
    5.2251   -7.0110    3.9109 H   0  0  0  0  0  0  0  0  0  0  0  0
    5.8483   -5.3343    3.7466 H   0  0  0  0  0  0  0  0  0  0  0  0
    5.5692   -6.0331    5.3777 H   0  0  0  0  0  0  0  0  0  0  0  0
  1  3  1  0  0  0  0
  1  7  1  0  0  0  0
  1  2  2  0  0  0  0
 30 31  1  0  0  0  0
 31 39  1  0  0  0  0
 31 32  2  0  0  0  0
  8  9  1  0  0  0  0
  9 17  1  0  0  0  0
  9 10  2  0  0  0  0
 18 19  1  0  0  0  0
 19 29  1  0  0  0  0
 19 20  2  0  0  0  0
 21 22  1  0  0  0  0
 22 23  1  0  0  0  0
 22 24  2  0  0  0  0
 30 33  1  0  0  0  0
  8 11  1  0  0  0  0
 39 40  1  0  0  0  0
 18 21  1  0  0  0  0
 29 30  1  0  0  0  0
  7  8  1  0  0  0  0
 17 18  1  0  0  0  0
  3  4  1  0  0  0  0
  3  5  1  0  0  0  0
  3  6  1  0  0  0  0
 33 36  1  0  0  0  0
 33 37  1  0  0  0  0
 33 38  1  0  0  0  0
 11 14  1  0  0  0  0
 11 15  1  0  0  0  0
 11 16  1  0  0  0  0
 40 42  1  0  0  0  0
 40 43  1  0  0  0  0
 40 44  1  0  0  0  0
 21 27  1  0  0  0  0
 21 28  1  0  0  0  0
 30 35  1  0  0  0  0
  8 13  1  0  0  0  0
 18 26  1  0  0  0  0
 39 41  1  0  0  0  0
  7 12  1  0  0  0  0
 29 34  1  0  0  0  0
 17 25  1  0  0  0  0
M  CHG  1  23  -1
M  END
$$$$

  -OEChem-05262214473D

 44 43  0     1  0  0  0  0  0999 V2000
   -4.0256   -1.8030   -2.1581 C   0  0  0  0  0  0  0  0  0  0  0  0
   -3.7513   -2.6782   -2.9709 O   0  0  0  0  0  0  0  0  0  0  0  0
   -5.3491   -1.1169   -2.2339 C   0  0  0  0  0  0  0  0  0  0  0  0
   -5.3223   -0.2211   -2.8750 H   0  0  0  0  0  0  0  0  0  0  0  0
   -6.1322   -1.7605   -2.6658 H   0  0  0  0  0  0  0  0  0  0  0  0
   -5.7568   -0.7715   -1.2704 H   0  0  0  0  0  0  0  0  0  0  0  0
   -3.2124   -1.3578   -1.1289 N   0  0  0  0  0  0  0  0  0  0  0  0
   -1.8971   -1.8843   -0.8752 C   0  0  2  0  0  0  0  0  0  0  0  0
   -1.2676   -1.0599    0.2399 C   0  0  0  0  0  0  0  0  0  0  0  0
   -1.6270    0.0833    0.5138 O   0  0  0  0  0  0  0  0  0  0  0  0
   -1.0364   -1.8506   -2.1285 C   0  0  0  0  0  0  0  0  0  0  0  0
   -3.5631   -0.6202   -0.5206 H   0  0  0  0  0  0  0  0  0  0  0  0
   -2.0301   -2.9174   -0.5360 H   0  0  0  0  0  0  0  0  0  0  0  0
   -0.8921   -0.8236   -2.4833 H   0  0  0  0  0  0  0  0  0  0  0  0
   -0.0457   -2.2777   -1.9410 H   0  0  0  0  0  0  0  0  0  0  0  0
   -1.5052   -2.4193   -2.9387 H   0  0  0  0  0  0  0  0  0  0  0  0
   -0.2267   -1.7335    0.8672 N   0  0  0  0  0  0  0  0  0  0  0  0
    0.5363   -1.1590    1.9465 C   0  0  2  0  0  0  0  0  0  0  0  0
    0.6759   -2.2322    3.0201 C   0  0  0  0  0  0  0  0  0  0  0  0
   -0.1555   -2.4031    3.9093 O   0  0  0  0  0  0  0  0  0  0  0  0
   -0.1373    0.0866    2.5177 C   0  0  0  0  0  0  0  0  0  0  0  0
   -0.1678    1.3225    1.6094 C   0  0  0  0  0  0  0  0  0  0  0  0
    0.8000    1.3901    0.7971 O   0  5  0  0  0  0  0  0  0  0  0  0
   -1.1287    2.1224    1.7754 O   0  0  0  0  0  0  0  0  0  0  0  0
   -0.0113   -2.6869    0.5854 H   0  0  0  0  0  0  0  0  0  0  0  0
    1.5270   -0.9232    1.5417 H   0  0  0  0  0  0  0  0  0  0  0  0
    0.3516    0.3719    3.4592 H   0  0  0  0  0  0  0  0  0  0  0  0
   -1.1822   -0.1399    2.7669 H   0  0  0  0  0  0  0  0  0  0  0  0
    1.8114   -3.0090    2.8366 N   0  0  0  0  0  0  0  0  0  0  0  0
    2.1521   -4.1129    3.7035 C   0  0  2  0  0  0  0  0  0  0  0  0
    3.6704   -4.2245    3.7482 C   0  0  0  0  0  0  0  0  0  0  0  0
    4.4021   -3.7760    2.8682 O   0  0  0  0  0  0  0  0  0  0  0  0
    1.5257   -5.4110    3.2186 C   0  0  0  0  0  0  0  0  0  0  0  0
    2.4192   -2.8254    2.0438 H   0  0  0  0  0  0  0  0  0  0  0  0
    1.7744   -3.8605    4.7004 H   0  0  0  0  0  0  0  0  0  0  0  0
    1.8921   -5.6802    2.2213 H   0  0  0  0  0  0  0  0  0  0  0  0
    1.7614   -6.2413    3.8925 H   0  0  0  0  0  0  0  0  0  0  0  0
    0.4358   -5.3193    3.1587 H   0  0  0  0  0  0  0  0  0  0  0  0
    4.1098   -4.9219    4.8648 N   0  0  0  0  0  0  0  0  0  0  0  0
    5.5077   -5.1723    5.1274 C   0  0  0  0  0  0  0  0  0  0  0  0
    3.4338   -5.2414    5.5523 H   0  0  0  0  0  0  0  0  0  0  0  0
    5.7926   -6.1458    4.7019 H   0  0  0  0  0  0  0  0  0  0  0  0
    6.1150   -4.3791    4.6668 H   0  0  0  0  0  0  0  0  0  0  0  0
    5.6806   -5.1823    6.2137 H   0  0  0  0  0  0  0  0  0  0  0  0
  1  3  1  0  0  0  0
  1  7  1  0  0  0  0
  1  2  2  0  0  0  0
 30 31  1  0  0  0  0
 31 39  1  0  0  0  0
 31 32  2  0  0  0  0
  8  9  1  0  0  0  0
  9 17  1  0  0  0  0
  9 10  2  0  0  0  0
 18 19  1  0  0  0  0
 19 29  1  0  0  0  0
 19 20  2  0  0  0  0
 21 22  1  0  0  0  0
 22 23  1  0  0  0  0
 22 24  2  0  0  0  0
 30 33  1  0  0  0  0
  8 11  1  0  0  0  0
 39 40  1  0  0  0  0
 18 21  1  0  0  0  0
 29 30  1  0  0  0  0
  7  8  1  0  0  0  0
 17 18  1  0  0  0  0
  3  4  1  0  0  0  0
  3  5  1  0  0  0  0
  3  6  1  0  0  0  0
 33 36  1  0  0  0  0
 33 37  1  0  0  0  0
 33 38  1  0  0  0  0
 11 14  1  0  0  0  0
 11 15  1  0  0  0  0
 11 16  1  0  0  0  0
 40 42  1  0  0  0  0
 40 43  1  0  0  0  0
 40 44  1  0  0  0  0
 21 27  1  0  0  0  0
 21 28  1  0  0  0  0
 30 35  1  0  0  0  0
  8 13  1  0  0  0  0
 18 26  1  0  0  0  0
 39 41  1  0  0  0  0
  7 12  1  0  0  0  0
 29 34  1  0  0  0  0
 17 25  1  0  0  0  0
M  CHG  1  23  -1
M  END
$$$$

  -OEChem-05262214473D

 44 43  0     1  0  0  0  0  0999 V2000
   -4.0256   -1.8030   -2.1581 C   0  0  0  0  0  0  0  0  0  0  0  0
   -3.7513   -2.6782   -2.9709 O   0  0  0  0  0  0  0  0  0  0  0  0
   -5.3491   -1.1169   -2.2339 C   0  0  0  0  0  0  0  0  0  0  0  0
   -5.3223   -0.2211   -2.8750 H   0  0  0  0  0  0  0  0  0  0  0  0
   -6.1322   -1.7605   -2.6658 H   0  0  0  0  0  0  0  0  0  0  0  0
   -5.7568   -0.7715   -1.2704 H   0  0  0  0  0  0  0  0  0  0  0  0
   -3.2124   -1.3578   -1.1289 N   0  0  0  0  0  0  0  0  0  0  0  0
   -1.8971   -1.8843   -0.8752 C   0  0  2  0  0  0  0  0  0  0  0  0
   -1.2676   -1.0599    0.2399 C   0  0  0  0  0  0  0  0  0  0  0  0
   -1.6270    0.0833    0.5138 O   0  0  0  0  0  0  0  0  0  0  0  0
   -1.0364   -1.8506   -2.1285 C   0  0  0  0  0  0  0  0  0  0  0  0
   -3.5631   -0.6202   -0.5206 H   0  0  0  0  0  0  0  0  0  0  0  0
   -2.0301   -2.9174   -0.5360 H   0  0  0  0  0  0  0  0  0  0  0  0
   -0.8921   -0.8236   -2.4833 H   0  0  0  0  0  0  0  0  0  0  0  0
   -0.0457   -2.2777   -1.9410 H   0  0  0  0  0  0  0  0  0  0  0  0
   -1.5052   -2.4193   -2.9387 H   0  0  0  0  0  0  0  0  0  0  0  0
   -0.2267   -1.7335    0.8672 N   0  0  0  0  0  0  0  0  0  0  0  0
    0.5363   -1.1590    1.9465 C   0  0  2  0  0  0  0  0  0  0  0  0
    0.6759   -2.2322    3.0201 C   0  0  0  0  0  0  0  0  0  0  0  0
   -0.2559   -2.5860    3.7395 O   0  0  0  0  0  0  0  0  0  0  0  0
   -0.1373    0.0866    2.5177 C   0  0  0  0  0  0  0  0  0  0  0  0
   -0.1678    1.3225    1.6094 C   0  0  0  0  0  0  0  0  0  0  0  0
    0.8000    1.3901    0.7971 O   0  5  0  0  0  0  0  0  0  0  0  0
   -1.1287    2.1224    1.7754 O   0  0  0  0  0  0  0  0  0  0  0  0
   -0.0113   -2.6869    0.5854 H   0  0  0  0  0  0  0  0  0  0  0  0
    1.5270   -0.9232    1.5417 H   0  0  0  0  0  0  0  0  0  0  0  0
    0.3516    0.3719    3.4592 H   0  0  0  0  0  0  0  0  0  0  0  0
   -1.1822   -0.1399    2.7669 H   0  0  0  0  0  0  0  0  0  0  0  0
    1.9493   -2.7837    3.0439 N   0  0  0  0  0  0  0  0  0  0  0  0
    2.3262   -3.8425    3.9512 C   0  0  2  0  0  0  0  0  0  0  0  0
    3.8057   -3.6806    4.2743 C   0  0  0  0  0  0  0  0  0  0  0  0
    4.5884   -3.0722    3.5474 O   0  0  0  0  0  0  0  0  0  0  0  0
    2.0477   -5.2114    3.3503 C   0  0  0  0  0  0  0  0  0  0  0  0
    2.6455   -2.4616    2.3780 H   0  0  0  0  0  0  0  0  0  0  0  0
    1.7352   -3.7029    4.8630 H   0  0  0  0  0  0  0  0  0  0  0  0
    2.6309   -5.3695    2.4358 H   0  0  0  0  0  0  0  0  0  0  0  0
    2.3073   -6.0124    4.0504 H   0  0  0  0  0  0  0  0  0  0  0  0
    0.9885   -5.3151    3.0910 H   0  0  0  0  0  0  0  0  0  0  0  0
    4.1579   -4.3322    5.4480 N   0  0  0  0  0  0  0  0  0  0  0  0
    5.5075   -4.3372    5.9622 C   0  0  0  0  0  0  0  0  0  0  0  0
    3.4399   -4.7959    5.9969 H   0  0  0  0  0  0  0  0  0  0  0  0
    6.0390   -5.2254    5.5898 H   0  0  0  0  0  0  0  0  0  0  0  0
    6.0308   -3.4296    5.6269 H   0  0  0  0  0  0  0  0  0  0  0  0
    5.4809   -4.3600    7.0616 H   0  0  0  0  0  0  0  0  0  0  0  0
  1  3  1  0  0  0  0
  1  7  1  0  0  0  0
  1  2  2  0  0  0  0
 30 31  1  0  0  0  0
 31 39  1  0  0  0  0
 31 32  2  0  0  0  0
  8  9  1  0  0  0  0
  9 17  1  0  0  0  0
  9 10  2  0  0  0  0
 18 19  1  0  0  0  0
 19 29  1  0  0  0  0
 19 20  2  0  0  0  0
 21 22  1  0  0  0  0
 22 23  1  0  0  0  0
 22 24  2  0  0  0  0
 30 33  1  0  0  0  0
  8 11  1  0  0  0  0
 39 40  1  0  0  0  0
 18 21  1  0  0  0  0
 29 30  1  0  0  0  0
  7  8  1  0  0  0  0
 17 18  1  0  0  0  0
  3  4  1  0  0  0  0
  3  5  1  0  0  0  0
  3  6  1  0  0  0  0
 33 36  1  0  0  0  0
 33 37  1  0  0  0  0
 33 38  1  0  0  0  0
 11 14  1  0  0  0  0
 11 15  1  0  0  0  0
 11 16  1  0  0  0  0
 40 42  1  0  0  0  0
 40 43  1  0  0  0  0
 40 44  1  0  0  0  0
 21 27  1  0  0  0  0
 21 28  1  0  0  0  0
 30 35  1  0  0  0  0
  8 13  1  0  0  0  0
 18 26  1  0  0  0  0
 39 41  1  0  0  0  0
  7 12  1  0  0  0  0
 29 34  1  0  0  0  0
 17 25  1  0  0  0  0
M  CHG  1  23  -1
M  END
$$$$

  -OEChem-05262214473D

 44 43  0     1  0  0  0  0  0999 V2000
   -4.0256   -1.8030   -2.1581 C   0  0  0  0  0  0  0  0  0  0  0  0
   -3.7513   -2.6782   -2.9709 O   0  0  0  0  0  0  0  0  0  0  0  0
   -5.3491   -1.1169   -2.2339 C   0  0  0  0  0  0  0  0  0  0  0  0
   -5.3223   -0.2211   -2.8750 H   0  0  0  0  0  0  0  0  0  0  0  0
   -6.1322   -1.7605   -2.6658 H   0  0  0  0  0  0  0  0  0  0  0  0
   -5.7568   -0.7715   -1.2704 H   0  0  0  0  0  0  0  0  0  0  0  0
   -3.2124   -1.3578   -1.1289 N   0  0  0  0  0  0  0  0  0  0  0  0
   -1.8971   -1.8843   -0.8752 C   0  0  2  0  0  0  0  0  0  0  0  0
   -1.2676   -1.0599    0.2399 C   0  0  0  0  0  0  0  0  0  0  0  0
   -1.6270    0.0833    0.5138 O   0  0  0  0  0  0  0  0  0  0  0  0
   -1.0364   -1.8506   -2.1285 C   0  0  0  0  0  0  0  0  0  0  0  0
   -3.5631   -0.6202   -0.5206 H   0  0  0  0  0  0  0  0  0  0  0  0
   -2.0301   -2.9174   -0.5360 H   0  0  0  0  0  0  0  0  0  0  0  0
   -0.8921   -0.8236   -2.4833 H   0  0  0  0  0  0  0  0  0  0  0  0
   -0.0457   -2.2777   -1.9410 H   0  0  0  0  0  0  0  0  0  0  0  0
   -1.5052   -2.4193   -2.9387 H   0  0  0  0  0  0  0  0  0  0  0  0
   -0.2267   -1.7335    0.8672 N   0  0  0  0  0  0  0  0  0  0  0  0
    0.5363   -1.1590    1.9465 C   0  0  2  0  0  0  0  0  0  0  0  0
    0.6759   -2.2322    3.0201 C   0  0  0  0  0  0  0  0  0  0  0  0
   -0.2887   -2.7769    3.5529 O   0  0  0  0  0  0  0  0  0  0  0  0
   -0.1373    0.0866    2.5177 C   0  0  0  0  0  0  0  0  0  0  0  0
   -0.1678    1.3225    1.6094 C   0  0  0  0  0  0  0  0  0  0  0  0
    0.8000    1.3901    0.7971 O   0  5  0  0  0  0  0  0  0  0  0  0
   -1.1287    2.1224    1.7754 O   0  0  0  0  0  0  0  0  0  0  0  0
   -0.0113   -2.6869    0.5854 H   0  0  0  0  0  0  0  0  0  0  0  0
    1.5270   -0.9232    1.5417 H   0  0  0  0  0  0  0  0  0  0  0  0
    0.3516    0.3719    3.4592 H   0  0  0  0  0  0  0  0  0  0  0  0
   -1.1822   -0.1399    2.7669 H   0  0  0  0  0  0  0  0  0  0  0  0
    2.0038   -2.5459    3.2745 N   0  0  0  0  0  0  0  0  0  0  0  0
    2.3999   -3.5555    4.2285 C   0  0  2  0  0  0  0  0  0  0  0  0
    3.7414   -3.1431    4.8200 C   0  0  0  0  0  0  0  0  0  0  0  0
    4.5162   -2.3747    4.2541 O   0  0  0  0  0  0  0  0  0  0  0  0
    2.4915   -4.9266    3.5772 C   0  0  0  0  0  0  0  0  0  0  0  0
    2.7369   -2.0769    2.7506 H   0  0  0  0  0  0  0  0  0  0  0  0
    1.6390   -3.5617    5.0166 H   0  0  0  0  0  0  0  0  0  0  0  0
    3.2488   -4.9398    2.7849 H   0  0  0  0  0  0  0  0  0  0  0  0
    2.7640   -5.6955    4.3077 H   0  0  0  0  0  0  0  0  0  0  0  0
    1.5339   -5.2087    3.1264 H   0  0  0  0  0  0  0  0  0  0  0  0
    3.9906   -3.7677    6.0341 N   0  0  0  0  0  0  0  0  0  0  0  0
    5.2030   -3.5504    6.7882 C   0  0  0  0  0  0  0  0  0  0  0  0
    3.2836   -4.3750    6.4380 H   0  0  0  0  0  0  0  0  0  0  0  0
    5.9474   -4.3125    6.5143 H   0  0  0  0  0  0  0  0  0  0  0  0
    5.6016   -2.5506    6.5614 H   0  0  0  0  0  0  0  0  0  0  0  0
    4.9836   -3.6223    7.8637 H   0  0  0  0  0  0  0  0  0  0  0  0
  1  3  1  0  0  0  0
  1  7  1  0  0  0  0
  1  2  2  0  0  0  0
 30 31  1  0  0  0  0
 31 39  1  0  0  0  0
 31 32  2  0  0  0  0
  8  9  1  0  0  0  0
  9 17  1  0  0  0  0
  9 10  2  0  0  0  0
 18 19  1  0  0  0  0
 19 29  1  0  0  0  0
 19 20  2  0  0  0  0
 21 22  1  0  0  0  0
 22 23  1  0  0  0  0
 22 24  2  0  0  0  0
 30 33  1  0  0  0  0
  8 11  1  0  0  0  0
 39 40  1  0  0  0  0
 18 21  1  0  0  0  0
 29 30  1  0  0  0  0
  7  8  1  0  0  0  0
 17 18  1  0  0  0  0
  3  4  1  0  0  0  0
  3  5  1  0  0  0  0
  3  6  1  0  0  0  0
 33 36  1  0  0  0  0
 33 37  1  0  0  0  0
 33 38  1  0  0  0  0
 11 14  1  0  0  0  0
 11 15  1  0  0  0  0
 11 16  1  0  0  0  0
 40 42  1  0  0  0  0
 40 43  1  0  0  0  0
 40 44  1  0  0  0  0
 21 27  1  0  0  0  0
 21 28  1  0  0  0  0
 30 35  1  0  0  0  0
  8 13  1  0  0  0  0
 18 26  1  0  0  0  0
 39 41  1  0  0  0  0
  7 12  1  0  0  0  0
 29 34  1  0  0  0  0
 17 25  1  0  0  0  0
M  CHG  1  23  -1
M  END
$$$$

  -OEChem-05262214473D

 44 43  0     1  0  0  0  0  0999 V2000
   -4.0256   -1.8030   -2.1581 C   0  0  0  0  0  0  0  0  0  0  0  0
   -3.7513   -2.6782   -2.9709 O   0  0  0  0  0  0  0  0  0  0  0  0
   -5.3491   -1.1169   -2.2339 C   0  0  0  0  0  0  0  0  0  0  0  0
   -5.3223   -0.2211   -2.8750 H   0  0  0  0  0  0  0  0  0  0  0  0
   -6.1322   -1.7605   -2.6658 H   0  0  0  0  0  0  0  0  0  0  0  0
   -5.7568   -0.7715   -1.2704 H   0  0  0  0  0  0  0  0  0  0  0  0
   -3.2124   -1.3578   -1.1289 N   0  0  0  0  0  0  0  0  0  0  0  0
   -1.8971   -1.8843   -0.8752 C   0  0  2  0  0  0  0  0  0  0  0  0
   -1.2676   -1.0599    0.2399 C   0  0  0  0  0  0  0  0  0  0  0  0
   -1.6270    0.0833    0.5138 O   0  0  0  0  0  0  0  0  0  0  0  0
   -1.0364   -1.8506   -2.1285 C   0  0  0  0  0  0  0  0  0  0  0  0
   -3.5631   -0.6202   -0.5206 H   0  0  0  0  0  0  0  0  0  0  0  0
   -2.0301   -2.9174   -0.5360 H   0  0  0  0  0  0  0  0  0  0  0  0
   -0.8921   -0.8236   -2.4833 H   0  0  0  0  0  0  0  0  0  0  0  0
   -0.0457   -2.2777   -1.9410 H   0  0  0  0  0  0  0  0  0  0  0  0
   -1.5052   -2.4193   -2.9387 H   0  0  0  0  0  0  0  0  0  0  0  0
   -0.2267   -1.7335    0.8672 N   0  0  0  0  0  0  0  0  0  0  0  0
    0.5363   -1.1590    1.9465 C   0  0  2  0  0  0  0  0  0  0  0  0
    0.6759   -2.2322    3.0201 C   0  0  0  0  0  0  0  0  0  0  0  0
   -0.2515   -2.9629    3.3622 O   0  0  0  0  0  0  0  0  0  0  0  0
   -0.1373    0.0866    2.5177 C   0  0  0  0  0  0  0  0  0  0  0  0
   -0.1678    1.3225    1.6094 C   0  0  0  0  0  0  0  0  0  0  0  0
    0.8000    1.3901    0.7971 O   0  5  0  0  0  0  0  0  0  0  0  0
   -1.1287    2.1224    1.7754 O   0  0  0  0  0  0  0  0  0  0  0  0
   -0.0113   -2.6869    0.5854 H   0  0  0  0  0  0  0  0  0  0  0  0
    1.5270   -0.9232    1.5417 H   0  0  0  0  0  0  0  0  0  0  0  0
    0.3516    0.3719    3.4592 H   0  0  0  0  0  0  0  0  0  0  0  0
   -1.1822   -0.1399    2.7669 H   0  0  0  0  0  0  0  0  0  0  0  0
    1.9710   -2.3117    3.5129 N   0  0  0  0  0  0  0  0  0  0  0  0
    2.3682   -3.2713    4.5167 C   0  0  2  0  0  0  0  0  0  0  0  0
    3.4818   -2.6485    5.3482 C   0  0  0  0  0  0  0  0  0  0  0  0
    4.1906   -1.7308    4.9401 O   0  0  0  0  0  0  0  0  0  0  0  0
    2.8269   -4.5760    3.8841 C   0  0  0  0  0  0  0  0  0  0  0  0
    2.6871   -1.6975    3.1364 H   0  0  0  0  0  0  0  0  0  0  0  0
    1.4924   -3.4465    5.1509 H   0  0  0  0  0  0  0  0  0  0  0  0
    3.7037   -4.4204    3.2449 H   0  0  0  0  0  0  0  0  0  0  0  0
    3.1006   -5.3122    4.6470 H   0  0  0  0  0  0  0  0  0  0  0  0
    2.0349   -5.0074    3.2625 H   0  0  0  0  0  0  0  0  0  0  0  0
    3.6193   -3.2668    6.5831 N   0  0  0  0  0  0  0  0  0  0  0  0
    4.6149   -2.8655    7.5494 C   0  0  0  0  0  0  0  0  0  0  0  0
    2.9755   -4.0074    6.8455 H   0  0  0  0  0  0  0  0  0  0  0  0
    5.5241   -3.4694    7.4122 H   0  0  0  0  0  0  0  0  0  0  0  0
    4.8564   -1.8019    7.4067 H   0  0  0  0  0  0  0  0  0  0  0  0
    4.2226   -3.0194    8.5654 H   0  0  0  0  0  0  0  0  0  0  0  0
  1  3  1  0  0  0  0
  1  7  1  0  0  0  0
  1  2  2  0  0  0  0
 30 31  1  0  0  0  0
 31 39  1  0  0  0  0
 31 32  2  0  0  0  0
  8  9  1  0  0  0  0
  9 17  1  0  0  0  0
  9 10  2  0  0  0  0
 18 19  1  0  0  0  0
 19 29  1  0  0  0  0
 19 20  2  0  0  0  0
 21 22  1  0  0  0  0
 22 23  1  0  0  0  0
 22 24  2  0  0  0  0
 30 33  1  0  0  0  0
  8 11  1  0  0  0  0
 39 40  1  0  0  0  0
 18 21  1  0  0  0  0
 29 30  1  0  0  0  0
  7  8  1  0  0  0  0
 17 18  1  0  0  0  0
  3  4  1  0  0  0  0
  3  5  1  0  0  0  0
  3  6  1  0  0  0  0
 33 36  1  0  0  0  0
 33 37  1  0  0  0  0
 33 38  1  0  0  0  0
 11 14  1  0  0  0  0
 11 15  1  0  0  0  0
 11 16  1  0  0  0  0
 40 42  1  0  0  0  0
 40 43  1  0  0  0  0
 40 44  1  0  0  0  0
 21 27  1  0  0  0  0
 21 28  1  0  0  0  0
 30 35  1  0  0  0  0
  8 13  1  0  0  0  0
 18 26  1  0  0  0  0
 39 41  1  0  0  0  0
  7 12  1  0  0  0  0
 29 34  1  0  0  0  0
 17 25  1  0  0  0  0
M  CHG  1  23  -1
M  END
$$$$

  -OEChem-05262214473D

 44 43  0     1  0  0  0  0  0999 V2000
   -4.0256   -1.8030   -2.1581 C   0  0  0  0  0  0  0  0  0  0  0  0
   -3.7513   -2.6782   -2.9709 O   0  0  0  0  0  0  0  0  0  0  0  0
   -5.3491   -1.1169   -2.2339 C   0  0  0  0  0  0  0  0  0  0  0  0
   -5.3223   -0.2211   -2.8750 H   0  0  0  0  0  0  0  0  0  0  0  0
   -6.1322   -1.7605   -2.6658 H   0  0  0  0  0  0  0  0  0  0  0  0
   -5.7568   -0.7715   -1.2704 H   0  0  0  0  0  0  0  0  0  0  0  0
   -3.2124   -1.3578   -1.1289 N   0  0  0  0  0  0  0  0  0  0  0  0
   -1.8971   -1.8843   -0.8752 C   0  0  2  0  0  0  0  0  0  0  0  0
   -1.2676   -1.0599    0.2399 C   0  0  0  0  0  0  0  0  0  0  0  0
   -1.6270    0.0833    0.5138 O   0  0  0  0  0  0  0  0  0  0  0  0
   -1.0364   -1.8506   -2.1285 C   0  0  0  0  0  0  0  0  0  0  0  0
   -3.5631   -0.6202   -0.5206 H   0  0  0  0  0  0  0  0  0  0  0  0
   -2.0301   -2.9174   -0.5360 H   0  0  0  0  0  0  0  0  0  0  0  0
   -0.8921   -0.8236   -2.4833 H   0  0  0  0  0  0  0  0  0  0  0  0
   -0.0457   -2.2777   -1.9410 H   0  0  0  0  0  0  0  0  0  0  0  0
   -1.5052   -2.4193   -2.9387 H   0  0  0  0  0  0  0  0  0  0  0  0
   -0.2267   -1.7335    0.8672 N   0  0  0  0  0  0  0  0  0  0  0  0
    0.5363   -1.1590    1.9465 C   0  0  2  0  0  0  0  0  0  0  0  0
    0.6759   -2.2322    3.0201 C   0  0  0  0  0  0  0  0  0  0  0  0
   -0.1470   -3.1313    3.1803 O   0  0  0  0  0  0  0  0  0  0  0  0
   -0.1373    0.0866    2.5177 C   0  0  0  0  0  0  0  0  0  0  0  0
   -0.1678    1.3225    1.6094 C   0  0  0  0  0  0  0  0  0  0  0  0
    0.8000    1.3901    0.7971 O   0  5  0  0  0  0  0  0  0  0  0  0
   -1.1287    2.1224    1.7754 O   0  0  0  0  0  0  0  0  0  0  0  0
   -0.0113   -2.6869    0.5854 H   0  0  0  0  0  0  0  0  0  0  0  0
    1.5270   -0.9232    1.5417 H   0  0  0  0  0  0  0  0  0  0  0  0
    0.3516    0.3719    3.4592 H   0  0  0  0  0  0  0  0  0  0  0  0
   -1.1822   -0.1399    2.7669 H   0  0  0  0  0  0  0  0  0  0  0  0
    1.8532   -2.0971    3.7427 N   0  0  0  0  0  0  0  0  0  0  0  0
    2.2333   -3.0095    4.7959 C   0  0  2  0  0  0  0  0  0  0  0  0
    3.0447   -2.2306    5.8228 C   0  0  0  0  0  0  0  0  0  0  0  0
    3.6337   -1.1844    5.5587 O   0  0  0  0  0  0  0  0  0  0  0  0
    3.0311   -4.1834    4.2499 C   0  0  0  0  0  0  0  0  0  0  0  0
    2.4996   -1.3492    3.5089 H   0  0  0  0  0  0  0  0  0  0  0  0
    1.3052   -3.3651    5.2566 H   0  0  0  0  0  0  0  0  0  0  0  0
    3.9646   -3.8467    3.7845 H   0  0  0  0  0  0  0  0  0  0  0  0
    3.2940   -4.8887    5.0452 H   0  0  0  0  0  0  0  0  0  0  0  0
    2.4573   -4.7248    3.4900 H   0  0  0  0  0  0  0  0  0  0  0  0
    3.0693   -2.8636    7.0576 N   0  0  0  0  0  0  0  0  0  0  0  0
    3.7834   -2.3292    8.1936 C   0  0  0  0  0  0  0  0  0  0  0  0
    2.5367   -3.7181    7.1918 H   0  0  0  0  0  0  0  0  0  0  0  0
    4.7979   -2.7534    8.2223 H   0  0  0  0  0  0  0  0  0  0  0  0
    3.8461   -1.2346    8.1052 H   0  0  0  0  0  0  0  0  0  0  0  0
    3.2497   -2.5924    9.1188 H   0  0  0  0  0  0  0  0  0  0  0  0
  1  3  1  0  0  0  0
  1  7  1  0  0  0  0
  1  2  2  0  0  0  0
 30 31  1  0  0  0  0
 31 39  1  0  0  0  0
 31 32  2  0  0  0  0
  8  9  1  0  0  0  0
  9 17  1  0  0  0  0
  9 10  2  0  0  0  0
 18 19  1  0  0  0  0
 19 29  1  0  0  0  0
 19 20  2  0  0  0  0
 21 22  1  0  0  0  0
 22 23  1  0  0  0  0
 22 24  2  0  0  0  0
 30 33  1  0  0  0  0
  8 11  1  0  0  0  0
 39 40  1  0  0  0  0
 18 21  1  0  0  0  0
 29 30  1  0  0  0  0
  7  8  1  0  0  0  0
 17 18  1  0  0  0  0
  3  4  1  0  0  0  0
  3  5  1  0  0  0  0
  3  6  1  0  0  0  0
 33 36  1  0  0  0  0
 33 37  1  0  0  0  0
 33 38  1  0  0  0  0
 11 14  1  0  0  0  0
 11 15  1  0  0  0  0
 11 16  1  0  0  0  0
 40 42  1  0  0  0  0
 40 43  1  0  0  0  0
 40 44  1  0  0  0  0
 21 27  1  0  0  0  0
 21 28  1  0  0  0  0
 30 35  1  0  0  0  0
  8 13  1  0  0  0  0
 18 26  1  0  0  0  0
 39 41  1  0  0  0  0
  7 12  1  0  0  0  0
 29 34  1  0  0  0  0
 17 25  1  0  0  0  0
M  CHG  1  23  -1
M  END
$$$$

  -OEChem-05262214473D

 44 43  0     1  0  0  0  0  0999 V2000
   -4.0256   -1.8030   -2.1581 C   0  0  0  0  0  0  0  0  0  0  0  0
   -3.7513   -2.6782   -2.9709 O   0  0  0  0  0  0  0  0  0  0  0  0
   -5.3491   -1.1169   -2.2339 C   0  0  0  0  0  0  0  0  0  0  0  0
   -5.3223   -0.2211   -2.8750 H   0  0  0  0  0  0  0  0  0  0  0  0
   -6.1322   -1.7605   -2.6658 H   0  0  0  0  0  0  0  0  0  0  0  0
   -5.7568   -0.7715   -1.2704 H   0  0  0  0  0  0  0  0  0  0  0  0
   -3.2124   -1.3578   -1.1289 N   0  0  0  0  0  0  0  0  0  0  0  0
   -1.8971   -1.8843   -0.8752 C   0  0  2  0  0  0  0  0  0  0  0  0
   -1.2676   -1.0599    0.2399 C   0  0  0  0  0  0  0  0  0  0  0  0
   -1.6270    0.0833    0.5138 O   0  0  0  0  0  0  0  0  0  0  0  0
   -1.0364   -1.8506   -2.1285 C   0  0  0  0  0  0  0  0  0  0  0  0
   -3.5631   -0.6202   -0.5206 H   0  0  0  0  0  0  0  0  0  0  0  0
   -2.0301   -2.9174   -0.5360 H   0  0  0  0  0  0  0  0  0  0  0  0
   -0.8921   -0.8236   -2.4833 H   0  0  0  0  0  0  0  0  0  0  0  0
   -0.0457   -2.2777   -1.9410 H   0  0  0  0  0  0  0  0  0  0  0  0
   -1.5052   -2.4193   -2.9387 H   0  0  0  0  0  0  0  0  0  0  0  0
   -0.2267   -1.7335    0.8672 N   0  0  0  0  0  0  0  0  0  0  0  0
    0.5363   -1.1590    1.9465 C   0  0  2  0  0  0  0  0  0  0  0  0
    0.6759   -2.2322    3.0201 C   0  0  0  0  0  0  0  0  0  0  0  0
    0.0179   -3.2705    3.0196 O   0  0  0  0  0  0  0  0  0  0  0  0
   -0.1373    0.0866    2.5177 C   0  0  0  0  0  0  0  0  0  0  0  0
   -0.1678    1.3225    1.6094 C   0  0  0  0  0  0  0  0  0  0  0  0
    0.8000    1.3901    0.7971 O   0  5  0  0  0  0  0  0  0  0  0  0
   -1.1287    2.1224    1.7754 O   0  0  0  0  0  0  0  0  0  0  0  0
   -0.0113   -2.6869    0.5854 H   0  0  0  0  0  0  0  0  0  0  0  0
    1.5270   -0.9232    1.5417 H   0  0  0  0  0  0  0  0  0  0  0  0
    0.3516    0.3719    3.4592 H   0  0  0  0  0  0  0  0  0  0  0  0
   -1.1822   -0.1399    2.7669 H   0  0  0  0  0  0  0  0  0  0  0  0
    1.6584   -1.9168    3.9483 N   0  0  0  0  0  0  0  0  0  0  0  0
    2.0044   -2.7878    5.0473 C   0  0  2  0  0  0  0  0  0  0  0  0
    2.4599   -1.9178    6.2115 C   0  0  0  0  0  0  0  0  0  0  0  0
    2.8835   -0.7729    6.0677 O   0  0  0  0  0  0  0  0  0  0  0  0
    3.0901   -3.7757    4.6498 C   0  0  0  0  0  0  0  0  0  0  0  0
    2.1871   -1.0558    3.8428 H   0  0  0  0  0  0  0  0  0  0  0  0
    1.0904   -3.3232    5.3265 H   0  0  0  0  0  0  0  0  0  0  0  0
    4.0137   -3.2577    4.3668 H   0  0  0  0  0  0  0  0  0  0  0  0
    3.3311   -4.4538    5.4751 H   0  0  0  0  0  0  0  0  0  0  0  0
    2.7723   -4.3802    3.7934 H   0  0  0  0  0  0  0  0  0  0  0  0
    2.3781   -2.5857    7.4253 N   0  0  0  0  0  0  0  0  0  0  0  0
    2.7650   -1.9780    8.6771 C   0  0  0  0  0  0  0  0  0  0  0  0
    1.9970   -3.5269    7.4531 H   0  0  0  0  0  0  0  0  0  0  0  0
    3.8183   -2.2134    8.8895 H   0  0  0  0  0  0  0  0  0  0  0  0
    2.6396   -0.8873    8.6093 H   0  0  0  0  0  0  0  0  0  0  0  0
    2.1314   -2.3703    9.4863 H   0  0  0  0  0  0  0  0  0  0  0  0
  1  3  1  0  0  0  0
  1  7  1  0  0  0  0
  1  2  2  0  0  0  0
 30 31  1  0  0  0  0
 31 39  1  0  0  0  0
 31 32  2  0  0  0  0
  8  9  1  0  0  0  0
  9 17  1  0  0  0  0
  9 10  2  0  0  0  0
 18 19  1  0  0  0  0
 19 29  1  0  0  0  0
 19 20  2  0  0  0  0
 21 22  1  0  0  0  0
 22 23  1  0  0  0  0
 22 24  2  0  0  0  0
 30 33  1  0  0  0  0
  8 11  1  0  0  0  0
 39 40  1  0  0  0  0
 18 21  1  0  0  0  0
 29 30  1  0  0  0  0
  7  8  1  0  0  0  0
 17 18  1  0  0  0  0
  3  4  1  0  0  0  0
  3  5  1  0  0  0  0
  3  6  1  0  0  0  0
 33 36  1  0  0  0  0
 33 37  1  0  0  0  0
 33 38  1  0  0  0  0
 11 14  1  0  0  0  0
 11 15  1  0  0  0  0
 11 16  1  0  0  0  0
 40 42  1  0  0  0  0
 40 43  1  0  0  0  0
 40 44  1  0  0  0  0
 21 27  1  0  0  0  0
 21 28  1  0  0  0  0
 30 35  1  0  0  0  0
  8 13  1  0  0  0  0
 18 26  1  0  0  0  0
 39 41  1  0  0  0  0
  7 12  1  0  0  0  0
 29 34  1  0  0  0  0
 17 25  1  0  0  0  0
M  CHG  1  23  -1
M  END
$$$$

  -OEChem-05262214473D

 44 43  0     1  0  0  0  0  0999 V2000
   -4.0256   -1.8030   -2.1581 C   0  0  0  0  0  0  0  0  0  0  0  0
   -3.7513   -2.6782   -2.9709 O   0  0  0  0  0  0  0  0  0  0  0  0
   -5.3491   -1.1169   -2.2339 C   0  0  0  0  0  0  0  0  0  0  0  0
   -5.3223   -0.2211   -2.8750 H   0  0  0  0  0  0  0  0  0  0  0  0
   -6.1322   -1.7605   -2.6658 H   0  0  0  0  0  0  0  0  0  0  0  0
   -5.7568   -0.7715   -1.2704 H   0  0  0  0  0  0  0  0  0  0  0  0
   -3.2124   -1.3578   -1.1289 N   0  0  0  0  0  0  0  0  0  0  0  0
   -1.8971   -1.8843   -0.8752 C   0  0  2  0  0  0  0  0  0  0  0  0
   -1.2676   -1.0599    0.2399 C   0  0  0  0  0  0  0  0  0  0  0  0
   -1.6270    0.0833    0.5138 O   0  0  0  0  0  0  0  0  0  0  0  0
   -1.0364   -1.8506   -2.1285 C   0  0  0  0  0  0  0  0  0  0  0  0
   -3.5631   -0.6202   -0.5206 H   0  0  0  0  0  0  0  0  0  0  0  0
   -2.0301   -2.9174   -0.5360 H   0  0  0  0  0  0  0  0  0  0  0  0
   -0.8921   -0.8236   -2.4833 H   0  0  0  0  0  0  0  0  0  0  0  0
   -0.0457   -2.2777   -1.9410 H   0  0  0  0  0  0  0  0  0  0  0  0
   -1.5052   -2.4193   -2.9387 H   0  0  0  0  0  0  0  0  0  0  0  0
   -0.2267   -1.7335    0.8672 N   0  0  0  0  0  0  0  0  0  0  0  0
    0.5363   -1.1590    1.9465 C   0  0  2  0  0  0  0  0  0  0  0  0
    0.9981   -2.3095    2.8335 C   0  0  0  0  0  0  0  0  0  0  0  0
    0.7623   -3.4888    2.5788 O   0  0  0  0  0  0  0  0  0  0  0  0
   -0.2866   -0.1570    2.7529 C   0  0  0  0  0  0  0  0  0  0  0  0
   -0.6530    1.1526    2.0428 C   0  0  0  0  0  0  0  0  0  0  0  0
    0.1836    1.5158    1.1659 O   0  5  0  0  0  0  0  0  0  0  0  0
   -1.7203    1.7154    2.4103 O   0  0  0  0  0  0  0  0  0  0  0  0
   -0.0113   -2.6869    0.5854 H   0  0  0  0  0  0  0  0  0  0  0  0
    1.4114   -0.6795    1.4936 H   0  0  0  0  0  0  0  0  0  0  0  0
    0.2469    0.0991    3.6785 H   0  0  0  0  0  0  0  0  0  0  0  0
   -1.2346   -0.6186    3.0588 H   0  0  0  0  0  0  0  0  0  0  0  0
    1.7483   -1.8666    3.9139 N   0  0  0  0  0  0  0  0  0  0  0  0
    2.3275   -2.7656    4.8849 C   0  0  2  0  0  0  0  0  0  0  0  0
    2.3737   -2.0438    6.2252 C   0  0  0  0  0  0  0  0  0  0  0  0
    2.3604   -0.8189    6.3282 O   0  0  0  0  0  0  0  0  0  0  0  0
    3.7170   -3.2162    4.4620 C   0  0  0  0  0  0  0  0  0  0  0  0
    1.9337   -0.8735    4.0195 H   0  0  0  0  0  0  0  0  0  0  0  0
    1.6563   -3.6283    4.9570 H   0  0  0  0  0  0  0  0  0  0  0  0
    4.4037   -2.3653    4.3844 H   0  0  0  0  0  0  0  0  0  0  0  0
    4.1431   -3.9198    5.1848 H   0  0  0  0  0  0  0  0  0  0  0  0
    3.6862   -3.7087    3.4841 H   0  0  0  0  0  0  0  0  0  0  0  0
    2.4751   -2.9274    7.2906 N   0  0  0  0  0  0  0  0  0  0  0  0
    2.5479   -2.4873    8.6643 C   0  0  0  0  0  0  0  0  0  0  0  0
    2.4602   -3.9275    7.1135 H   0  0  0  0  0  0  0  0  0  0  0  0
    3.6020   -2.3814    8.9605 H   0  0  0  0  0  0  0  0  0  0  0  0
    2.0394   -1.5172    8.7658 H   0  0  0  0  0  0  0  0  0  0  0  0
    2.0575   -3.2281    9.3130 H   0  0  0  0  0  0  0  0  0  0  0  0
  1  3  1  0  0  0  0
  1  7  1  0  0  0  0
  1  2  2  0  0  0  0
 30 31  1  0  0  0  0
 31 39  1  0  0  0  0
 31 32  2  0  0  0  0
  8  9  1  0  0  0  0
  9 17  1  0  0  0  0
  9 10  2  0  0  0  0
 18 19  1  0  0  0  0
 19 29  1  0  0  0  0
 19 20  2  0  0  0  0
 21 22  1  0  0  0  0
 22 23  1  0  0  0  0
 22 24  2  0  0  0  0
 30 33  1  0  0  0  0
  8 11  1  0  0  0  0
 39 40  1  0  0  0  0
 18 21  1  0  0  0  0
 29 30  1  0  0  0  0
  7  8  1  0  0  0  0
 17 18  1  0  0  0  0
  3  4  1  0  0  0  0
  3  5  1  0  0  0  0
  3  6  1  0  0  0  0
 33 36  1  0  0  0  0
 33 37  1  0  0  0  0
 33 38  1  0  0  0  0
 11 14  1  0  0  0  0
 11 15  1  0  0  0  0
 11 16  1  0  0  0  0
 40 42  1  0  0  0  0
 40 43  1  0  0  0  0
 40 44  1  0  0  0  0
 21 27  1  0  0  0  0
 21 28  1  0  0  0  0
 30 35  1  0  0  0  0
  8 13  1  0  0  0  0
 18 26  1  0  0  0  0
 39 41  1  0  0  0  0
  7 12  1  0  0  0  0
 29 34  1  0  0  0  0
 17 25  1  0  0  0  0
M  CHG  1  23  -1
M  END
$$$$

  -OEChem-05262214473D

 44 43  0     1  0  0  0  0  0999 V2000
   -4.0256   -1.8030   -2.1581 C   0  0  0  0  0  0  0  0  0  0  0  0
   -3.7513   -2.6782   -2.9709 O   0  0  0  0  0  0  0  0  0  0  0  0
   -5.3491   -1.1169   -2.2339 C   0  0  0  0  0  0  0  0  0  0  0  0
   -5.3223   -0.2211   -2.8750 H   0  0  0  0  0  0  0  0  0  0  0  0
   -6.1322   -1.7605   -2.6658 H   0  0  0  0  0  0  0  0  0  0  0  0
   -5.7568   -0.7715   -1.2704 H   0  0  0  0  0  0  0  0  0  0  0  0
   -3.2124   -1.3578   -1.1289 N   0  0  0  0  0  0  0  0  0  0  0  0
   -1.8971   -1.8843   -0.8752 C   0  0  2  0  0  0  0  0  0  0  0  0
   -1.2676   -1.0599    0.2399 C   0  0  0  0  0  0  0  0  0  0  0  0
   -1.6270    0.0833    0.5138 O   0  0  0  0  0  0  0  0  0  0  0  0
   -1.0364   -1.8506   -2.1285 C   0  0  0  0  0  0  0  0  0  0  0  0
   -3.5631   -0.6202   -0.5206 H   0  0  0  0  0  0  0  0  0  0  0  0
   -2.0301   -2.9174   -0.5360 H   0  0  0  0  0  0  0  0  0  0  0  0
   -0.8921   -0.8236   -2.4833 H   0  0  0  0  0  0  0  0  0  0  0  0
   -0.0457   -2.2777   -1.9410 H   0  0  0  0  0  0  0  0  0  0  0  0
   -1.5052   -2.4193   -2.9387 H   0  0  0  0  0  0  0  0  0  0  0  0
   -0.2267   -1.7335    0.8672 N   0  0  0  0  0  0  0  0  0  0  0  0
    0.5363   -1.1590    1.9465 C   0  0  2  0  0  0  0  0  0  0  0  0
    0.9981   -2.3095    2.8335 C   0  0  0  0  0  0  0  0  0  0  0  0
    1.0046   -3.4814    2.4622 O   0  0  0  0  0  0  0  0  0  0  0  0
   -0.2866   -0.1570    2.7529 C   0  0  0  0  0  0  0  0  0  0  0  0
   -0.6530    1.1526    2.0428 C   0  0  0  0  0  0  0  0  0  0  0  0
    0.1836    1.5158    1.1659 O   0  5  0  0  0  0  0  0  0  0  0  0
   -1.7203    1.7154    2.4103 O   0  0  0  0  0  0  0  0  0  0  0  0
   -0.0113   -2.6869    0.5854 H   0  0  0  0  0  0  0  0  0  0  0  0
    1.4114   -0.6795    1.4936 H   0  0  0  0  0  0  0  0  0  0  0  0
    0.2469    0.0991    3.6785 H   0  0  0  0  0  0  0  0  0  0  0  0
   -1.2346   -0.6186    3.0588 H   0  0  0  0  0  0  0  0  0  0  0  0
    1.4504   -1.8668    4.0687 N   0  0  0  0  0  0  0  0  0  0  0  0
    1.9702   -2.7606    5.0774 C   0  0  2  0  0  0  0  0  0  0  0  0
    1.6469   -2.1679    6.4426 C   0  0  0  0  0  0  0  0  0  0  0  0
    1.4205   -0.9725    6.6183 O   0  0  0  0  0  0  0  0  0  0  0  0
    3.4682   -2.9666    4.9152 C   0  0  0  0  0  0  0  0  0  0  0  0
    1.4527   -0.8717    4.2723 H   0  0  0  0  0  0  0  0  0  0  0  0
    1.4427   -3.7132    4.9580 H   0  0  0  0  0  0  0  0  0  0  0  0
    4.0135   -2.0229    5.0316 H   0  0  0  0  0  0  0  0  0  0  0  0
    3.8556   -3.6666    5.6629 H   0  0  0  0  0  0  0  0  0  0  0  0
    3.7015   -3.3650    3.9219 H   0  0  0  0  0  0  0  0  0  0  0  0
    1.6834   -3.1236    7.4483 N   0  0  0  0  0  0  0  0  0  0  0  0
    1.4242   -2.8078    8.8336 C   0  0  0  0  0  0  0  0  0  0  0  0
    1.8609   -4.0946    7.2088 H   0  0  0  0  0  0  0  0  0  0  0  0
    2.3727   -2.5806    9.3422 H   0  0  0  0  0  0  0  0  0  0  0  0
    0.7585   -1.9340    8.8921 H   0  0  0  0  0  0  0  0  0  0  0  0
    0.9434   -3.6683    9.3220 H   0  0  0  0  0  0  0  0  0  0  0  0
  1  3  1  0  0  0  0
  1  7  1  0  0  0  0
  1  2  2  0  0  0  0
 30 31  1  0  0  0  0
 31 39  1  0  0  0  0
 31 32  2  0  0  0  0
  8  9  1  0  0  0  0
  9 17  1  0  0  0  0
  9 10  2  0  0  0  0
 18 19  1  0  0  0  0
 19 29  1  0  0  0  0
 19 20  2  0  0  0  0
 21 22  1  0  0  0  0
 22 23  1  0  0  0  0
 22 24  2  0  0  0  0
 30 33  1  0  0  0  0
  8 11  1  0  0  0  0
 39 40  1  0  0  0  0
 18 21  1  0  0  0  0
 29 30  1  0  0  0  0
  7  8  1  0  0  0  0
 17 18  1  0  0  0  0
  3  4  1  0  0  0  0
  3  5  1  0  0  0  0
  3  6  1  0  0  0  0
 33 36  1  0  0  0  0
 33 37  1  0  0  0  0
 33 38  1  0  0  0  0
 11 14  1  0  0  0  0
 11 15  1  0  0  0  0
 11 16  1  0  0  0  0
 40 42  1  0  0  0  0
 40 43  1  0  0  0  0
 40 44  1  0  0  0  0
 21 27  1  0  0  0  0
 21 28  1  0  0  0  0
 30 35  1  0  0  0  0
  8 13  1  0  0  0  0
 18 26  1  0  0  0  0
 39 41  1  0  0  0  0
  7 12  1  0  0  0  0
 29 34  1  0  0  0  0
 17 25  1  0  0  0  0
M  CHG  1  23  -1
M  END
$$$$

  -OEChem-05262214473D

 44 43  0     1  0  0  0  0  0999 V2000
   -4.0256   -1.8030   -2.1581 C   0  0  0  0  0  0  0  0  0  0  0  0
   -3.7513   -2.6782   -2.9709 O   0  0  0  0  0  0  0  0  0  0  0  0
   -5.3491   -1.1169   -2.2339 C   0  0  0  0  0  0  0  0  0  0  0  0
   -5.3223   -0.2211   -2.8750 H   0  0  0  0  0  0  0  0  0  0  0  0
   -6.1322   -1.7605   -2.6658 H   0  0  0  0  0  0  0  0  0  0  0  0
   -5.7568   -0.7715   -1.2704 H   0  0  0  0  0  0  0  0  0  0  0  0
   -3.2124   -1.3578   -1.1289 N   0  0  0  0  0  0  0  0  0  0  0  0
   -1.8971   -1.8843   -0.8752 C   0  0  2  0  0  0  0  0  0  0  0  0
   -1.2676   -1.0599    0.2399 C   0  0  0  0  0  0  0  0  0  0  0  0
   -1.6270    0.0833    0.5138 O   0  0  0  0  0  0  0  0  0  0  0  0
   -1.0364   -1.8506   -2.1285 C   0  0  0  0  0  0  0  0  0  0  0  0
   -3.5631   -0.6202   -0.5206 H   0  0  0  0  0  0  0  0  0  0  0  0
   -2.0301   -2.9174   -0.5360 H   0  0  0  0  0  0  0  0  0  0  0  0
   -0.8921   -0.8236   -2.4833 H   0  0  0  0  0  0  0  0  0  0  0  0
   -0.0457   -2.2777   -1.9410 H   0  0  0  0  0  0  0  0  0  0  0  0
   -1.5052   -2.4193   -2.9387 H   0  0  0  0  0  0  0  0  0  0  0  0
   -0.2267   -1.7335    0.8672 N   0  0  0  0  0  0  0  0  0  0  0  0
    0.5363   -1.1590    1.9465 C   0  0  2  0  0  0  0  0  0  0  0  0
    0.9981   -2.3095    2.8335 C   0  0  0  0  0  0  0  0  0  0  0  0
    1.2603   -3.4286    2.3976 O   0  0  0  0  0  0  0  0  0  0  0  0
   -0.2866   -0.1570    2.7529 C   0  0  0  0  0  0  0  0  0  0  0  0
   -0.6530    1.1526    2.0428 C   0  0  0  0  0  0  0  0  0  0  0  0
    0.1836    1.5158    1.1659 O   0  5  0  0  0  0  0  0  0  0  0  0
   -1.7203    1.7154    2.4103 O   0  0  0  0  0  0  0  0  0  0  0  0
   -0.0113   -2.6869    0.5854 H   0  0  0  0  0  0  0  0  0  0  0  0
    1.4114   -0.6795    1.4936 H   0  0  0  0  0  0  0  0  0  0  0  0
    0.2469    0.0991    3.6785 H   0  0  0  0  0  0  0  0  0  0  0  0
   -1.2346   -0.6186    3.0588 H   0  0  0  0  0  0  0  0  0  0  0  0
    1.1324   -1.9241    4.1600 N   0  0  0  0  0  0  0  0  0  0  0  0
    1.5867   -2.8246    5.1939 C   0  0  2  0  0  0  0  0  0  0  0  0
    0.9211   -2.4143    6.5009 C   0  0  0  0  0  0  0  0  0  0  0  0
    0.4791   -1.2852    6.7029 O   0  0  0  0  0  0  0  0  0  0  0  0
    3.1017   -2.7986    5.3240 C   0  0  0  0  0  0  0  0  0  0  0  0
    0.9385   -0.9622    4.4226 H   0  0  0  0  0  0  0  0  0  0  0  0
    1.2491   -3.8275    4.9106 H   0  0  0  0  0  0  0  0  0  0  0  0
    3.4586   -1.8017    5.6074 H   0  0  0  0  0  0  0  0  0  0  0  0
    3.4465   -3.5028    6.0884 H   0  0  0  0  0  0  0  0  0  0  0  0
    3.5790   -3.0651    4.3748 H   0  0  0  0  0  0  0  0  0  0  0  0
    0.9174   -3.4447    7.4307 N   0  0  0  0  0  0  0  0  0  0  0  0
    0.3539   -3.2999    8.7526 C   0  0  0  0  0  0  0  0  0  0  0  0
    1.2886   -4.3537    7.1706 H   0  0  0  0  0  0  0  0  0  0  0  0
    1.1408   -2.9880    9.4551 H   0  0  0  0  0  0  0  0  0  0  0  0
   -0.4406   -2.5394    8.7311 H   0  0  0  0  0  0  0  0  0  0  0  0
   -0.0681   -4.2620    9.0785 H   0  0  0  0  0  0  0  0  0  0  0  0
  1  3  1  0  0  0  0
  1  7  1  0  0  0  0
  1  2  2  0  0  0  0
 30 31  1  0  0  0  0
 31 39  1  0  0  0  0
 31 32  2  0  0  0  0
  8  9  1  0  0  0  0
  9 17  1  0  0  0  0
  9 10  2  0  0  0  0
 18 19  1  0  0  0  0
 19 29  1  0  0  0  0
 19 20  2  0  0  0  0
 21 22  1  0  0  0  0
 22 23  1  0  0  0  0
 22 24  2  0  0  0  0
 30 33  1  0  0  0  0
  8 11  1  0  0  0  0
 39 40  1  0  0  0  0
 18 21  1  0  0  0  0
 29 30  1  0  0  0  0
  7  8  1  0  0  0  0
 17 18  1  0  0  0  0
  3  4  1  0  0  0  0
  3  5  1  0  0  0  0
  3  6  1  0  0  0  0
 33 36  1  0  0  0  0
 33 37  1  0  0  0  0
 33 38  1  0  0  0  0
 11 14  1  0  0  0  0
 11 15  1  0  0  0  0
 11 16  1  0  0  0  0
 40 42  1  0  0  0  0
 40 43  1  0  0  0  0
 40 44  1  0  0  0  0
 21 27  1  0  0  0  0
 21 28  1  0  0  0  0
 30 35  1  0  0  0  0
  8 13  1  0  0  0  0
 18 26  1  0  0  0  0
 39 41  1  0  0  0  0
  7 12  1  0  0  0  0
 29 34  1  0  0  0  0
 17 25  1  0  0  0  0
M  CHG  1  23  -1
M  END
$$$$

  -OEChem-05262214473D

 44 43  0     1  0  0  0  0  0999 V2000
   -4.0256   -1.8030   -2.1581 C   0  0  0  0  0  0  0  0  0  0  0  0
   -3.7513   -2.6782   -2.9709 O   0  0  0  0  0  0  0  0  0  0  0  0
   -5.3491   -1.1169   -2.2339 C   0  0  0  0  0  0  0  0  0  0  0  0
   -5.3223   -0.2211   -2.8750 H   0  0  0  0  0  0  0  0  0  0  0  0
   -6.1322   -1.7605   -2.6658 H   0  0  0  0  0  0  0  0  0  0  0  0
   -5.7568   -0.7715   -1.2704 H   0  0  0  0  0  0  0  0  0  0  0  0
   -3.2124   -1.3578   -1.1289 N   0  0  0  0  0  0  0  0  0  0  0  0
   -1.8971   -1.8843   -0.8752 C   0  0  2  0  0  0  0  0  0  0  0  0
   -1.2676   -1.0599    0.2399 C   0  0  0  0  0  0  0  0  0  0  0  0
   -1.6270    0.0833    0.5138 O   0  0  0  0  0  0  0  0  0  0  0  0
   -1.0364   -1.8506   -2.1285 C   0  0  0  0  0  0  0  0  0  0  0  0
   -3.5631   -0.6202   -0.5206 H   0  0  0  0  0  0  0  0  0  0  0  0
   -2.0301   -2.9174   -0.5360 H   0  0  0  0  0  0  0  0  0  0  0  0
   -0.8921   -0.8236   -2.4833 H   0  0  0  0  0  0  0  0  0  0  0  0
   -0.0457   -2.2777   -1.9410 H   0  0  0  0  0  0  0  0  0  0  0  0
   -1.5052   -2.4193   -2.9387 H   0  0  0  0  0  0  0  0  0  0  0  0
   -0.2267   -1.7335    0.8672 N   0  0  0  0  0  0  0  0  0  0  0  0
    0.5363   -1.1590    1.9465 C   0  0  2  0  0  0  0  0  0  0  0  0
    0.9981   -2.3095    2.8335 C   0  0  0  0  0  0  0  0  0  0  0  0
    1.5120   -3.3340    2.3892 O   0  0  0  0  0  0  0  0  0  0  0  0
   -0.2866   -0.1570    2.7529 C   0  0  0  0  0  0  0  0  0  0  0  0
   -0.6530    1.1526    2.0428 C   0  0  0  0  0  0  0  0  0  0  0  0
    0.1836    1.5158    1.1659 O   0  5  0  0  0  0  0  0  0  0  0  0
   -1.7203    1.7154    2.4103 O   0  0  0  0  0  0  0  0  0  0  0  0
   -0.0113   -2.6869    0.5854 H   0  0  0  0  0  0  0  0  0  0  0  0
    1.4114   -0.6795    1.4936 H   0  0  0  0  0  0  0  0  0  0  0  0
    0.2469    0.0991    3.6785 H   0  0  0  0  0  0  0  0  0  0  0  0
   -1.2346   -0.6186    3.0588 H   0  0  0  0  0  0  0  0  0  0  0  0
    0.8161   -2.0344    4.1817 N   0  0  0  0  0  0  0  0  0  0  0  0
    1.2032   -2.9534    5.2266 C   0  0  2  0  0  0  0  0  0  0  0  0
    0.2457   -2.7662    6.3961 C   0  0  0  0  0  0  0  0  0  0  0  0
   -0.3997   -1.7356    6.5762 O   0  0  0  0  0  0  0  0  0  0  0  0
    2.6425   -2.7236    5.6604 C   0  0  0  0  0  0  0  0  0  0  0  0
    0.4261   -1.1388    4.4603 H   0  0  0  0  0  0  0  0  0  0  0  0
    1.0885   -3.9633    4.8180 H   0  0  0  0  0  0  0  0  0  0  0  0
    2.7769   -1.7168    6.0725 H   0  0  0  0  0  0  0  0  0  0  0  0
    2.9434   -3.4395    6.4323 H   0  0  0  0  0  0  0  0  0  0  0  0
    3.3270   -2.8293    4.8117 H   0  0  0  0  0  0  0  0  0  0  0  0
    0.2293   -3.8688    7.2388 N   0  0  0  0  0  0  0  0  0  0  0  0
   -0.5900   -3.9300    8.4267 C   0  0  0  0  0  0  0  0  0  0  0  0
    0.7823   -4.6872    7.0017 H   0  0  0  0  0  0  0  0  0  0  0  0
   -0.0098   -3.5759    9.2915 H   0  0  0  0  0  0  0  0  0  0  0  0
   -1.4763   -3.2922    8.2939 H   0  0  0  0  0  0  0  0  0  0  0  0
   -0.9082   -4.9687    8.5993 H   0  0  0  0  0  0  0  0  0  0  0  0
  1  3  1  0  0  0  0
  1  7  1  0  0  0  0
  1  2  2  0  0  0  0
 30 31  1  0  0  0  0
 31 39  1  0  0  0  0
 31 32  2  0  0  0  0
  8  9  1  0  0  0  0
  9 17  1  0  0  0  0
  9 10  2  0  0  0  0
 18 19  1  0  0  0  0
 19 29  1  0  0  0  0
 19 20  2  0  0  0  0
 21 22  1  0  0  0  0
 22 23  1  0  0  0  0
 22 24  2  0  0  0  0
 30 33  1  0  0  0  0
  8 11  1  0  0  0  0
 39 40  1  0  0  0  0
 18 21  1  0  0  0  0
 29 30  1  0  0  0  0
  7  8  1  0  0  0  0
 17 18  1  0  0  0  0
  3  4  1  0  0  0  0
  3  5  1  0  0  0  0
  3  6  1  0  0  0  0
 33 36  1  0  0  0  0
 33 37  1  0  0  0  0
 33 38  1  0  0  0  0
 11 14  1  0  0  0  0
 11 15  1  0  0  0  0
 11 16  1  0  0  0  0
 40 42  1  0  0  0  0
 40 43  1  0  0  0  0
 40 44  1  0  0  0  0
 21 27  1  0  0  0  0
 21 28  1  0  0  0  0
 30 35  1  0  0  0  0
  8 13  1  0  0  0  0
 18 26  1  0  0  0  0
 39 41  1  0  0  0  0
  7 12  1  0  0  0  0
 29 34  1  0  0  0  0
 17 25  1  0  0  0  0
M  CHG  1  23  -1
M  END
$$$$

  -OEChem-05262214473D

 44 43  0     1  0  0  0  0  0999 V2000
   -4.0256   -1.8030   -2.1581 C   0  0  0  0  0  0  0  0  0  0  0  0
   -3.7513   -2.6782   -2.9709 O   0  0  0  0  0  0  0  0  0  0  0  0
   -5.3491   -1.1169   -2.2339 C   0  0  0  0  0  0  0  0  0  0  0  0
   -5.3223   -0.2211   -2.8750 H   0  0  0  0  0  0  0  0  0  0  0  0
   -6.1322   -1.7605   -2.6658 H   0  0  0  0  0  0  0  0  0  0  0  0
   -5.7568   -0.7715   -1.2704 H   0  0  0  0  0  0  0  0  0  0  0  0
   -3.2124   -1.3578   -1.1289 N   0  0  0  0  0  0  0  0  0  0  0  0
   -1.8971   -1.8843   -0.8752 C   0  0  2  0  0  0  0  0  0  0  0  0
   -1.2676   -1.0599    0.2399 C   0  0  0  0  0  0  0  0  0  0  0  0
   -1.6270    0.0833    0.5138 O   0  0  0  0  0  0  0  0  0  0  0  0
   -1.0364   -1.8506   -2.1285 C   0  0  0  0  0  0  0  0  0  0  0  0
   -3.5631   -0.6202   -0.5206 H   0  0  0  0  0  0  0  0  0  0  0  0
   -2.0301   -2.9174   -0.5360 H   0  0  0  0  0  0  0  0  0  0  0  0
   -0.8921   -0.8236   -2.4833 H   0  0  0  0  0  0  0  0  0  0  0  0
   -0.0457   -2.2777   -1.9410 H   0  0  0  0  0  0  0  0  0  0  0  0
   -1.5052   -2.4193   -2.9387 H   0  0  0  0  0  0  0  0  0  0  0  0
   -0.2267   -1.7335    0.8672 N   0  0  0  0  0  0  0  0  0  0  0  0
    0.5363   -1.1590    1.9465 C   0  0  2  0  0  0  0  0  0  0  0  0
    0.9981   -2.3095    2.8335 C   0  0  0  0  0  0  0  0  0  0  0  0
    1.7425   -3.2041    2.4377 O   0  0  0  0  0  0  0  0  0  0  0  0
   -0.2866   -0.1570    2.7529 C   0  0  0  0  0  0  0  0  0  0  0  0
   -0.6530    1.1526    2.0428 C   0  0  0  0  0  0  0  0  0  0  0  0
    0.1836    1.5158    1.1659 O   0  5  0  0  0  0  0  0  0  0  0  0
   -1.7203    1.7154    2.4103 O   0  0  0  0  0  0  0  0  0  0  0  0
   -0.0113   -2.6869    0.5854 H   0  0  0  0  0  0  0  0  0  0  0  0
    1.4114   -0.6795    1.4936 H   0  0  0  0  0  0  0  0  0  0  0  0
    0.2469    0.0991    3.6785 H   0  0  0  0  0  0  0  0  0  0  0  0
   -1.2346   -0.6186    3.0588 H   0  0  0  0  0  0  0  0  0  0  0  0
    0.5229   -2.1903    4.1321 N   0  0  0  0  0  0  0  0  0  0  0  0
    0.8458   -3.1381    5.1731 C   0  0  2  0  0  0  0  0  0  0  0  0
   -0.3332   -3.1996    6.1353 C   0  0  0  0  0  0  0  0  0  0  0  0
   -1.1560   -2.2931    6.2468 O   0  0  0  0  0  0  0  0  0  0  0  0
    2.1220   -2.7466    5.9015 C   0  0  0  0  0  0  0  0  0  0  0  0
   -0.0497   -1.3896    4.3827 H   0  0  0  0  0  0  0  0  0  0  0  0
    0.9720   -4.1115    4.6866 H   0  0  0  0  0  0  0  0  0  0  0  0
    2.0147   -1.7739    6.3952 H   0  0  0  0  0  0  0  0  0  0  0  0
    2.3809   -3.4811    6.6712 H   0  0  0  0  0  0  0  0  0  0  0  0
    2.9627   -2.6738    5.2031 H   0  0  0  0  0  0  0  0  0  0  0  0
   -0.3340   -4.3670    6.8858 N   0  0  0  0  0  0  0  0  0  0  0  0
   -1.3431   -4.6553    7.8781 C   0  0  0  0  0  0  0  0  0  0  0  0
    0.3764   -5.0723    6.7135 H   0  0  0  0  0  0  0  0  0  0  0  0
   -1.0007   -4.3043    8.8627 H   0  0  0  0  0  0  0  0  0  0  0  0
   -2.2779   -4.1410    7.6103 H   0  0  0  0  0  0  0  0  0  0  0  0
   -1.5197   -5.7403    7.9168 H   0  0  0  0  0  0  0  0  0  0  0  0
  1  3  1  0  0  0  0
  1  7  1  0  0  0  0
  1  2  2  0  0  0  0
 30 31  1  0  0  0  0
 31 39  1  0  0  0  0
 31 32  2  0  0  0  0
  8  9  1  0  0  0  0
  9 17  1  0  0  0  0
  9 10  2  0  0  0  0
 18 19  1  0  0  0  0
 19 29  1  0  0  0  0
 19 20  2  0  0  0  0
 21 22  1  0  0  0  0
 22 23  1  0  0  0  0
 22 24  2  0  0  0  0
 30 33  1  0  0  0  0
  8 11  1  0  0  0  0
 39 40  1  0  0  0  0
 18 21  1  0  0  0  0
 29 30  1  0  0  0  0
  7  8  1  0  0  0  0
 17 18  1  0  0  0  0
  3  4  1  0  0  0  0
  3  5  1  0  0  0  0
  3  6  1  0  0  0  0
 33 36  1  0  0  0  0
 33 37  1  0  0  0  0
 33 38  1  0  0  0  0
 11 14  1  0  0  0  0
 11 15  1  0  0  0  0
 11 16  1  0  0  0  0
 40 42  1  0  0  0  0
 40 43  1  0  0  0  0
 40 44  1  0  0  0  0
 21 27  1  0  0  0  0
 21 28  1  0  0  0  0
 30 35  1  0  0  0  0
  8 13  1  0  0  0  0
 18 26  1  0  0  0  0
 39 41  1  0  0  0  0
  7 12  1  0  0  0  0
 29 34  1  0  0  0  0
 17 25  1  0  0  0  0
M  CHG  1  23  -1
M  END
$$$$

  -OEChem-05262214473D

 44 43  0     1  0  0  0  0  0999 V2000
   -4.0256   -1.8030   -2.1581 C   0  0  0  0  0  0  0  0  0  0  0  0
   -3.7513   -2.6782   -2.9709 O   0  0  0  0  0  0  0  0  0  0  0  0
   -5.3491   -1.1169   -2.2339 C   0  0  0  0  0  0  0  0  0  0  0  0
   -5.3223   -0.2211   -2.8750 H   0  0  0  0  0  0  0  0  0  0  0  0
   -6.1322   -1.7605   -2.6658 H   0  0  0  0  0  0  0  0  0  0  0  0
   -5.7568   -0.7715   -1.2704 H   0  0  0  0  0  0  0  0  0  0  0  0
   -3.2124   -1.3578   -1.1289 N   0  0  0  0  0  0  0  0  0  0  0  0
   -1.8971   -1.8843   -0.8752 C   0  0  2  0  0  0  0  0  0  0  0  0
   -1.2676   -1.0599    0.2399 C   0  0  0  0  0  0  0  0  0  0  0  0
   -1.6270    0.0833    0.5138 O   0  0  0  0  0  0  0  0  0  0  0  0
   -1.0364   -1.8506   -2.1285 C   0  0  0  0  0  0  0  0  0  0  0  0
   -3.5631   -0.6202   -0.5206 H   0  0  0  0  0  0  0  0  0  0  0  0
   -2.0301   -2.9174   -0.5360 H   0  0  0  0  0  0  0  0  0  0  0  0
   -0.8921   -0.8236   -2.4833 H   0  0  0  0  0  0  0  0  0  0  0  0
   -0.0457   -2.2777   -1.9410 H   0  0  0  0  0  0  0  0  0  0  0  0
   -1.5052   -2.4193   -2.9387 H   0  0  0  0  0  0  0  0  0  0  0  0
   -0.2267   -1.7335    0.8672 N   0  0  0  0  0  0  0  0  0  0  0  0
    0.5363   -1.1590    1.9465 C   0  0  2  0  0  0  0  0  0  0  0  0
    0.9981   -2.3095    2.8335 C   0  0  0  0  0  0  0  0  0  0  0  0
    1.9361   -3.0477    2.5397 O   0  0  0  0  0  0  0  0  0  0  0  0
   -0.2866   -0.1570    2.7529 C   0  0  0  0  0  0  0  0  0  0  0  0
   -0.6530    1.1526    2.0428 C   0  0  0  0  0  0  0  0  0  0  0  0
    0.1836    1.5158    1.1659 O   0  5  0  0  0  0  0  0  0  0  0  0
   -1.7203    1.7154    2.4103 O   0  0  0  0  0  0  0  0  0  0  0  0
   -0.0113   -2.6869    0.5854 H   0  0  0  0  0  0  0  0  0  0  0  0
    1.4114   -0.6795    1.4936 H   0  0  0  0  0  0  0  0  0  0  0  0
    0.2469    0.0991    3.6785 H   0  0  0  0  0  0  0  0  0  0  0  0
   -1.2346   -0.6186    3.0588 H   0  0  0  0  0  0  0  0  0  0  0  0
    0.2728   -2.3812    4.0147 N   0  0  0  0  0  0  0  0  0  0  0  0
    0.5388   -3.3662    5.0371 C   0  0  2  0  0  0  0  0  0  0  0  0
   -0.7761   -3.6849    5.7364 C   0  0  0  0  0  0  0  0  0  0  0  0
   -1.7382   -2.9197    5.7372 O   0  0  0  0  0  0  0  0  0  0  0  0
    1.5756   -2.8661    6.0309 C   0  0  0  0  0  0  0  0  0  0  0  0
   -0.4563   -1.6973    4.1952 H   0  0  0  0  0  0  0  0  0  0  0  0
    0.9073   -4.2618    4.5252 H   0  0  0  0  0  0  0  0  0  0  0  0
    1.2240   -1.9691    6.5536 H   0  0  0  0  0  0  0  0  0  0  0  0
    1.7971   -3.6248    6.7888 H   0  0  0  0  0  0  0  0  0  0  0  0
    2.5110   -2.6091    5.5221 H   0  0  0  0  0  0  0  0  0  0  0  0
   -0.7341   -4.9055    6.3957 N   0  0  0  0  0  0  0  0  0  0  0  0
   -1.8542   -5.4263    7.1442 C   0  0  0  0  0  0  0  0  0  0  0  0
    0.0987   -5.4829    6.3256 H   0  0  0  0  0  0  0  0  0  0  0  0
   -1.7644   -5.1235    8.1978 H   0  0  0  0  0  0  0  0  0  0  0  0
   -2.7908   -5.0280    6.7269 H   0  0  0  0  0  0  0  0  0  0  0  0
   -1.8607   -6.5242    7.0776 H   0  0  0  0  0  0  0  0  0  0  0  0
  1  3  1  0  0  0  0
  1  7  1  0  0  0  0
  1  2  2  0  0  0  0
 30 31  1  0  0  0  0
 31 39  1  0  0  0  0
 31 32  2  0  0  0  0
  8  9  1  0  0  0  0
  9 17  1  0  0  0  0
  9 10  2  0  0  0  0
 18 19  1  0  0  0  0
 19 29  1  0  0  0  0
 19 20  2  0  0  0  0
 21 22  1  0  0  0  0
 22 23  1  0  0  0  0
 22 24  2  0  0  0  0
 30 33  1  0  0  0  0
  8 11  1  0  0  0  0
 39 40  1  0  0  0  0
 18 21  1  0  0  0  0
 29 30  1  0  0  0  0
  7  8  1  0  0  0  0
 17 18  1  0  0  0  0
  3  4  1  0  0  0  0
  3  5  1  0  0  0  0
  3  6  1  0  0  0  0
 33 36  1  0  0  0  0
 33 37  1  0  0  0  0
 33 38  1  0  0  0  0
 11 14  1  0  0  0  0
 11 15  1  0  0  0  0
 11 16  1  0  0  0  0
 40 42  1  0  0  0  0
 40 43  1  0  0  0  0
 40 44  1  0  0  0  0
 21 27  1  0  0  0  0
 21 28  1  0  0  0  0
 30 35  1  0  0  0  0
  8 13  1  0  0  0  0
 18 26  1  0  0  0  0
 39 41  1  0  0  0  0
  7 12  1  0  0  0  0
 29 34  1  0  0  0  0
 17 25  1  0  0  0  0
M  CHG  1  23  -1
M  END
$$$$

  -OEChem-05262214473D

 44 43  0     1  0  0  0  0  0999 V2000
   -4.0256   -1.8030   -2.1581 C   0  0  0  0  0  0  0  0  0  0  0  0
   -3.7513   -2.6782   -2.9709 O   0  0  0  0  0  0  0  0  0  0  0  0
   -5.3491   -1.1169   -2.2339 C   0  0  0  0  0  0  0  0  0  0  0  0
   -5.3223   -0.2211   -2.8750 H   0  0  0  0  0  0  0  0  0  0  0  0
   -6.1322   -1.7605   -2.6658 H   0  0  0  0  0  0  0  0  0  0  0  0
   -5.7568   -0.7715   -1.2704 H   0  0  0  0  0  0  0  0  0  0  0  0
   -3.2124   -1.3578   -1.1289 N   0  0  0  0  0  0  0  0  0  0  0  0
   -1.8971   -1.8843   -0.8752 C   0  0  2  0  0  0  0  0  0  0  0  0
   -1.2676   -1.0599    0.2399 C   0  0  0  0  0  0  0  0  0  0  0  0
   -1.6270    0.0833    0.5138 O   0  0  0  0  0  0  0  0  0  0  0  0
   -1.0364   -1.8506   -2.1285 C   0  0  0  0  0  0  0  0  0  0  0  0
   -3.5631   -0.6202   -0.5206 H   0  0  0  0  0  0  0  0  0  0  0  0
   -2.0301   -2.9174   -0.5360 H   0  0  0  0  0  0  0  0  0  0  0  0
   -0.8921   -0.8236   -2.4833 H   0  0  0  0  0  0  0  0  0  0  0  0
   -0.0457   -2.2777   -1.9410 H   0  0  0  0  0  0  0  0  0  0  0  0
   -1.5052   -2.4193   -2.9387 H   0  0  0  0  0  0  0  0  0  0  0  0
   -0.2267   -1.7335    0.8672 N   0  0  0  0  0  0  0  0  0  0  0  0
    0.5363   -1.1590    1.9465 C   0  0  2  0  0  0  0  0  0  0  0  0
    0.9981   -2.3095    2.8335 C   0  0  0  0  0  0  0  0  0  0  0  0
    2.0797   -2.8755    2.6884 O   0  0  0  0  0  0  0  0  0  0  0  0
   -0.2866   -0.1570    2.7529 C   0  0  0  0  0  0  0  0  0  0  0  0
   -0.6530    1.1526    2.0428 C   0  0  0  0  0  0  0  0  0  0  0  0
    0.1836    1.5158    1.1659 O   0  5  0  0  0  0  0  0  0  0  0  0
   -1.7203    1.7154    2.4103 O   0  0  0  0  0  0  0  0  0  0  0  0
   -0.0113   -2.6869    0.5854 H   0  0  0  0  0  0  0  0  0  0  0  0
    1.4114   -0.6795    1.4936 H   0  0  0  0  0  0  0  0  0  0  0  0
    0.2469    0.0991    3.6785 H   0  0  0  0  0  0  0  0  0  0  0  0
   -1.2346   -0.6186    3.0588 H   0  0  0  0  0  0  0  0  0  0  0  0
    0.0830   -2.5940    3.8375 N   0  0  0  0  0  0  0  0  0  0  0  0
    0.3031   -3.6220    4.8280 C   0  0  2  0  0  0  0  0  0  0  0  0
   -1.0530   -4.1892    5.2265 C   0  0  0  0  0  0  0  0  0  0  0  0
   -2.1066   -3.5727    5.0821 O   0  0  0  0  0  0  0  0  0  0  0  0
    1.0405   -3.0740    6.0398 C   0  0  0  0  0  0  0  0  0  0  0  0
   -0.7660   -2.0412    3.9105 H   0  0  0  0  0  0  0  0  0  0  0  0
    0.8991   -4.4041    4.3450 H   0  0  0  0  0  0  0  0  0  0  0  0
    0.4588   -2.2892    6.5369 H   0  0  0  0  0  0  0  0  0  0  0  0
    1.2318   -3.8607    6.7771 H   0  0  0  0  0  0  0  0  0  0  0  0
    2.0026   -2.6397    5.7471 H   0  0  0  0  0  0  0  0  0  0  0  0
   -0.9437   -5.4474    5.8020 N   0  0  0  0  0  0  0  0  0  0  0  0
   -2.0884   -6.1904    6.2750 C   0  0  0  0  0  0  0  0  0  0  0  0
   -0.0320   -5.8908    5.8645 H   0  0  0  0  0  0  0  0  0  0  0  0
   -2.2488   -5.9776    7.3422 H   0  0  0  0  0  0  0  0  0  0  0  0
   -2.9801   -5.8928    5.7038 H   0  0  0  0  0  0  0  0  0  0  0  0
   -1.9082   -7.2670    6.1390 H   0  0  0  0  0  0  0  0  0  0  0  0
  1  3  1  0  0  0  0
  1  7  1  0  0  0  0
  1  2  2  0  0  0  0
 30 31  1  0  0  0  0
 31 39  1  0  0  0  0
 31 32  2  0  0  0  0
  8  9  1  0  0  0  0
  9 17  1  0  0  0  0
  9 10  2  0  0  0  0
 18 19  1  0  0  0  0
 19 29  1  0  0  0  0
 19 20  2  0  0  0  0
 21 22  1  0  0  0  0
 22 23  1  0  0  0  0
 22 24  2  0  0  0  0
 30 33  1  0  0  0  0
  8 11  1  0  0  0  0
 39 40  1  0  0  0  0
 18 21  1  0  0  0  0
 29 30  1  0  0  0  0
  7  8  1  0  0  0  0
 17 18  1  0  0  0  0
  3  4  1  0  0  0  0
  3  5  1  0  0  0  0
  3  6  1  0  0  0  0
 33 36  1  0  0  0  0
 33 37  1  0  0  0  0
 33 38  1  0  0  0  0
 11 14  1  0  0  0  0
 11 15  1  0  0  0  0
 11 16  1  0  0  0  0
 40 42  1  0  0  0  0
 40 43  1  0  0  0  0
 40 44  1  0  0  0  0
 21 27  1  0  0  0  0
 21 28  1  0  0  0  0
 30 35  1  0  0  0  0
  8 13  1  0  0  0  0
 18 26  1  0  0  0  0
 39 41  1  0  0  0  0
  7 12  1  0  0  0  0
 29 34  1  0  0  0  0
 17 25  1  0  0  0  0
M  CHG  1  23  -1
M  END
$$$$

  -OEChem-05262214473D

 44 43  0     1  0  0  0  0  0999 V2000
   -4.0256   -1.8030   -2.1581 C   0  0  0  0  0  0  0  0  0  0  0  0
   -3.7513   -2.6782   -2.9709 O   0  0  0  0  0  0  0  0  0  0  0  0
   -5.3491   -1.1169   -2.2339 C   0  0  0  0  0  0  0  0  0  0  0  0
   -5.3223   -0.2211   -2.8750 H   0  0  0  0  0  0  0  0  0  0  0  0
   -6.1322   -1.7605   -2.6658 H   0  0  0  0  0  0  0  0  0  0  0  0
   -5.7568   -0.7715   -1.2704 H   0  0  0  0  0  0  0  0  0  0  0  0
   -3.2124   -1.3578   -1.1289 N   0  0  0  0  0  0  0  0  0  0  0  0
   -1.8971   -1.8843   -0.8752 C   0  0  2  0  0  0  0  0  0  0  0  0
   -1.2676   -1.0599    0.2399 C   0  0  0  0  0  0  0  0  0  0  0  0
   -1.6270    0.0833    0.5138 O   0  0  0  0  0  0  0  0  0  0  0  0
   -1.0364   -1.8506   -2.1285 C   0  0  0  0  0  0  0  0  0  0  0  0
   -3.5631   -0.6202   -0.5206 H   0  0  0  0  0  0  0  0  0  0  0  0
   -2.0301   -2.9174   -0.5360 H   0  0  0  0  0  0  0  0  0  0  0  0
   -0.8921   -0.8236   -2.4833 H   0  0  0  0  0  0  0  0  0  0  0  0
   -0.0457   -2.2777   -1.9410 H   0  0  0  0  0  0  0  0  0  0  0  0
   -1.5052   -2.4193   -2.9387 H   0  0  0  0  0  0  0  0  0  0  0  0
   -0.2267   -1.7335    0.8672 N   0  0  0  0  0  0  0  0  0  0  0  0
    0.5363   -1.1590    1.9465 C   0  0  2  0  0  0  0  0  0  0  0  0
    0.9981   -2.3095    2.8335 C   0  0  0  0  0  0  0  0  0  0  0  0
    2.1633   -2.6992    2.8735 O   0  0  0  0  0  0  0  0  0  0  0  0
   -0.2866   -0.1570    2.7529 C   0  0  0  0  0  0  0  0  0  0  0  0
   -0.6530    1.1526    2.0428 C   0  0  0  0  0  0  0  0  0  0  0  0
    0.1836    1.5158    1.1659 O   0  5  0  0  0  0  0  0  0  0  0  0
   -1.7203    1.7154    2.4103 O   0  0  0  0  0  0  0  0  0  0  0  0
   -0.0113   -2.6869    0.5854 H   0  0  0  0  0  0  0  0  0  0  0  0
    1.4114   -0.6795    1.4936 H   0  0  0  0  0  0  0  0  0  0  0  0
    0.2469    0.0991    3.6785 H   0  0  0  0  0  0  0  0  0  0  0  0
   -1.2346   -0.6186    3.0588 H   0  0  0  0  0  0  0  0  0  0  0  0
   -0.0337   -2.8142    3.6126 N   0  0  0  0  0  0  0  0  0  0  0  0
    0.1549   -3.8883    4.5598 C   0  0  2  0  0  0  0  0  0  0  0  0
   -1.1448   -4.6780    4.6403 C   0  0  0  0  0  0  0  0  0  0  0  0
   -2.2362   -4.2075    4.3262 O   0  0  0  0  0  0  0  0  0  0  0  0
    0.5532   -3.3561    5.9276 C   0  0  0  0  0  0  0  0  0  0  0  0
   -0.9579   -2.3976    3.5481 H   0  0  0  0  0  0  0  0  0  0  0  0
    0.9478   -4.5286    4.1581 H   0  0  0  0  0  0  0  0  0  0  0  0
   -0.2289   -2.7123    6.3461 H   0  0  0  0  0  0  0  0  0  0  0  0
    0.7236   -4.1728    6.6369 H   0  0  0  0  0  0  0  0  0  0  0  0
    1.4721   -2.7635    5.8628 H   0  0  0  0  0  0  0  0  0  0  0  0
   -0.9486   -5.9559    5.1451 N   0  0  0  0  0  0  0  0  0  0  0  0
   -2.0297   -6.8956    5.3298 C   0  0  0  0  0  0  0  0  0  0  0  0
   -0.0067   -6.2684    5.3615 H   0  0  0  0  0  0  0  0  0  0  0  0
   -2.4210   -6.8085    6.3542 H   0  0  0  0  0  0  0  0  0  0  0  0
   -2.8328   -6.6764    4.6108 H   0  0  0  0  0  0  0  0  0  0  0  0
   -1.6588   -7.9180    5.1648 H   0  0  0  0  0  0  0  0  0  0  0  0
  1  3  1  0  0  0  0
  1  7  1  0  0  0  0
  1  2  2  0  0  0  0
 30 31  1  0  0  0  0
 31 39  1  0  0  0  0
 31 32  2  0  0  0  0
  8  9  1  0  0  0  0
  9 17  1  0  0  0  0
  9 10  2  0  0  0  0
 18 19  1  0  0  0  0
 19 29  1  0  0  0  0
 19 20  2  0  0  0  0
 21 22  1  0  0  0  0
 22 23  1  0  0  0  0
 22 24  2  0  0  0  0
 30 33  1  0  0  0  0
  8 11  1  0  0  0  0
 39 40  1  0  0  0  0
 18 21  1  0  0  0  0
 29 30  1  0  0  0  0
  7  8  1  0  0  0  0
 17 18  1  0  0  0  0
  3  4  1  0  0  0  0
  3  5  1  0  0  0  0
  3  6  1  0  0  0  0
 33 36  1  0  0  0  0
 33 37  1  0  0  0  0
 33 38  1  0  0  0  0
 11 14  1  0  0  0  0
 11 15  1  0  0  0  0
 11 16  1  0  0  0  0
 40 42  1  0  0  0  0
 40 43  1  0  0  0  0
 40 44  1  0  0  0  0
 21 27  1  0  0  0  0
 21 28  1  0  0  0  0
 30 35  1  0  0  0  0
  8 13  1  0  0  0  0
 18 26  1  0  0  0  0
 39 41  1  0  0  0  0
  7 12  1  0  0  0  0
 29 34  1  0  0  0  0
 17 25  1  0  0  0  0
M  CHG  1  23  -1
M  END
$$$$

  -OEChem-05262214473D

 44 43  0     1  0  0  0  0  0999 V2000
   -4.0256   -1.8030   -2.1581 C   0  0  0  0  0  0  0  0  0  0  0  0
   -3.7513   -2.6782   -2.9709 O   0  0  0  0  0  0  0  0  0  0  0  0
   -5.3491   -1.1169   -2.2339 C   0  0  0  0  0  0  0  0  0  0  0  0
   -5.3223   -0.2211   -2.8750 H   0  0  0  0  0  0  0  0  0  0  0  0
   -6.1322   -1.7605   -2.6658 H   0  0  0  0  0  0  0  0  0  0  0  0
   -5.7568   -0.7715   -1.2704 H   0  0  0  0  0  0  0  0  0  0  0  0
   -3.2124   -1.3578   -1.1289 N   0  0  0  0  0  0  0  0  0  0  0  0
   -1.8971   -1.8843   -0.8752 C   0  0  2  0  0  0  0  0  0  0  0  0
   -1.2676   -1.0599    0.2399 C   0  0  0  0  0  0  0  0  0  0  0  0
   -1.6270    0.0833    0.5138 O   0  0  0  0  0  0  0  0  0  0  0  0
   -1.0364   -1.8506   -2.1285 C   0  0  0  0  0  0  0  0  0  0  0  0
   -3.5631   -0.6202   -0.5206 H   0  0  0  0  0  0  0  0  0  0  0  0
   -2.0301   -2.9174   -0.5360 H   0  0  0  0  0  0  0  0  0  0  0  0
   -0.8921   -0.8236   -2.4833 H   0  0  0  0  0  0  0  0  0  0  0  0
   -0.0457   -2.2777   -1.9410 H   0  0  0  0  0  0  0  0  0  0  0  0
   -1.5052   -2.4193   -2.9387 H   0  0  0  0  0  0  0  0  0  0  0  0
   -0.2267   -1.7335    0.8672 N   0  0  0  0  0  0  0  0  0  0  0  0
    0.5363   -1.1590    1.9465 C   0  0  2  0  0  0  0  0  0  0  0  0
    0.9981   -2.3095    2.8335 C   0  0  0  0  0  0  0  0  0  0  0  0
    2.1814   -2.5308    3.0825 O   0  0  0  0  0  0  0  0  0  0  0  0
   -0.2866   -0.1570    2.7529 C   0  0  0  0  0  0  0  0  0  0  0  0
   -0.6530    1.1526    2.0428 C   0  0  0  0  0  0  0  0  0  0  0  0
    0.1836    1.5158    1.1659 O   0  5  0  0  0  0  0  0  0  0  0  0
   -1.7203    1.7154    2.4103 O   0  0  0  0  0  0  0  0  0  0  0  0
   -0.0113   -2.6869    0.5854 H   0  0  0  0  0  0  0  0  0  0  0  0
    1.4114   -0.6795    1.4936 H   0  0  0  0  0  0  0  0  0  0  0  0
    0.2469    0.0991    3.6785 H   0  0  0  0  0  0  0  0  0  0  0  0
   -1.2346   -0.6186    3.0588 H   0  0  0  0  0  0  0  0  0  0  0  0
   -0.0693   -3.0269    3.3553 N   0  0  0  0  0  0  0  0  0  0  0  0
    0.1042   -4.1467    4.2510 C   0  0  2  0  0  0  0  0  0  0  0  0
   -1.0454   -5.1180    4.0179 C   0  0  0  0  0  0  0  0  0  0  0  0
   -2.1180   -4.7809    3.5210 O   0  0  0  0  0  0  0  0  0  0  0  0
    0.1470   -3.6932    5.7019 C   0  0  0  0  0  0  0  0  0  0  0  0
   -1.0187   -2.7424    3.1326 H   0  0  0  0  0  0  0  0  0  0  0  0
    1.0500   -4.6269    3.9773 H   0  0  0  0  0  0  0  0  0  0  0  0
   -0.7922   -3.2096    5.9944 H   0  0  0  0  0  0  0  0  0  0  0  0
    0.3072   -4.5398    6.3777 H   0  0  0  0  0  0  0  0  0  0  0  0
    0.9558   -2.9720    5.8612 H   0  0  0  0  0  0  0  0  0  0  0  0
   -0.7485   -6.3962    4.4697 N   0  0  0  0  0  0  0  0  0  0  0  0
   -1.6822   -7.4939    4.3729 C   0  0  0  0  0  0  0  0  0  0  0  0
    0.1728   -6.5899    4.8511 H   0  0  0  0  0  0  0  0  0  0  0  0
   -2.2691   -7.5595    5.3010 H   0  0  0  0  0  0  0  0  0  0  0  0
   -2.3590   -7.3254    3.5224 H   0  0  0  0  0  0  0  0  0  0  0  0
   -1.1296   -8.4329    4.2215 H   0  0  0  0  0  0  0  0  0  0  0  0
  1  3  1  0  0  0  0
  1  7  1  0  0  0  0
  1  2  2  0  0  0  0
 30 31  1  0  0  0  0
 31 39  1  0  0  0  0
 31 32  2  0  0  0  0
  8  9  1  0  0  0  0
  9 17  1  0  0  0  0
  9 10  2  0  0  0  0
 18 19  1  0  0  0  0
 19 29  1  0  0  0  0
 19 20  2  0  0  0  0
 21 22  1  0  0  0  0
 22 23  1  0  0  0  0
 22 24  2  0  0  0  0
 30 33  1  0  0  0  0
  8 11  1  0  0  0  0
 39 40  1  0  0  0  0
 18 21  1  0  0  0  0
 29 30  1  0  0  0  0
  7  8  1  0  0  0  0
 17 18  1  0  0  0  0
  3  4  1  0  0  0  0
  3  5  1  0  0  0  0
  3  6  1  0  0  0  0
 33 36  1  0  0  0  0
 33 37  1  0  0  0  0
 33 38  1  0  0  0  0
 11 14  1  0  0  0  0
 11 15  1  0  0  0  0
 11 16  1  0  0  0  0
 40 42  1  0  0  0  0
 40 43  1  0  0  0  0
 40 44  1  0  0  0  0
 21 27  1  0  0  0  0
 21 28  1  0  0  0  0
 30 35  1  0  0  0  0
  8 13  1  0  0  0  0
 18 26  1  0  0  0  0
 39 41  1  0  0  0  0
  7 12  1  0  0  0  0
 29 34  1  0  0  0  0
 17 25  1  0  0  0  0
M  CHG  1  23  -1
M  END
$$$$

  -OEChem-05262214473D

 44 43  0     1  0  0  0  0  0999 V2000
   -4.0256   -1.8030   -2.1581 C   0  0  0  0  0  0  0  0  0  0  0  0
   -3.7513   -2.6782   -2.9709 O   0  0  0  0  0  0  0  0  0  0  0  0
   -5.3491   -1.1169   -2.2339 C   0  0  0  0  0  0  0  0  0  0  0  0
   -5.3223   -0.2211   -2.8750 H   0  0  0  0  0  0  0  0  0  0  0  0
   -6.1322   -1.7605   -2.6658 H   0  0  0  0  0  0  0  0  0  0  0  0
   -5.7568   -0.7715   -1.2704 H   0  0  0  0  0  0  0  0  0  0  0  0
   -3.2124   -1.3578   -1.1289 N   0  0  0  0  0  0  0  0  0  0  0  0
   -1.8971   -1.8843   -0.8752 C   0  0  2  0  0  0  0  0  0  0  0  0
   -1.2676   -1.0599    0.2399 C   0  0  0  0  0  0  0  0  0  0  0  0
   -1.6270    0.0833    0.5138 O   0  0  0  0  0  0  0  0  0  0  0  0
   -1.0364   -1.8506   -2.1285 C   0  0  0  0  0  0  0  0  0  0  0  0
   -3.5631   -0.6202   -0.5206 H   0  0  0  0  0  0  0  0  0  0  0  0
   -2.0301   -2.9174   -0.5360 H   0  0  0  0  0  0  0  0  0  0  0  0
   -0.8921   -0.8236   -2.4833 H   0  0  0  0  0  0  0  0  0  0  0  0
   -0.0457   -2.2777   -1.9410 H   0  0  0  0  0  0  0  0  0  0  0  0
   -1.5052   -2.4193   -2.9387 H   0  0  0  0  0  0  0  0  0  0  0  0
   -0.2267   -1.7335    0.8672 N   0  0  0  0  0  0  0  0  0  0  0  0
    0.5363   -1.1590    1.9465 C   0  0  2  0  0  0  0  0  0  0  0  0
    0.9981   -2.3095    2.8335 C   0  0  0  0  0  0  0  0  0  0  0  0
    2.1327   -2.3818    3.3011 O   0  0  0  0  0  0  0  0  0  0  0  0
   -0.2866   -0.1570    2.7529 C   0  0  0  0  0  0  0  0  0  0  0  0
   -0.6530    1.1526    2.0428 C   0  0  0  0  0  0  0  0  0  0  0  0
    0.1836    1.5158    1.1659 O   0  5  0  0  0  0  0  0  0  0  0  0
   -1.7203    1.7154    2.4103 O   0  0  0  0  0  0  0  0  0  0  0  0
   -0.0113   -2.6869    0.5854 H   0  0  0  0  0  0  0  0  0  0  0  0
    1.4114   -0.6795    1.4936 H   0  0  0  0  0  0  0  0  0  0  0  0
    0.2469    0.0991    3.6785 H   0  0  0  0  0  0  0  0  0  0  0  0
   -1.2346   -0.6186    3.0588 H   0  0  0  0  0  0  0  0  0  0  0  0
   -0.0214   -3.2176    3.0831 N   0  0  0  0  0  0  0  0  0  0  0  0
    0.1545   -4.3798    3.9225 C   0  0  2  0  0  0  0  0  0  0  0  0
   -0.7616   -5.4793    3.4016 C   0  0  0  0  0  0  0  0  0  0  0  0
   -1.7603   -5.2539    2.7212 O   0  0  0  0  0  0  0  0  0  0  0  0
   -0.1506   -4.0623    5.3781 C   0  0  0  0  0  0  0  0  0  0  0  0
   -0.9443   -3.0520    2.6923 H   0  0  0  0  0  0  0  0  0  0  0  0
    1.1989   -4.6923    3.8150 H   0  0  0  0  0  0  0  0  0  0  0  0
   -1.1927   -3.7472    5.5056 H   0  0  0  0  0  0  0  0  0  0  0  0
    0.0108   -4.9367    6.0172 H   0  0  0  0  0  0  0  0  0  0  0  0
    0.4888   -3.2510    5.7424 H   0  0  0  0  0  0  0  0  0  0  0  0
   -0.3569   -6.7385    3.8219 N   0  0  0  0  0  0  0  0  0  0  0  0
   -1.0695   -7.9444    3.4697 C   0  0  0  0  0  0  0  0  0  0  0  0
    0.4944   -6.8334    4.3679 H   0  0  0  0  0  0  0  0  0  0  0  0
   -1.8036   -8.1795    4.2545 H   0  0  0  0  0  0  0  0  0  0  0  0
   -1.5911   -7.7956    2.5127 H   0  0  0  0  0  0  0  0  0  0  0  0
   -0.3566   -8.7765    3.3733 H   0  0  0  0  0  0  0  0  0  0  0  0
  1  3  1  0  0  0  0
  1  7  1  0  0  0  0
  1  2  2  0  0  0  0
 30 31  1  0  0  0  0
 31 39  1  0  0  0  0
 31 32  2  0  0  0  0
  8  9  1  0  0  0  0
  9 17  1  0  0  0  0
  9 10  2  0  0  0  0
 18 19  1  0  0  0  0
 19 29  1  0  0  0  0
 19 20  2  0  0  0  0
 21 22  1  0  0  0  0
 22 23  1  0  0  0  0
 22 24  2  0  0  0  0
 30 33  1  0  0  0  0
  8 11  1  0  0  0  0
 39 40  1  0  0  0  0
 18 21  1  0  0  0  0
 29 30  1  0  0  0  0
  7  8  1  0  0  0  0
 17 18  1  0  0  0  0
  3  4  1  0  0  0  0
  3  5  1  0  0  0  0
  3  6  1  0  0  0  0
 33 36  1  0  0  0  0
 33 37  1  0  0  0  0
 33 38  1  0  0  0  0
 11 14  1  0  0  0  0
 11 15  1  0  0  0  0
 11 16  1  0  0  0  0
 40 42  1  0  0  0  0
 40 43  1  0  0  0  0
 40 44  1  0  0  0  0
 21 27  1  0  0  0  0
 21 28  1  0  0  0  0
 30 35  1  0  0  0  0
  8 13  1  0  0  0  0
 18 26  1  0  0  0  0
 39 41  1  0  0  0  0
  7 12  1  0  0  0  0
 29 34  1  0  0  0  0
 17 25  1  0  0  0  0
M  CHG  1  23  -1
M  END
$$$$

  -OEChem-05262214473D

 44 43  0     1  0  0  0  0  0999 V2000
   -4.0256   -1.8030   -2.1581 C   0  0  0  0  0  0  0  0  0  0  0  0
   -3.7513   -2.6782   -2.9709 O   0  0  0  0  0  0  0  0  0  0  0  0
   -5.3491   -1.1169   -2.2339 C   0  0  0  0  0  0  0  0  0  0  0  0
   -5.3223   -0.2211   -2.8750 H   0  0  0  0  0  0  0  0  0  0  0  0
   -6.1322   -1.7605   -2.6658 H   0  0  0  0  0  0  0  0  0  0  0  0
   -5.7568   -0.7715   -1.2704 H   0  0  0  0  0  0  0  0  0  0  0  0
   -3.2124   -1.3578   -1.1289 N   0  0  0  0  0  0  0  0  0  0  0  0
   -1.8971   -1.8843   -0.8752 C   0  0  2  0  0  0  0  0  0  0  0  0
   -1.2676   -1.0599    0.2399 C   0  0  0  0  0  0  0  0  0  0  0  0
   -1.6270    0.0833    0.5138 O   0  0  0  0  0  0  0  0  0  0  0  0
   -1.0364   -1.8506   -2.1285 C   0  0  0  0  0  0  0  0  0  0  0  0
   -3.5631   -0.6202   -0.5206 H   0  0  0  0  0  0  0  0  0  0  0  0
   -2.0301   -2.9174   -0.5360 H   0  0  0  0  0  0  0  0  0  0  0  0
   -0.8921   -0.8236   -2.4833 H   0  0  0  0  0  0  0  0  0  0  0  0
   -0.0457   -2.2777   -1.9410 H   0  0  0  0  0  0  0  0  0  0  0  0
   -1.5052   -2.4193   -2.9387 H   0  0  0  0  0  0  0  0  0  0  0  0
   -0.2267   -1.7335    0.8672 N   0  0  0  0  0  0  0  0  0  0  0  0
    0.5363   -1.1590    1.9465 C   0  0  2  0  0  0  0  0  0  0  0  0
    0.9981   -2.3095    2.8335 C   0  0  0  0  0  0  0  0  0  0  0  0
    2.0205   -2.2624    3.5145 O   0  0  0  0  0  0  0  0  0  0  0  0
   -0.2866   -0.1570    2.7529 C   0  0  0  0  0  0  0  0  0  0  0  0
   -0.6530    1.1526    2.0428 C   0  0  0  0  0  0  0  0  0  0  0  0
    0.1836    1.5158    1.1659 O   0  5  0  0  0  0  0  0  0  0  0  0
   -1.7203    1.7154    2.4103 O   0  0  0  0  0  0  0  0  0  0  0  0
   -0.0113   -2.6869    0.5854 H   0  0  0  0  0  0  0  0  0  0  0  0
    1.4114   -0.6795    1.4936 H   0  0  0  0  0  0  0  0  0  0  0  0
    0.2469    0.0991    3.6785 H   0  0  0  0  0  0  0  0  0  0  0  0
   -1.2346   -0.6186    3.0588 H   0  0  0  0  0  0  0  0  0  0  0  0
    0.1067   -3.3732    2.8146 N   0  0  0  0  0  0  0  0  0  0  0  0
    0.3024   -4.5716    3.5968 C   0  0  2  0  0  0  0  0  0  0  0  0
   -0.3126   -5.7371    2.8334 C   0  0  0  0  0  0  0  0  0  0  0  0
   -1.1873   -5.5942    1.9816 O   0  0  0  0  0  0  0  0  0  0  0  0
   -0.3192   -4.4382    4.9783 C   0  0  0  0  0  0  0  0  0  0  0  0
   -0.7399   -3.3053    2.2573 H   0  0  0  0  0  0  0  0  0  0  0  0
    1.3843   -4.7204    3.6821 H   0  0  0  0  0  0  0  0  0  0  0  0
   -1.4031   -4.2885    4.9130 H   0  0  0  0  0  0  0  0  0  0  0  0
   -0.1453   -5.3364    5.5800 H   0  0  0  0  0  0  0  0  0  0  0  0
    0.1030   -3.5815    5.5146 H   0  0  0  0  0  0  0  0  0  0  0  0
    0.1995   -6.9594    3.2458 N   0  0  0  0  0  0  0  0  0  0  0  0
   -0.2334   -8.2164    2.6816 C   0  0  0  0  0  0  0  0  0  0  0  0
    0.9360   -6.9823    3.9449 H   0  0  0  0  0  0  0  0  0  0  0  0
   -1.0561   -8.6263    3.2859 H   0  0  0  0  0  0  0  0  0  0  0  0
   -0.5812   -8.0550    1.6505 H   0  0  0  0  0  0  0  0  0  0  0  0
    0.6074   -8.9256    2.6781 H   0  0  0  0  0  0  0  0  0  0  0  0
  1  3  1  0  0  0  0
  1  7  1  0  0  0  0
  1  2  2  0  0  0  0
 30 31  1  0  0  0  0
 31 39  1  0  0  0  0
 31 32  2  0  0  0  0
  8  9  1  0  0  0  0
  9 17  1  0  0  0  0
  9 10  2  0  0  0  0
 18 19  1  0  0  0  0
 19 29  1  0  0  0  0
 19 20  2  0  0  0  0
 21 22  1  0  0  0  0
 22 23  1  0  0  0  0
 22 24  2  0  0  0  0
 30 33  1  0  0  0  0
  8 11  1  0  0  0  0
 39 40  1  0  0  0  0
 18 21  1  0  0  0  0
 29 30  1  0  0  0  0
  7  8  1  0  0  0  0
 17 18  1  0  0  0  0
  3  4  1  0  0  0  0
  3  5  1  0  0  0  0
  3  6  1  0  0  0  0
 33 36  1  0  0  0  0
 33 37  1  0  0  0  0
 33 38  1  0  0  0  0
 11 14  1  0  0  0  0
 11 15  1  0  0  0  0
 11 16  1  0  0  0  0
 40 42  1  0  0  0  0
 40 43  1  0  0  0  0
 40 44  1  0  0  0  0
 21 27  1  0  0  0  0
 21 28  1  0  0  0  0
 30 35  1  0  0  0  0
  8 13  1  0  0  0  0
 18 26  1  0  0  0  0
 39 41  1  0  0  0  0
  7 12  1  0  0  0  0
 29 34  1  0  0  0  0
 17 25  1  0  0  0  0
M  CHG  1  23  -1
M  END
$$$$

  -OEChem-05262214473D

 44 43  0     1  0  0  0  0  0999 V2000
   -4.0256   -1.8030   -2.1581 C   0  0  0  0  0  0  0  0  0  0  0  0
   -3.7513   -2.6782   -2.9709 O   0  0  0  0  0  0  0  0  0  0  0  0
   -5.3491   -1.1169   -2.2339 C   0  0  0  0  0  0  0  0  0  0  0  0
   -5.3223   -0.2211   -2.8750 H   0  0  0  0  0  0  0  0  0  0  0  0
   -6.1322   -1.7605   -2.6658 H   0  0  0  0  0  0  0  0  0  0  0  0
   -5.7568   -0.7715   -1.2704 H   0  0  0  0  0  0  0  0  0  0  0  0
   -3.2124   -1.3578   -1.1289 N   0  0  0  0  0  0  0  0  0  0  0  0
   -1.8971   -1.8843   -0.8752 C   0  0  2  0  0  0  0  0  0  0  0  0
   -1.2676   -1.0599    0.2399 C   0  0  0  0  0  0  0  0  0  0  0  0
   -1.6270    0.0833    0.5138 O   0  0  0  0  0  0  0  0  0  0  0  0
   -1.0364   -1.8506   -2.1285 C   0  0  0  0  0  0  0  0  0  0  0  0
   -3.5631   -0.6202   -0.5206 H   0  0  0  0  0  0  0  0  0  0  0  0
   -2.0301   -2.9174   -0.5360 H   0  0  0  0  0  0  0  0  0  0  0  0
   -0.8921   -0.8236   -2.4833 H   0  0  0  0  0  0  0  0  0  0  0  0
   -0.0457   -2.2777   -1.9410 H   0  0  0  0  0  0  0  0  0  0  0  0
   -1.5052   -2.4193   -2.9387 H   0  0  0  0  0  0  0  0  0  0  0  0
   -0.2267   -1.7335    0.8672 N   0  0  0  0  0  0  0  0  0  0  0  0
    0.5363   -1.1590    1.9465 C   0  0  2  0  0  0  0  0  0  0  0  0
    0.9981   -2.3095    2.8335 C   0  0  0  0  0  0  0  0  0  0  0  0
    1.8525   -2.1806    3.7080 O   0  0  0  0  0  0  0  0  0  0  0  0
   -0.2866   -0.1570    2.7529 C   0  0  0  0  0  0  0  0  0  0  0  0
   -0.6530    1.1526    2.0428 C   0  0  0  0  0  0  0  0  0  0  0  0
    0.1836    1.5158    1.1659 O   0  5  0  0  0  0  0  0  0  0  0  0
   -1.7203    1.7154    2.4103 O   0  0  0  0  0  0  0  0  0  0  0  0
   -0.0113   -2.6869    0.5854 H   0  0  0  0  0  0  0  0  0  0  0  0
    1.4114   -0.6795    1.4936 H   0  0  0  0  0  0  0  0  0  0  0  0
    0.2469    0.0991    3.6785 H   0  0  0  0  0  0  0  0  0  0  0  0
   -1.2346   -0.6186    3.0588 H   0  0  0  0  0  0  0  0  0  0  0  0
    0.3063   -3.4831    2.5680 N   0  0  0  0  0  0  0  0  0  0  0  0
    0.5377   -4.7090    3.2960 C   0  0  2  0  0  0  0  0  0  0  0  0
    0.2709   -5.8740    2.3520 C   0  0  0  0  0  0  0  0  0  0  0  0
   -0.4381   -5.7786    1.3524 O   0  0  0  0  0  0  0  0  0  0  0  0
   -0.3473   -4.7954    4.5297 C   0  0  0  0  0  0  0  0  0  0  0  0
   -0.4192   -3.4851    1.8572 H   0  0  0  0  0  0  0  0  0  0  0  0
    1.5936   -4.7091    3.5878 H   0  0  0  0  0  0  0  0  0  0  0  0
   -1.4090   -4.7966    4.2572 H   0  0  0  0  0  0  0  0  0  0  0  0
   -0.1504   -5.7118    5.0958 H   0  0  0  0  0  0  0  0  0  0  0  0
   -0.1754   -3.9410    5.1932 H   0  0  0  0  0  0  0  0  0  0  0  0
    0.8827   -7.0437    2.7807 N   0  0  0  0  0  0  0  0  0  0  0  0
    0.7691   -8.2915    2.0623 C   0  0  0  0  0  0  0  0  0  0  0  0
    1.4677   -7.0264    3.6109 H   0  0  0  0  0  0  0  0  0  0  0  0
   -0.0776   -8.8692    2.4614 H   0  0  0  0  0  0  0  0  0  0  0  0
    0.6017   -8.0858    0.9947 H   0  0  0  0  0  0  0  0  0  0  0  0
    1.6969   -8.8698    2.1832 H   0  0  0  0  0  0  0  0  0  0  0  0
  1  3  1  0  0  0  0
  1  7  1  0  0  0  0
  1  2  2  0  0  0  0
 30 31  1  0  0  0  0
 31 39  1  0  0  0  0
 31 32  2  0  0  0  0
  8  9  1  0  0  0  0
  9 17  1  0  0  0  0
  9 10  2  0  0  0  0
 18 19  1  0  0  0  0
 19 29  1  0  0  0  0
 19 20  2  0  0  0  0
 21 22  1  0  0  0  0
 22 23  1  0  0  0  0
 22 24  2  0  0  0  0
 30 33  1  0  0  0  0
  8 11  1  0  0  0  0
 39 40  1  0  0  0  0
 18 21  1  0  0  0  0
 29 30  1  0  0  0  0
  7  8  1  0  0  0  0
 17 18  1  0  0  0  0
  3  4  1  0  0  0  0
  3  5  1  0  0  0  0
  3  6  1  0  0  0  0
 33 36  1  0  0  0  0
 33 37  1  0  0  0  0
 33 38  1  0  0  0  0
 11 14  1  0  0  0  0
 11 15  1  0  0  0  0
 11 16  1  0  0  0  0
 40 42  1  0  0  0  0
 40 43  1  0  0  0  0
 40 44  1  0  0  0  0
 21 27  1  0  0  0  0
 21 28  1  0  0  0  0
 30 35  1  0  0  0  0
  8 13  1  0  0  0  0
 18 26  1  0  0  0  0
 39 41  1  0  0  0  0
  7 12  1  0  0  0  0
 29 34  1  0  0  0  0
 17 25  1  0  0  0  0
M  CHG  1  23  -1
M  END
$$$$

  -OEChem-05262214473D

 44 43  0     1  0  0  0  0  0999 V2000
   -4.0256   -1.8030   -2.1581 C   0  0  0  0  0  0  0  0  0  0  0  0
   -3.7513   -2.6782   -2.9709 O   0  0  0  0  0  0  0  0  0  0  0  0
   -5.3491   -1.1169   -2.2339 C   0  0  0  0  0  0  0  0  0  0  0  0
   -5.3223   -0.2211   -2.8750 H   0  0  0  0  0  0  0  0  0  0  0  0
   -6.1322   -1.7605   -2.6658 H   0  0  0  0  0  0  0  0  0  0  0  0
   -5.7568   -0.7715   -1.2704 H   0  0  0  0  0  0  0  0  0  0  0  0
   -3.2124   -1.3578   -1.1289 N   0  0  0  0  0  0  0  0  0  0  0  0
   -1.8971   -1.8843   -0.8752 C   0  0  2  0  0  0  0  0  0  0  0  0
   -1.2676   -1.0599    0.2399 C   0  0  0  0  0  0  0  0  0  0  0  0
   -1.6270    0.0833    0.5138 O   0  0  0  0  0  0  0  0  0  0  0  0
   -1.0364   -1.8506   -2.1285 C   0  0  0  0  0  0  0  0  0  0  0  0
   -3.5631   -0.6202   -0.5206 H   0  0  0  0  0  0  0  0  0  0  0  0
   -2.0301   -2.9174   -0.5360 H   0  0  0  0  0  0  0  0  0  0  0  0
   -0.8921   -0.8236   -2.4833 H   0  0  0  0  0  0  0  0  0  0  0  0
   -0.0457   -2.2777   -1.9410 H   0  0  0  0  0  0  0  0  0  0  0  0
   -1.5052   -2.4193   -2.9387 H   0  0  0  0  0  0  0  0  0  0  0  0
   -0.2267   -1.7335    0.8672 N   0  0  0  0  0  0  0  0  0  0  0  0
    0.5363   -1.1590    1.9465 C   0  0  2  0  0  0  0  0  0  0  0  0
    0.9981   -2.3095    2.8335 C   0  0  0  0  0  0  0  0  0  0  0  0
    1.6401   -2.1421    3.8685 O   0  0  0  0  0  0  0  0  0  0  0  0
   -0.2866   -0.1570    2.7529 C   0  0  0  0  0  0  0  0  0  0  0  0
   -0.6530    1.1526    2.0428 C   0  0  0  0  0  0  0  0  0  0  0  0
    0.1836    1.5158    1.1659 O   0  5  0  0  0  0  0  0  0  0  0  0
   -1.7203    1.7154    2.4103 O   0  0  0  0  0  0  0  0  0  0  0  0
   -0.0113   -2.6869    0.5854 H   0  0  0  0  0  0  0  0  0  0  0  0
    1.4114   -0.6795    1.4936 H   0  0  0  0  0  0  0  0  0  0  0  0
    0.2469    0.0991    3.6785 H   0  0  0  0  0  0  0  0  0  0  0  0
   -1.2346   -0.6186    3.0588 H   0  0  0  0  0  0  0  0  0  0  0  0
    0.5639   -3.5399    2.3603 N   0  0  0  0  0  0  0  0  0  0  0  0
    0.8445   -4.7828    3.0407 C   0  0  2  0  0  0  0  0  0  0  0  0
    0.9492   -5.8806    1.9903 C   0  0  0  0  0  0  0  0  0  0  0  0
    0.4363   -5.7945    0.8765 O   0  0  0  0  0  0  0  0  0  0  0  0
   -0.2330   -5.1095    4.0629 C   0  0  0  0  0  0  0  0  0  0  0  0
   -0.0043   -3.5791    1.5192 H   0  0  0  0  0  0  0  0  0  0  0  0
    1.8124   -4.6593    3.5385 H   0  0  0  0  0  0  0  0  0  0  0  0
   -1.2101   -5.2368    3.5826 H   0  0  0  0  0  0  0  0  0  0  0  0
   -0.0043   -6.0371    4.5978 H   0  0  0  0  0  0  0  0  0  0  0  0
   -0.3275   -4.3050    4.8003 H   0  0  0  0  0  0  0  0  0  0  0  0
    1.6461   -6.9858    2.4583 N   0  0  0  0  0  0  0  0  0  0  0  0
    1.8697   -8.1644    1.6540 C   0  0  0  0  0  0  0  0  0  0  0  0
    2.0531   -6.9627    3.3887 H   0  0  0  0  0  0  0  0  0  0  0  0
    1.0652   -8.8919    1.8370 H   0  0  0  0  0  0  0  0  0  0  0  0
    1.8771   -7.8860    0.5899 H   0  0  0  0  0  0  0  0  0  0  0  0
    2.8376   -8.6131    1.9224 H   0  0  0  0  0  0  0  0  0  0  0  0
  1  3  1  0  0  0  0
  1  7  1  0  0  0  0
  1  2  2  0  0  0  0
 30 31  1  0  0  0  0
 31 39  1  0  0  0  0
 31 32  2  0  0  0  0
  8  9  1  0  0  0  0
  9 17  1  0  0  0  0
  9 10  2  0  0  0  0
 18 19  1  0  0  0  0
 19 29  1  0  0  0  0
 19 20  2  0  0  0  0
 21 22  1  0  0  0  0
 22 23  1  0  0  0  0
 22 24  2  0  0  0  0
 30 33  1  0  0  0  0
  8 11  1  0  0  0  0
 39 40  1  0  0  0  0
 18 21  1  0  0  0  0
 29 30  1  0  0  0  0
  7  8  1  0  0  0  0
 17 18  1  0  0  0  0
  3  4  1  0  0  0  0
  3  5  1  0  0  0  0
  3  6  1  0  0  0  0
 33 36  1  0  0  0  0
 33 37  1  0  0  0  0
 33 38  1  0  0  0  0
 11 14  1  0  0  0  0
 11 15  1  0  0  0  0
 11 16  1  0  0  0  0
 40 42  1  0  0  0  0
 40 43  1  0  0  0  0
 40 44  1  0  0  0  0
 21 27  1  0  0  0  0
 21 28  1  0  0  0  0
 30 35  1  0  0  0  0
  8 13  1  0  0  0  0
 18 26  1  0  0  0  0
 39 41  1  0  0  0  0
  7 12  1  0  0  0  0
 29 34  1  0  0  0  0
 17 25  1  0  0  0  0
M  CHG  1  23  -1
M  END
$$$$

  -OEChem-05262214473D

 44 43  0     1  0  0  0  0  0999 V2000
   -4.0256   -1.8030   -2.1581 C   0  0  0  0  0  0  0  0  0  0  0  0
   -3.7513   -2.6782   -2.9709 O   0  0  0  0  0  0  0  0  0  0  0  0
   -5.3491   -1.1169   -2.2339 C   0  0  0  0  0  0  0  0  0  0  0  0
   -5.3223   -0.2211   -2.8750 H   0  0  0  0  0  0  0  0  0  0  0  0
   -6.1322   -1.7605   -2.6658 H   0  0  0  0  0  0  0  0  0  0  0  0
   -5.7568   -0.7715   -1.2704 H   0  0  0  0  0  0  0  0  0  0  0  0
   -3.2124   -1.3578   -1.1289 N   0  0  0  0  0  0  0  0  0  0  0  0
   -1.8971   -1.8843   -0.8752 C   0  0  2  0  0  0  0  0  0  0  0  0
   -1.2676   -1.0599    0.2399 C   0  0  0  0  0  0  0  0  0  0  0  0
   -1.6270    0.0833    0.5138 O   0  0  0  0  0  0  0  0  0  0  0  0
   -1.0364   -1.8506   -2.1285 C   0  0  0  0  0  0  0  0  0  0  0  0
   -3.5631   -0.6202   -0.5206 H   0  0  0  0  0  0  0  0  0  0  0  0
   -2.0301   -2.9174   -0.5360 H   0  0  0  0  0  0  0  0  0  0  0  0
   -0.8921   -0.8236   -2.4833 H   0  0  0  0  0  0  0  0  0  0  0  0
   -0.0457   -2.2777   -1.9410 H   0  0  0  0  0  0  0  0  0  0  0  0
   -1.5052   -2.4193   -2.9387 H   0  0  0  0  0  0  0  0  0  0  0  0
   -0.2267   -1.7335    0.8672 N   0  0  0  0  0  0  0  0  0  0  0  0
    0.5363   -1.1590    1.9465 C   0  0  2  0  0  0  0  0  0  0  0  0
    0.9981   -2.3095    2.8335 C   0  0  0  0  0  0  0  0  0  0  0  0
    1.3977   -2.1496    3.9850 O   0  0  0  0  0  0  0  0  0  0  0  0
   -0.2866   -0.1570    2.7529 C   0  0  0  0  0  0  0  0  0  0  0  0
   -0.6530    1.1526    2.0428 C   0  0  0  0  0  0  0  0  0  0  0  0
    0.1836    1.5158    1.1659 O   0  5  0  0  0  0  0  0  0  0  0  0
   -1.7203    1.7154    2.4103 O   0  0  0  0  0  0  0  0  0  0  0  0
   -0.0113   -2.6869    0.5854 H   0  0  0  0  0  0  0  0  0  0  0  0
    1.4114   -0.6795    1.4936 H   0  0  0  0  0  0  0  0  0  0  0  0
    0.2469    0.0991    3.6785 H   0  0  0  0  0  0  0  0  0  0  0  0
   -1.2346   -0.6186    3.0588 H   0  0  0  0  0  0  0  0  0  0  0  0
    0.8618   -3.5397    2.2055 N   0  0  0  0  0  0  0  0  0  0  0  0
    1.2018   -4.7878    2.8481 C   0  0  2  0  0  0  0  0  0  0  0  0
    1.6760   -5.7565    1.7729 C   0  0  0  0  0  0  0  0  0  0  0  0
    1.3762   -5.6409    0.5864 O   0  0  0  0  0  0  0  0  0  0  0  0
    0.0158   -5.3590    3.6096 C   0  0  0  0  0  0  0  0  0  0  0  0
    0.4767   -3.5809    1.2665 H   0  0  0  0  0  0  0  0  0  0  0  0
    2.0259   -4.5743    3.5375 H   0  0  0  0  0  0  0  0  0  0  0  0
   -0.8199   -5.5792    2.9354 H   0  0  0  0  0  0  0  0  0  0  0  0
    0.2831   -6.2904    4.1197 H   0  0  0  0  0  0  0  0  0  0  0  0
   -0.3427   -4.6487    4.3624 H   0  0  0  0  0  0  0  0  0  0  0  0
    2.4378   -6.7897    2.3006 N   0  0  0  0  0  0  0  0  0  0  0  0
    2.9935   -7.8440    1.4847 C   0  0  0  0  0  0  0  0  0  0  0  0
    2.6524   -6.7956    3.2934 H   0  0  0  0  0  0  0  0  0  0  0  0
    2.2944   -8.6928    1.4554 H   0  0  0  0  0  0  0  0  0  0  0  0
    3.1580   -7.4692    0.4636 H   0  0  0  0  0  0  0  0  0  0  0  0
    3.9516   -8.1729    1.9134 H   0  0  0  0  0  0  0  0  0  0  0  0
  1  3  1  0  0  0  0
  1  7  1  0  0  0  0
  1  2  2  0  0  0  0
 30 31  1  0  0  0  0
 31 39  1  0  0  0  0
 31 32  2  0  0  0  0
  8  9  1  0  0  0  0
  9 17  1  0  0  0  0
  9 10  2  0  0  0  0
 18 19  1  0  0  0  0
 19 29  1  0  0  0  0
 19 20  2  0  0  0  0
 21 22  1  0  0  0  0
 22 23  1  0  0  0  0
 22 24  2  0  0  0  0
 30 33  1  0  0  0  0
  8 11  1  0  0  0  0
 39 40  1  0  0  0  0
 18 21  1  0  0  0  0
 29 30  1  0  0  0  0
  7  8  1  0  0  0  0
 17 18  1  0  0  0  0
  3  4  1  0  0  0  0
  3  5  1  0  0  0  0
  3  6  1  0  0  0  0
 33 36  1  0  0  0  0
 33 37  1  0  0  0  0
 33 38  1  0  0  0  0
 11 14  1  0  0  0  0
 11 15  1  0  0  0  0
 11 16  1  0  0  0  0
 40 42  1  0  0  0  0
 40 43  1  0  0  0  0
 40 44  1  0  0  0  0
 21 27  1  0  0  0  0
 21 28  1  0  0  0  0
 30 35  1  0  0  0  0
  8 13  1  0  0  0  0
 18 26  1  0  0  0  0
 39 41  1  0  0  0  0
  7 12  1  0  0  0  0
 29 34  1  0  0  0  0
 17 25  1  0  0  0  0
M  CHG  1  23  -1
M  END
$$$$

  -OEChem-05262214473D

 44 43  0     1  0  0  0  0  0999 V2000
   -4.0256   -1.8030   -2.1581 C   0  0  0  0  0  0  0  0  0  0  0  0
   -3.7513   -2.6782   -2.9709 O   0  0  0  0  0  0  0  0  0  0  0  0
   -5.3491   -1.1169   -2.2339 C   0  0  0  0  0  0  0  0  0  0  0  0
   -5.3223   -0.2211   -2.8750 H   0  0  0  0  0  0  0  0  0  0  0  0
   -6.1322   -1.7605   -2.6658 H   0  0  0  0  0  0  0  0  0  0  0  0
   -5.7568   -0.7715   -1.2704 H   0  0  0  0  0  0  0  0  0  0  0  0
   -3.2124   -1.3578   -1.1289 N   0  0  0  0  0  0  0  0  0  0  0  0
   -1.8971   -1.8843   -0.8752 C   0  0  2  0  0  0  0  0  0  0  0  0
   -1.2676   -1.0599    0.2399 C   0  0  0  0  0  0  0  0  0  0  0  0
   -1.6270    0.0833    0.5138 O   0  0  0  0  0  0  0  0  0  0  0  0
   -1.0364   -1.8506   -2.1285 C   0  0  0  0  0  0  0  0  0  0  0  0
   -3.5631   -0.6202   -0.5206 H   0  0  0  0  0  0  0  0  0  0  0  0
   -2.0301   -2.9174   -0.5360 H   0  0  0  0  0  0  0  0  0  0  0  0
   -0.8921   -0.8236   -2.4833 H   0  0  0  0  0  0  0  0  0  0  0  0
   -0.0457   -2.2777   -1.9410 H   0  0  0  0  0  0  0  0  0  0  0  0
   -1.5052   -2.4193   -2.9387 H   0  0  0  0  0  0  0  0  0  0  0  0
   -0.2267   -1.7335    0.8672 N   0  0  0  0  0  0  0  0  0  0  0  0
    0.5363   -1.1590    1.9465 C   0  0  2  0  0  0  0  0  0  0  0  0
    0.9981   -2.3095    2.8335 C   0  0  0  0  0  0  0  0  0  0  0  0
    1.1420   -2.2023    4.0497 O   0  0  0  0  0  0  0  0  0  0  0  0
   -0.2866   -0.1570    2.7529 C   0  0  0  0  0  0  0  0  0  0  0  0
   -0.6530    1.1526    2.0428 C   0  0  0  0  0  0  0  0  0  0  0  0
    0.1836    1.5158    1.1659 O   0  5  0  0  0  0  0  0  0  0  0  0
   -1.7203    1.7154    2.4103 O   0  0  0  0  0  0  0  0  0  0  0  0
   -0.0113   -2.6869    0.5854 H   0  0  0  0  0  0  0  0  0  0  0  0
    1.4114   -0.6795    1.4936 H   0  0  0  0  0  0  0  0  0  0  0  0
    0.2469    0.0991    3.6785 H   0  0  0  0  0  0  0  0  0  0  0  0
   -1.2346   -0.6186    3.0588 H   0  0  0  0  0  0  0  0  0  0  0  0
    1.1798   -3.4824    2.1141 N   0  0  0  0  0  0  0  0  0  0  0  0
    1.5852   -4.7237    2.7316 C   0  0  2  0  0  0  0  0  0  0  0  0
    2.4018   -5.5101    1.7146 C   0  0  0  0  0  0  0  0  0  0  0  0
    2.3177   -5.3282    0.5018 O   0  0  0  0  0  0  0  0  0  0  0  0
    0.3823   -5.5270    3.2009 C   0  0  0  0  0  0  0  0  0  0  0  0
    0.9909   -3.4904    1.1161 H   0  0  0  0  0  0  0  0  0  0  0  0
    2.2196   -4.4601    3.5849 H   0  0  0  0  0  0  0  0  0  0  0  0
   -0.2651   -5.8004    2.3597 H   0  0  0  0  0  0  0  0  0  0  0  0
    0.6923   -6.4542    3.6942 H   0  0  0  0  0  0  0  0  0  0  0  0
   -0.2202   -4.9486    3.9096 H   0  0  0  0  0  0  0  0  0  0  0  0
    3.2038   -6.4686    2.3182 N   0  0  0  0  0  0  0  0  0  0  0  0
    4.0637   -7.3519    1.5657 C   0  0  0  0  0  0  0  0  0  0  0  0
    3.2247   -6.5365    3.3315 H   0  0  0  0  0  0  0  0  0  0  0  0
    3.5263   -8.2853    1.3425 H   0  0  0  0  0  0  0  0  0  0  0  0
    4.3571   -6.8638    0.6246 H   0  0  0  0  0  0  0  0  0  0  0  0
    4.9632   -7.5792    2.1568 H   0  0  0  0  0  0  0  0  0  0  0  0
  1  3  1  0  0  0  0
  1  7  1  0  0  0  0
  1  2  2  0  0  0  0
 30 31  1  0  0  0  0
 31 39  1  0  0  0  0
 31 32  2  0  0  0  0
  8  9  1  0  0  0  0
  9 17  1  0  0  0  0
  9 10  2  0  0  0  0
 18 19  1  0  0  0  0
 19 29  1  0  0  0  0
 19 20  2  0  0  0  0
 21 22  1  0  0  0  0
 22 23  1  0  0  0  0
 22 24  2  0  0  0  0
 30 33  1  0  0  0  0
  8 11  1  0  0  0  0
 39 40  1  0  0  0  0
 18 21  1  0  0  0  0
 29 30  1  0  0  0  0
  7  8  1  0  0  0  0
 17 18  1  0  0  0  0
  3  4  1  0  0  0  0
  3  5  1  0  0  0  0
  3  6  1  0  0  0  0
 33 36  1  0  0  0  0
 33 37  1  0  0  0  0
 33 38  1  0  0  0  0
 11 14  1  0  0  0  0
 11 15  1  0  0  0  0
 11 16  1  0  0  0  0
 40 42  1  0  0  0  0
 40 43  1  0  0  0  0
 40 44  1  0  0  0  0
 21 27  1  0  0  0  0
 21 28  1  0  0  0  0
 30 35  1  0  0  0  0
  8 13  1  0  0  0  0
 18 26  1  0  0  0  0
 39 41  1  0  0  0  0
  7 12  1  0  0  0  0
 29 34  1  0  0  0  0
 17 25  1  0  0  0  0
M  CHG  1  23  -1
M  END
$$$$

  -OEChem-05262214473D

 44 43  0     1  0  0  0  0  0999 V2000
   -4.0256   -1.8030   -2.1581 C   0  0  0  0  0  0  0  0  0  0  0  0
   -3.7513   -2.6782   -2.9709 O   0  0  0  0  0  0  0  0  0  0  0  0
   -5.3491   -1.1169   -2.2339 C   0  0  0  0  0  0  0  0  0  0  0  0
   -5.3223   -0.2211   -2.8750 H   0  0  0  0  0  0  0  0  0  0  0  0
   -6.1322   -1.7605   -2.6658 H   0  0  0  0  0  0  0  0  0  0  0  0
   -5.7568   -0.7715   -1.2704 H   0  0  0  0  0  0  0  0  0  0  0  0
   -3.2124   -1.3578   -1.1289 N   0  0  0  0  0  0  0  0  0  0  0  0
   -1.8971   -1.8843   -0.8752 C   0  0  2  0  0  0  0  0  0  0  0  0
   -1.2676   -1.0599    0.2399 C   0  0  0  0  0  0  0  0  0  0  0  0
   -1.6270    0.0833    0.5138 O   0  0  0  0  0  0  0  0  0  0  0  0
   -1.0364   -1.8506   -2.1285 C   0  0  0  0  0  0  0  0  0  0  0  0
   -3.5631   -0.6202   -0.5206 H   0  0  0  0  0  0  0  0  0  0  0  0
   -2.0301   -2.9174   -0.5360 H   0  0  0  0  0  0  0  0  0  0  0  0
   -0.8921   -0.8236   -2.4833 H   0  0  0  0  0  0  0  0  0  0  0  0
   -0.0457   -2.2777   -1.9410 H   0  0  0  0  0  0  0  0  0  0  0  0
   -1.5052   -2.4193   -2.9387 H   0  0  0  0  0  0  0  0  0  0  0  0
   -0.2267   -1.7335    0.8672 N   0  0  0  0  0  0  0  0  0  0  0  0
    0.5363   -1.1590    1.9465 C   0  0  2  0  0  0  0  0  0  0  0  0
    0.9981   -2.3095    2.8335 C   0  0  0  0  0  0  0  0  0  0  0  0
    0.8903   -2.2969    4.0580 O   0  0  0  0  0  0  0  0  0  0  0  0
   -0.2866   -0.1570    2.7529 C   0  0  0  0  0  0  0  0  0  0  0  0
   -0.6530    1.1526    2.0428 C   0  0  0  0  0  0  0  0  0  0  0  0
    0.1836    1.5158    1.1659 O   0  5  0  0  0  0  0  0  0  0  0  0
   -1.7203    1.7154    2.4103 O   0  0  0  0  0  0  0  0  0  0  0  0
   -0.0113   -2.6869    0.5854 H   0  0  0  0  0  0  0  0  0  0  0  0
    1.4114   -0.6795    1.4936 H   0  0  0  0  0  0  0  0  0  0  0  0
    0.2469    0.0991    3.6785 H   0  0  0  0  0  0  0  0  0  0  0  0
   -1.2346   -0.6186    3.0588 H   0  0  0  0  0  0  0  0  0  0  0  0
    1.4962   -3.3721    2.0925 N   0  0  0  0  0  0  0  0  0  0  0  0
    1.9688   -4.5949    2.6990 C   0  0  2  0  0  0  0  0  0  0  0  0
    3.0772   -5.1582    1.8194 C   0  0  0  0  0  0  0  0  0  0  0  0
    3.1964   -4.8778    0.6286 O   0  0  0  0  0  0  0  0  0  0  0  0
    0.8414   -5.6021    2.8645 C   0  0  0  0  0  0  0  0  0  0  0  0
    1.5033   -3.3138    1.0785 H   0  0  0  0  0  0  0  0  0  0  0  0
    2.3802   -4.3242    3.6775 H   0  0  0  0  0  0  0  0  0  0  0  0
    0.4167   -5.8853    1.8945 H   0  0  0  0  0  0  0  0  0  0  0  0
    1.1953   -6.5174    3.3503 H   0  0  0  0  0  0  0  0  0  0  0  0
    0.0318   -5.1844    3.4726 H   0  0  0  0  0  0  0  0  0  0  0  0
    3.8919   -6.0445    2.5101 N   0  0  0  0  0  0  0  0  0  0  0  0
    5.0076   -6.7217    1.8916 C   0  0  0  0  0  0  0  0  0  0  0  0
    3.7311   -6.2030    3.5004 H   0  0  0  0  0  0  0  0  0  0  0  0
    4.6769   -7.6974    1.5060 H   0  0  0  0  0  0  0  0  0  0  0  0
    5.3928   -6.1110    1.0618 H   0  0  0  0  0  0  0  0  0  0  0  0
    5.8033   -6.8724    2.6361 H   0  0  0  0  0  0  0  0  0  0  0  0
  1  3  1  0  0  0  0
  1  7  1  0  0  0  0
  1  2  2  0  0  0  0
 30 31  1  0  0  0  0
 31 39  1  0  0  0  0
 31 32  2  0  0  0  0
  8  9  1  0  0  0  0
  9 17  1  0  0  0  0
  9 10  2  0  0  0  0
 18 19  1  0  0  0  0
 19 29  1  0  0  0  0
 19 20  2  0  0  0  0
 21 22  1  0  0  0  0
 22 23  1  0  0  0  0
 22 24  2  0  0  0  0
 30 33  1  0  0  0  0
  8 11  1  0  0  0  0
 39 40  1  0  0  0  0
 18 21  1  0  0  0  0
 29 30  1  0  0  0  0
  7  8  1  0  0  0  0
 17 18  1  0  0  0  0
  3  4  1  0  0  0  0
  3  5  1  0  0  0  0
  3  6  1  0  0  0  0
 33 36  1  0  0  0  0
 33 37  1  0  0  0  0
 33 38  1  0  0  0  0
 11 14  1  0  0  0  0
 11 15  1  0  0  0  0
 11 16  1  0  0  0  0
 40 42  1  0  0  0  0
 40 43  1  0  0  0  0
 40 44  1  0  0  0  0
 21 27  1  0  0  0  0
 21 28  1  0  0  0  0
 30 35  1  0  0  0  0
  8 13  1  0  0  0  0
 18 26  1  0  0  0  0
 39 41  1  0  0  0  0
  7 12  1  0  0  0  0
 29 34  1  0  0  0  0
 17 25  1  0  0  0  0
M  CHG  1  23  -1
M  END
$$$$

  -OEChem-05262214473D

 44 43  0     1  0  0  0  0  0999 V2000
   -4.0256   -1.8030   -2.1581 C   0  0  0  0  0  0  0  0  0  0  0  0
   -3.7513   -2.6782   -2.9709 O   0  0  0  0  0  0  0  0  0  0  0  0
   -5.3491   -1.1169   -2.2339 C   0  0  0  0  0  0  0  0  0  0  0  0
   -5.3223   -0.2211   -2.8750 H   0  0  0  0  0  0  0  0  0  0  0  0
   -6.1322   -1.7605   -2.6658 H   0  0  0  0  0  0  0  0  0  0  0  0
   -5.7568   -0.7715   -1.2704 H   0  0  0  0  0  0  0  0  0  0  0  0
   -3.2124   -1.3578   -1.1289 N   0  0  0  0  0  0  0  0  0  0  0  0
   -1.8971   -1.8843   -0.8752 C   0  0  2  0  0  0  0  0  0  0  0  0
   -1.2676   -1.0599    0.2399 C   0  0  0  0  0  0  0  0  0  0  0  0
   -1.6270    0.0833    0.5138 O   0  0  0  0  0  0  0  0  0  0  0  0
   -1.0364   -1.8506   -2.1285 C   0  0  0  0  0  0  0  0  0  0  0  0
   -3.5631   -0.6202   -0.5206 H   0  0  0  0  0  0  0  0  0  0  0  0
   -2.0301   -2.9174   -0.5360 H   0  0  0  0  0  0  0  0  0  0  0  0
   -0.8921   -0.8236   -2.4833 H   0  0  0  0  0  0  0  0  0  0  0  0
   -0.0457   -2.2777   -1.9410 H   0  0  0  0  0  0  0  0  0  0  0  0
   -1.5052   -2.4193   -2.9387 H   0  0  0  0  0  0  0  0  0  0  0  0
   -0.2267   -1.7335    0.8672 N   0  0  0  0  0  0  0  0  0  0  0  0
    0.5363   -1.1590    1.9465 C   0  0  2  0  0  0  0  0  0  0  0  0
    0.9981   -2.3095    2.8335 C   0  0  0  0  0  0  0  0  0  0  0  0
    0.6598   -2.4268    4.0096 O   0  0  0  0  0  0  0  0  0  0  0  0
   -0.2866   -0.1570    2.7529 C   0  0  0  0  0  0  0  0  0  0  0  0
   -0.6530    1.1526    2.0428 C   0  0  0  0  0  0  0  0  0  0  0  0
    0.1836    1.5158    1.1659 O   0  5  0  0  0  0  0  0  0  0  0  0
   -1.7203    1.7154    2.4103 O   0  0  0  0  0  0  0  0  0  0  0  0
   -0.0113   -2.6869    0.5854 H   0  0  0  0  0  0  0  0  0  0  0  0
    1.4114   -0.6795    1.4936 H   0  0  0  0  0  0  0  0  0  0  0  0
    0.2469    0.0991    3.6785 H   0  0  0  0  0  0  0  0  0  0  0  0
   -1.2346   -0.6186    3.0588 H   0  0  0  0  0  0  0  0  0  0  0  0
    1.7894   -3.2162    2.1421 N   0  0  0  0  0  0  0  0  0  0  0  0
    2.3262   -4.4102    2.7524 C   0  0  2  0  0  0  0  0  0  0  0  0
    3.6561   -4.7248    2.0802 C   0  0  0  0  0  0  0  0  0  0  0  0
    3.9527   -4.3203    0.9579 O   0  0  0  0  0  0  0  0  0  0  0  0
    1.3620   -5.5791    2.6234 C   0  0  0  0  0  0  0  0  0  0  0  0
    1.9790   -3.0630    1.1560 H   0  0  0  0  0  0  0  0  0  0  0  0
    2.4967   -4.1761    3.8089 H   0  0  0  0  0  0  0  0  0  0  0  0
    1.1789   -5.8283    1.5718 H   0  0  0  0  0  0  0  0  0  0  0  0
    1.7579   -6.4758    3.1114 H   0  0  0  0  0  0  0  0  0  0  0  0
    0.3961   -5.3399    3.0813 H   0  0  0  0  0  0  0  0  0  0  0  0
    4.4552   -5.5462    2.8631 N   0  0  0  0  0  0  0  0  0  0  0  0
    5.7607   -5.9965    2.4402 C   0  0  0  0  0  0  0  0  0  0  0  0
    4.1370   -5.8179    3.7887 H   0  0  0  0  0  0  0  0  0  0  0  0
    5.6678   -6.9690    1.9348 H   0  0  0  0  0  0  0  0  0  0  0  0
    6.1944   -5.2622    1.7454 H   0  0  0  0  0  0  0  0  0  0  0  0
    6.4147   -6.1008    3.3185 H   0  0  0  0  0  0  0  0  0  0  0  0
  1  3  1  0  0  0  0
  1  7  1  0  0  0  0
  1  2  2  0  0  0  0
 30 31  1  0  0  0  0
 31 39  1  0  0  0  0
 31 32  2  0  0  0  0
  8  9  1  0  0  0  0
  9 17  1  0  0  0  0
  9 10  2  0  0  0  0
 18 19  1  0  0  0  0
 19 29  1  0  0  0  0
 19 20  2  0  0  0  0
 21 22  1  0  0  0  0
 22 23  1  0  0  0  0
 22 24  2  0  0  0  0
 30 33  1  0  0  0  0
  8 11  1  0  0  0  0
 39 40  1  0  0  0  0
 18 21  1  0  0  0  0
 29 30  1  0  0  0  0
  7  8  1  0  0  0  0
 17 18  1  0  0  0  0
  3  4  1  0  0  0  0
  3  5  1  0  0  0  0
  3  6  1  0  0  0  0
 33 36  1  0  0  0  0
 33 37  1  0  0  0  0
 33 38  1  0  0  0  0
 11 14  1  0  0  0  0
 11 15  1  0  0  0  0
 11 16  1  0  0  0  0
 40 42  1  0  0  0  0
 40 43  1  0  0  0  0
 40 44  1  0  0  0  0
 21 27  1  0  0  0  0
 21 28  1  0  0  0  0
 30 35  1  0  0  0  0
  8 13  1  0  0  0  0
 18 26  1  0  0  0  0
 39 41  1  0  0  0  0
  7 12  1  0  0  0  0
 29 34  1  0  0  0  0
 17 25  1  0  0  0  0
M  CHG  1  23  -1
M  END
$$$$

  -OEChem-05262214473D

 44 43  0     1  0  0  0  0  0999 V2000
   -4.0256   -1.8030   -2.1581 C   0  0  0  0  0  0  0  0  0  0  0  0
   -3.7513   -2.6782   -2.9709 O   0  0  0  0  0  0  0  0  0  0  0  0
   -5.3491   -1.1169   -2.2339 C   0  0  0  0  0  0  0  0  0  0  0  0
   -5.3223   -0.2211   -2.8750 H   0  0  0  0  0  0  0  0  0  0  0  0
   -6.1322   -1.7605   -2.6658 H   0  0  0  0  0  0  0  0  0  0  0  0
   -5.7568   -0.7715   -1.2704 H   0  0  0  0  0  0  0  0  0  0  0  0
   -3.2124   -1.3578   -1.1289 N   0  0  0  0  0  0  0  0  0  0  0  0
   -1.8971   -1.8843   -0.8752 C   0  0  2  0  0  0  0  0  0  0  0  0
   -1.2676   -1.0599    0.2399 C   0  0  0  0  0  0  0  0  0  0  0  0
   -1.6270    0.0833    0.5138 O   0  0  0  0  0  0  0  0  0  0  0  0
   -1.0364   -1.8506   -2.1285 C   0  0  0  0  0  0  0  0  0  0  0  0
   -3.5631   -0.6202   -0.5206 H   0  0  0  0  0  0  0  0  0  0  0  0
   -2.0301   -2.9174   -0.5360 H   0  0  0  0  0  0  0  0  0  0  0  0
   -0.8921   -0.8236   -2.4833 H   0  0  0  0  0  0  0  0  0  0  0  0
   -0.0457   -2.2777   -1.9410 H   0  0  0  0  0  0  0  0  0  0  0  0
   -1.5052   -2.4193   -2.9387 H   0  0  0  0  0  0  0  0  0  0  0  0
   -0.2267   -1.7335    0.8672 N   0  0  0  0  0  0  0  0  0  0  0  0
    0.5363   -1.1590    1.9465 C   0  0  2  0  0  0  0  0  0  0  0  0
    0.9981   -2.3095    2.8335 C   0  0  0  0  0  0  0  0  0  0  0  0
    0.4662   -2.5832    3.9075 O   0  0  0  0  0  0  0  0  0  0  0  0
   -0.2866   -0.1570    2.7529 C   0  0  0  0  0  0  0  0  0  0  0  0
   -0.6530    1.1526    2.0428 C   0  0  0  0  0  0  0  0  0  0  0  0
    0.1836    1.5158    1.1659 O   0  5  0  0  0  0  0  0  0  0  0  0
   -1.7203    1.7154    2.4103 O   0  0  0  0  0  0  0  0  0  0  0  0
   -0.0113   -2.6869    0.5854 H   0  0  0  0  0  0  0  0  0  0  0  0
    1.4114   -0.6795    1.4936 H   0  0  0  0  0  0  0  0  0  0  0  0
    0.2469    0.0991    3.6785 H   0  0  0  0  0  0  0  0  0  0  0  0
   -1.2346   -0.6186    3.0588 H   0  0  0  0  0  0  0  0  0  0  0  0
    2.0394   -3.0253    2.2595 N   0  0  0  0  0  0  0  0  0  0  0  0
    2.6332   -4.1822    2.8884 C   0  0  2  0  0  0  0  0  0  0  0  0
    4.0990   -4.2395    2.4791 C   0  0  0  0  0  0  0  0  0  0  0  0
    4.5349   -3.6937    1.4675 O   0  0  0  0  0  0  0  0  0  0  0  0
    1.9084   -5.4596    2.4939 C   0  0  0  0  0  0  0  0  0  0  0  0
    2.3857   -2.7553    1.3435 H   0  0  0  0  0  0  0  0  0  0  0  0
    2.5613   -4.0258    3.9703 H   0  0  0  0  0  0  0  0  0  0  0  0
    1.9695   -5.6330    1.4134 H   0  0  0  0  0  0  0  0  0  0  0  0
    2.3417   -6.3321    2.9938 H   0  0  0  0  0  0  0  0  0  0  0  0
    0.8478   -5.4046    2.7622 H   0  0  0  0  0  0  0  0  0  0  0  0
    4.8553   -5.0078    3.3532 N   0  0  0  0  0  0  0  0  0  0  0  0
    6.2718   -5.2255    3.1741 C   0  0  0  0  0  0  0  0  0  0  0  0
    4.4147   -5.4073    4.1766 H   0  0  0  0  0  0  0  0  0  0  0  0
    6.4315   -6.1499    2.5997 H   0  0  0  0  0  0  0  0  0  0  0  0
    6.7073   -4.3752    2.6288 H   0  0  0  0  0  0  0  0  0  0  0  0
    6.7558   -5.3169    4.1577 H   0  0  0  0  0  0  0  0  0  0  0  0
  1  3  1  0  0  0  0
  1  7  1  0  0  0  0
  1  2  2  0  0  0  0
 30 31  1  0  0  0  0
 31 39  1  0  0  0  0
 31 32  2  0  0  0  0
  8  9  1  0  0  0  0
  9 17  1  0  0  0  0
  9 10  2  0  0  0  0
 18 19  1  0  0  0  0
 19 29  1  0  0  0  0
 19 20  2  0  0  0  0
 21 22  1  0  0  0  0
 22 23  1  0  0  0  0
 22 24  2  0  0  0  0
 30 33  1  0  0  0  0
  8 11  1  0  0  0  0
 39 40  1  0  0  0  0
 18 21  1  0  0  0  0
 29 30  1  0  0  0  0
  7  8  1  0  0  0  0
 17 18  1  0  0  0  0
  3  4  1  0  0  0  0
  3  5  1  0  0  0  0
  3  6  1  0  0  0  0
 33 36  1  0  0  0  0
 33 37  1  0  0  0  0
 33 38  1  0  0  0  0
 11 14  1  0  0  0  0
 11 15  1  0  0  0  0
 11 16  1  0  0  0  0
 40 42  1  0  0  0  0
 40 43  1  0  0  0  0
 40 44  1  0  0  0  0
 21 27  1  0  0  0  0
 21 28  1  0  0  0  0
 30 35  1  0  0  0  0
  8 13  1  0  0  0  0
 18 26  1  0  0  0  0
 39 41  1  0  0  0  0
  7 12  1  0  0  0  0
 29 34  1  0  0  0  0
 17 25  1  0  0  0  0
M  CHG  1  23  -1
M  END
$$$$

  -OEChem-05262214473D

 44 43  0     1  0  0  0  0  0999 V2000
   -4.0256   -1.8030   -2.1581 C   0  0  0  0  0  0  0  0  0  0  0  0
   -3.7513   -2.6782   -2.9709 O   0  0  0  0  0  0  0  0  0  0  0  0
   -5.3491   -1.1169   -2.2339 C   0  0  0  0  0  0  0  0  0  0  0  0
   -5.3223   -0.2211   -2.8750 H   0  0  0  0  0  0  0  0  0  0  0  0
   -6.1322   -1.7605   -2.6658 H   0  0  0  0  0  0  0  0  0  0  0  0
   -5.7568   -0.7715   -1.2704 H   0  0  0  0  0  0  0  0  0  0  0  0
   -3.2124   -1.3578   -1.1289 N   0  0  0  0  0  0  0  0  0  0  0  0
   -1.8971   -1.8843   -0.8752 C   0  0  2  0  0  0  0  0  0  0  0  0
   -1.2676   -1.0599    0.2399 C   0  0  0  0  0  0  0  0  0  0  0  0
   -1.6270    0.0833    0.5138 O   0  0  0  0  0  0  0  0  0  0  0  0
   -1.0364   -1.8506   -2.1285 C   0  0  0  0  0  0  0  0  0  0  0  0
   -3.5631   -0.6202   -0.5206 H   0  0  0  0  0  0  0  0  0  0  0  0
   -2.0301   -2.9174   -0.5360 H   0  0  0  0  0  0  0  0  0  0  0  0
   -0.8921   -0.8236   -2.4833 H   0  0  0  0  0  0  0  0  0  0  0  0
   -0.0457   -2.2777   -1.9410 H   0  0  0  0  0  0  0  0  0  0  0  0
   -1.5052   -2.4193   -2.9387 H   0  0  0  0  0  0  0  0  0  0  0  0
   -0.2267   -1.7335    0.8672 N   0  0  0  0  0  0  0  0  0  0  0  0
    0.5363   -1.1590    1.9465 C   0  0  2  0  0  0  0  0  0  0  0  0
    0.9981   -2.3095    2.8335 C   0  0  0  0  0  0  0  0  0  0  0  0
    0.3227   -2.7554    3.7588 O   0  0  0  0  0  0  0  0  0  0  0  0
   -0.2866   -0.1570    2.7529 C   0  0  0  0  0  0  0  0  0  0  0  0
   -0.6530    1.1526    2.0428 C   0  0  0  0  0  0  0  0  0  0  0  0
    0.1836    1.5158    1.1659 O   0  5  0  0  0  0  0  0  0  0  0  0
   -1.7203    1.7154    2.4103 O   0  0  0  0  0  0  0  0  0  0  0  0
   -0.0113   -2.6869    0.5854 H   0  0  0  0  0  0  0  0  0  0  0  0
    1.4114   -0.6795    1.4936 H   0  0  0  0  0  0  0  0  0  0  0  0
    0.2469    0.0991    3.6785 H   0  0  0  0  0  0  0  0  0  0  0  0
   -1.2346   -0.6186    3.0588 H   0  0  0  0  0  0  0  0  0  0  0  0
    2.2293   -2.8125    2.4367 N   0  0  0  0  0  0  0  0  0  0  0  0
    2.8688   -3.9263    3.0976 C   0  0  2  0  0  0  0  0  0  0  0  0
    4.3759   -3.7352    2.9890 C   0  0  0  0  0  0  0  0  0  0  0  0
    4.9033   -3.0408    2.1226 O   0  0  0  0  0  0  0  0  0  0  0  0
    2.4435   -5.2516    2.4850 C   0  0  0  0  0  0  0  0  0  0  0  0
    2.6954   -2.4114    1.6282 H   0  0  0  0  0  0  0  0  0  0  0  0
    2.5696   -3.8835    4.1505 H   0  0  0  0  0  0  0  0  0  0  0  0
    2.7348   -5.3129    1.4301 H   0  0  0  0  0  0  0  0  0  0  0  0
    2.9070   -6.0962    3.0055 H   0  0  0  0  0  0  0  0  0  0  0  0
    1.3562   -5.3740    2.5372 H   0  0  0  0  0  0  0  0  0  0  0  0
    5.0649   -4.4659    3.9469 N   0  0  0  0  0  0  0  0  0  0  0  0
    6.5060   -4.4614    4.0433 C   0  0  0  0  0  0  0  0  0  0  0  0
    4.5454   -4.9994    4.6377 H   0  0  0  0  0  0  0  0  0  0  0  0
    6.9160   -5.2957    3.4553 H   0  0  0  0  0  0  0  0  0  0  0  0
    6.8966   -3.5104    3.6519 H   0  0  0  0  0  0  0  0  0  0  0  0
    6.8033   -4.5742    5.0964 H   0  0  0  0  0  0  0  0  0  0  0  0
  1  3  1  0  0  0  0
  1  7  1  0  0  0  0
  1  2  2  0  0  0  0
 30 31  1  0  0  0  0
 31 39  1  0  0  0  0
 31 32  2  0  0  0  0
  8  9  1  0  0  0  0
  9 17  1  0  0  0  0
  9 10  2  0  0  0  0
 18 19  1  0  0  0  0
 19 29  1  0  0  0  0
 19 20  2  0  0  0  0
 21 22  1  0  0  0  0
 22 23  1  0  0  0  0
 22 24  2  0  0  0  0
 30 33  1  0  0  0  0
  8 11  1  0  0  0  0
 39 40  1  0  0  0  0
 18 21  1  0  0  0  0
 29 30  1  0  0  0  0
  7  8  1  0  0  0  0
 17 18  1  0  0  0  0
  3  4  1  0  0  0  0
  3  5  1  0  0  0  0
  3  6  1  0  0  0  0
 33 36  1  0  0  0  0
 33 37  1  0  0  0  0
 33 38  1  0  0  0  0
 11 14  1  0  0  0  0
 11 15  1  0  0  0  0
 11 16  1  0  0  0  0
 40 42  1  0  0  0  0
 40 43  1  0  0  0  0
 40 44  1  0  0  0  0
 21 27  1  0  0  0  0
 21 28  1  0  0  0  0
 30 35  1  0  0  0  0
  8 13  1  0  0  0  0
 18 26  1  0  0  0  0
 39 41  1  0  0  0  0
  7 12  1  0  0  0  0
 29 34  1  0  0  0  0
 17 25  1  0  0  0  0
M  CHG  1  23  -1
M  END
$$$$

  -OEChem-05262214473D

 44 43  0     1  0  0  0  0  0999 V2000
   -4.0256   -1.8030   -2.1581 C   0  0  0  0  0  0  0  0  0  0  0  0
   -3.7513   -2.6782   -2.9709 O   0  0  0  0  0  0  0  0  0  0  0  0
   -5.3491   -1.1169   -2.2339 C   0  0  0  0  0  0  0  0  0  0  0  0
   -5.3223   -0.2211   -2.8750 H   0  0  0  0  0  0  0  0  0  0  0  0
   -6.1322   -1.7605   -2.6658 H   0  0  0  0  0  0  0  0  0  0  0  0
   -5.7568   -0.7715   -1.2704 H   0  0  0  0  0  0  0  0  0  0  0  0
   -3.2124   -1.3578   -1.1289 N   0  0  0  0  0  0  0  0  0  0  0  0
   -1.8971   -1.8843   -0.8752 C   0  0  2  0  0  0  0  0  0  0  0  0
   -1.2676   -1.0599    0.2399 C   0  0  0  0  0  0  0  0  0  0  0  0
   -1.6270    0.0833    0.5138 O   0  0  0  0  0  0  0  0  0  0  0  0
   -1.0364   -1.8506   -2.1285 C   0  0  0  0  0  0  0  0  0  0  0  0
   -3.5631   -0.6202   -0.5206 H   0  0  0  0  0  0  0  0  0  0  0  0
   -2.0301   -2.9174   -0.5360 H   0  0  0  0  0  0  0  0  0  0  0  0
   -0.8921   -0.8236   -2.4833 H   0  0  0  0  0  0  0  0  0  0  0  0
   -0.0457   -2.2777   -1.9410 H   0  0  0  0  0  0  0  0  0  0  0  0
   -1.5052   -2.4193   -2.9387 H   0  0  0  0  0  0  0  0  0  0  0  0
   -0.2267   -1.7335    0.8672 N   0  0  0  0  0  0  0  0  0  0  0  0
    0.5363   -1.1590    1.9465 C   0  0  2  0  0  0  0  0  0  0  0  0
    0.9981   -2.3095    2.8335 C   0  0  0  0  0  0  0  0  0  0  0  0
    0.2390   -2.9318    3.5737 O   0  0  0  0  0  0  0  0  0  0  0  0
   -0.2866   -0.1570    2.7529 C   0  0  0  0  0  0  0  0  0  0  0  0
   -0.6530    1.1526    2.0428 C   0  0  0  0  0  0  0  0  0  0  0  0
    0.1836    1.5158    1.1659 O   0  5  0  0  0  0  0  0  0  0  0  0
   -1.7203    1.7154    2.4103 O   0  0  0  0  0  0  0  0  0  0  0  0
   -0.0113   -2.6869    0.5854 H   0  0  0  0  0  0  0  0  0  0  0  0
    1.4114   -0.6795    1.4936 H   0  0  0  0  0  0  0  0  0  0  0  0
    0.2469    0.0991    3.6785 H   0  0  0  0  0  0  0  0  0  0  0  0
   -1.2346   -0.6186    3.0588 H   0  0  0  0  0  0  0  0  0  0  0  0
    2.3460   -2.5923    2.6616 N   0  0  0  0  0  0  0  0  0  0  0  0
    3.0170   -3.6601    3.3657 C   0  0  2  0  0  0  0  0  0  0  0  0
    4.4677   -3.2464    3.5752 C   0  0  0  0  0  0  0  0  0  0  0  0
    5.0329   -2.4059    2.8785 O   0  0  0  0  0  0  0  0  0  0  0  0
    2.9307   -4.9695    2.5973 C   0  0  0  0  0  0  0  0  0  0  0  0
    2.8872   -2.0550    1.9907 H   0  0  0  0  0  0  0  0  0  0  0  0
    2.5209   -3.7589    4.3374 H   0  0  0  0  0  0  0  0  0  0  0  0
    3.4225   -4.8898    1.6209 H   0  0  0  0  0  0  0  0  0  0  0  0
    3.4151   -5.7841    3.1457 H   0  0  0  0  0  0  0  0  0  0  0  0
    1.8866   -5.2502    2.4216 H   0  0  0  0  0  0  0  0  0  0  0  0
    5.0698   -3.9574    4.6038 N   0  0  0  0  0  0  0  0  0  0  0  0
    6.4473   -3.7561    4.9885 C   0  0  0  0  0  0  0  0  0  0  0  0
    4.5201   -4.6218    5.1406 H   0  0  0  0  0  0  0  0  0  0  0  0
    7.0881   -4.4648    4.4434 H   0  0  0  0  0  0  0  0  0  0  0  0
    6.7493   -2.7268    4.7449 H   0  0  0  0  0  0  0  0  0  0  0  0
    6.5539   -3.9232    6.0705 H   0  0  0  0  0  0  0  0  0  0  0  0
  1  3  1  0  0  0  0
  1  7  1  0  0  0  0
  1  2  2  0  0  0  0
 30 31  1  0  0  0  0
 31 39  1  0  0  0  0
 31 32  2  0  0  0  0
  8  9  1  0  0  0  0
  9 17  1  0  0  0  0
  9 10  2  0  0  0  0
 18 19  1  0  0  0  0
 19 29  1  0  0  0  0
 19 20  2  0  0  0  0
 21 22  1  0  0  0  0
 22 23  1  0  0  0  0
 22 24  2  0  0  0  0
 30 33  1  0  0  0  0
  8 11  1  0  0  0  0
 39 40  1  0  0  0  0
 18 21  1  0  0  0  0
 29 30  1  0  0  0  0
  7  8  1  0  0  0  0
 17 18  1  0  0  0  0
  3  4  1  0  0  0  0
  3  5  1  0  0  0  0
  3  6  1  0  0  0  0
 33 36  1  0  0  0  0
 33 37  1  0  0  0  0
 33 38  1  0  0  0  0
 11 14  1  0  0  0  0
 11 15  1  0  0  0  0
 11 16  1  0  0  0  0
 40 42  1  0  0  0  0
 40 43  1  0  0  0  0
 40 44  1  0  0  0  0
 21 27  1  0  0  0  0
 21 28  1  0  0  0  0
 30 35  1  0  0  0  0
  8 13  1  0  0  0  0
 18 26  1  0  0  0  0
 39 41  1  0  0  0  0
  7 12  1  0  0  0  0
 29 34  1  0  0  0  0
 17 25  1  0  0  0  0
M  CHG  1  23  -1
M  END
$$$$

  -OEChem-05262214473D

 44 43  0     1  0  0  0  0  0999 V2000
   -4.0256   -1.8030   -2.1581 C   0  0  0  0  0  0  0  0  0  0  0  0
   -3.7513   -2.6782   -2.9709 O   0  0  0  0  0  0  0  0  0  0  0  0
   -5.3491   -1.1169   -2.2339 C   0  0  0  0  0  0  0  0  0  0  0  0
   -5.3223   -0.2211   -2.8750 H   0  0  0  0  0  0  0  0  0  0  0  0
   -6.1322   -1.7605   -2.6658 H   0  0  0  0  0  0  0  0  0  0  0  0
   -5.7568   -0.7715   -1.2704 H   0  0  0  0  0  0  0  0  0  0  0  0
   -3.2124   -1.3578   -1.1289 N   0  0  0  0  0  0  0  0  0  0  0  0
   -1.8971   -1.8843   -0.8752 C   0  0  2  0  0  0  0  0  0  0  0  0
   -1.2676   -1.0599    0.2399 C   0  0  0  0  0  0  0  0  0  0  0  0
   -1.6270    0.0833    0.5138 O   0  0  0  0  0  0  0  0  0  0  0  0
   -1.0364   -1.8506   -2.1285 C   0  0  0  0  0  0  0  0  0  0  0  0
   -3.5631   -0.6202   -0.5206 H   0  0  0  0  0  0  0  0  0  0  0  0
   -2.0301   -2.9174   -0.5360 H   0  0  0  0  0  0  0  0  0  0  0  0
   -0.8921   -0.8236   -2.4833 H   0  0  0  0  0  0  0  0  0  0  0  0
   -0.0457   -2.2777   -1.9410 H   0  0  0  0  0  0  0  0  0  0  0  0
   -1.5052   -2.4193   -2.9387 H   0  0  0  0  0  0  0  0  0  0  0  0
   -0.2267   -1.7335    0.8672 N   0  0  0  0  0  0  0  0  0  0  0  0
    0.5363   -1.1590    1.9465 C   0  0  2  0  0  0  0  0  0  0  0  0
    0.9981   -2.3095    2.8335 C   0  0  0  0  0  0  0  0  0  0  0  0
    0.2209   -3.1001    3.3647 O   0  0  0  0  0  0  0  0  0  0  0  0
   -0.2866   -0.1570    2.7529 C   0  0  0  0  0  0  0  0  0  0  0  0
   -0.6530    1.1526    2.0428 C   0  0  0  0  0  0  0  0  0  0  0  0
    0.1836    1.5158    1.1659 O   0  5  0  0  0  0  0  0  0  0  0  0
   -1.7203    1.7154    2.4103 O   0  0  0  0  0  0  0  0  0  0  0  0
   -0.0113   -2.6869    0.5854 H   0  0  0  0  0  0  0  0  0  0  0  0
    1.4114   -0.6795    1.4936 H   0  0  0  0  0  0  0  0  0  0  0  0
    0.2469    0.0991    3.6785 H   0  0  0  0  0  0  0  0  0  0  0  0
   -1.2346   -0.6186    3.0588 H   0  0  0  0  0  0  0  0  0  0  0  0
    2.3816   -2.3796    2.9189 N   0  0  0  0  0  0  0  0  0  0  0  0
    3.0677   -3.4016    3.6746 C   0  0  2  0  0  0  0  0  0  0  0  0
    4.3683   -2.8064    4.1976 C   0  0  0  0  0  0  0  0  0  0  0  0
    4.9148   -1.8325    3.6838 O   0  0  0  0  0  0  0  0  0  0  0  0
    3.3370   -4.6325    2.8230 C   0  0  0  0  0  0  0  0  0  0  0  0
    2.9480   -1.7102    2.4062 H   0  0  0  0  0  0  0  0  0  0  0  0
    2.4187   -3.6606    4.5182 H   0  0  0  0  0  0  0  0  0  0  0  0
    3.9858   -4.3925    1.9726 H   0  0  0  0  0  0  0  0  0  0  0  0
    3.8316   -5.4171    3.4049 H   0  0  0  0  0  0  0  0  0  0  0  0
    2.4029   -5.0418    2.4232 H   0  0  0  0  0  0  0  0  0  0  0  0
    4.8697   -3.5170    5.2792 N   0  0  0  0  0  0  0  0  0  0  0  0
    6.0998   -3.1579    5.9454 C   0  0  0  0  0  0  0  0  0  0  0  0
    4.3405   -4.3003    5.6511 H   0  0  0  0  0  0  0  0  0  0  0  0
    6.9362   -3.7138    5.4966 H   0  0  0  0  0  0  0  0  0  0  0  0
    6.2756   -2.0778    5.8333 H   0  0  0  0  0  0  0  0  0  0  0  0
    6.0247   -3.4083    7.0138 H   0  0  0  0  0  0  0  0  0  0  0  0
  1  3  1  0  0  0  0
  1  7  1  0  0  0  0
  1  2  2  0  0  0  0
 30 31  1  0  0  0  0
 31 39  1  0  0  0  0
 31 32  2  0  0  0  0
  8  9  1  0  0  0  0
  9 17  1  0  0  0  0
  9 10  2  0  0  0  0
 18 19  1  0  0  0  0
 19 29  1  0  0  0  0
 19 20  2  0  0  0  0
 21 22  1  0  0  0  0
 22 23  1  0  0  0  0
 22 24  2  0  0  0  0
 30 33  1  0  0  0  0
  8 11  1  0  0  0  0
 39 40  1  0  0  0  0
 18 21  1  0  0  0  0
 29 30  1  0  0  0  0
  7  8  1  0  0  0  0
 17 18  1  0  0  0  0
  3  4  1  0  0  0  0
  3  5  1  0  0  0  0
  3  6  1  0  0  0  0
 33 36  1  0  0  0  0
 33 37  1  0  0  0  0
 33 38  1  0  0  0  0
 11 14  1  0  0  0  0
 11 15  1  0  0  0  0
 11 16  1  0  0  0  0
 40 42  1  0  0  0  0
 40 43  1  0  0  0  0
 40 44  1  0  0  0  0
 21 27  1  0  0  0  0
 21 28  1  0  0  0  0
 30 35  1  0  0  0  0
  8 13  1  0  0  0  0
 18 26  1  0  0  0  0
 39 41  1  0  0  0  0
  7 12  1  0  0  0  0
 29 34  1  0  0  0  0
 17 25  1  0  0  0  0
M  CHG  1  23  -1
M  END
$$$$

  -OEChem-05262214473D

 44 43  0     1  0  0  0  0  0999 V2000
   -4.0256   -1.8030   -2.1581 C   0  0  0  0  0  0  0  0  0  0  0  0
   -3.7513   -2.6782   -2.9709 O   0  0  0  0  0  0  0  0  0  0  0  0
   -5.3491   -1.1169   -2.2339 C   0  0  0  0  0  0  0  0  0  0  0  0
   -5.3223   -0.2211   -2.8750 H   0  0  0  0  0  0  0  0  0  0  0  0
   -6.1322   -1.7605   -2.6658 H   0  0  0  0  0  0  0  0  0  0  0  0
   -5.7568   -0.7715   -1.2704 H   0  0  0  0  0  0  0  0  0  0  0  0
   -3.2124   -1.3578   -1.1289 N   0  0  0  0  0  0  0  0  0  0  0  0
   -1.8971   -1.8843   -0.8752 C   0  0  2  0  0  0  0  0  0  0  0  0
   -1.2676   -1.0599    0.2399 C   0  0  0  0  0  0  0  0  0  0  0  0
   -1.6270    0.0833    0.5138 O   0  0  0  0  0  0  0  0  0  0  0  0
   -1.0364   -1.8506   -2.1285 C   0  0  0  0  0  0  0  0  0  0  0  0
   -3.5631   -0.6202   -0.5206 H   0  0  0  0  0  0  0  0  0  0  0  0
   -2.0301   -2.9174   -0.5360 H   0  0  0  0  0  0  0  0  0  0  0  0
   -0.8921   -0.8236   -2.4833 H   0  0  0  0  0  0  0  0  0  0  0  0
   -0.0457   -2.2777   -1.9410 H   0  0  0  0  0  0  0  0  0  0  0  0
   -1.5052   -2.4193   -2.9387 H   0  0  0  0  0  0  0  0  0  0  0  0
   -0.2267   -1.7335    0.8672 N   0  0  0  0  0  0  0  0  0  0  0  0
    0.5363   -1.1590    1.9465 C   0  0  2  0  0  0  0  0  0  0  0  0
    0.9981   -2.3095    2.8335 C   0  0  0  0  0  0  0  0  0  0  0  0
    0.2697   -3.2491    3.1461 O   0  0  0  0  0  0  0  0  0  0  0  0
   -0.2866   -0.1570    2.7529 C   0  0  0  0  0  0  0  0  0  0  0  0
   -0.6530    1.1526    2.0428 C   0  0  0  0  0  0  0  0  0  0  0  0
    0.1836    1.5158    1.1659 O   0  5  0  0  0  0  0  0  0  0  0  0
   -1.7203    1.7154    2.4103 O   0  0  0  0  0  0  0  0  0  0  0  0
   -0.0113   -2.6869    0.5854 H   0  0  0  0  0  0  0  0  0  0  0  0
    1.4114   -0.6795    1.4936 H   0  0  0  0  0  0  0  0  0  0  0  0
    0.2469    0.0991    3.6785 H   0  0  0  0  0  0  0  0  0  0  0  0
   -1.2346   -0.6186    3.0588 H   0  0  0  0  0  0  0  0  0  0  0  0
    2.3337   -2.1889    3.1911 N   0  0  0  0  0  0  0  0  0  0  0  0
    3.0174   -3.1686    4.0030 C   0  0  2  0  0  0  0  0  0  0  0  0
    4.0845   -2.4452    4.8139 C   0  0  0  0  0  0  0  0  0  0  0  0
    4.5570   -1.3595    4.4835 O   0  0  0  0  0  0  0  0  0  0  0  0
    3.6346   -4.2634    3.1468 C   0  0  0  0  0  0  0  0  0  0  0  0
    2.8737   -1.4006    2.8464 H   0  0  0  0  0  0  0  0  0  0  0  0
    2.2697   -3.5952    4.6805 H   0  0  0  0  0  0  0  0  0  0  0  0
    4.3862   -3.8549    2.4614 H   0  0  0  0  0  0  0  0  0  0  0  0
    4.1279   -5.0203    3.7654 H   0  0  0  0  0  0  0  0  0  0  0  0
    2.8699   -4.7627    2.5420 H   0  0  0  0  0  0  0  0  0  0  0  0
    4.4781   -3.1747    5.9270 N   0  0  0  0  0  0  0  0  0  0  0  0
    5.4872   -2.7074    6.8486 C   0  0  0  0  0  0  0  0  0  0  0  0
    4.0190   -4.0568    6.1343 H   0  0  0  0  0  0  0  0  0  0  0  0
    6.4707   -3.0938    6.5431 H   0  0  0  0  0  0  0  0  0  0  0  0
    5.5076   -1.6076    6.8430 H   0  0  0  0  0  0  0  0  0  0  0  0
    5.2517   -3.0646    7.8620 H   0  0  0  0  0  0  0  0  0  0  0  0
  1  3  1  0  0  0  0
  1  7  1  0  0  0  0
  1  2  2  0  0  0  0
 30 31  1  0  0  0  0
 31 39  1  0  0  0  0
 31 32  2  0  0  0  0
  8  9  1  0  0  0  0
  9 17  1  0  0  0  0
  9 10  2  0  0  0  0
 18 19  1  0  0  0  0
 19 29  1  0  0  0  0
 19 20  2  0  0  0  0
 21 22  1  0  0  0  0
 22 23  1  0  0  0  0
 22 24  2  0  0  0  0
 30 33  1  0  0  0  0
  8 11  1  0  0  0  0
 39 40  1  0  0  0  0
 18 21  1  0  0  0  0
 29 30  1  0  0  0  0
  7  8  1  0  0  0  0
 17 18  1  0  0  0  0
  3  4  1  0  0  0  0
  3  5  1  0  0  0  0
  3  6  1  0  0  0  0
 33 36  1  0  0  0  0
 33 37  1  0  0  0  0
 33 38  1  0  0  0  0
 11 14  1  0  0  0  0
 11 15  1  0  0  0  0
 11 16  1  0  0  0  0
 40 42  1  0  0  0  0
 40 43  1  0  0  0  0
 40 44  1  0  0  0  0
 21 27  1  0  0  0  0
 21 28  1  0  0  0  0
 30 35  1  0  0  0  0
  8 13  1  0  0  0  0
 18 26  1  0  0  0  0
 39 41  1  0  0  0  0
  7 12  1  0  0  0  0
 29 34  1  0  0  0  0
 17 25  1  0  0  0  0
M  CHG  1  23  -1
M  END
$$$$

  -OEChem-05262214473D

 44 43  0     1  0  0  0  0  0999 V2000
   -4.0256   -1.8030   -2.1581 C   0  0  0  0  0  0  0  0  0  0  0  0
   -3.7513   -2.6782   -2.9709 O   0  0  0  0  0  0  0  0  0  0  0  0
   -5.3491   -1.1169   -2.2339 C   0  0  0  0  0  0  0  0  0  0  0  0
   -5.3223   -0.2211   -2.8750 H   0  0  0  0  0  0  0  0  0  0  0  0
   -6.1322   -1.7605   -2.6658 H   0  0  0  0  0  0  0  0  0  0  0  0
   -5.7568   -0.7715   -1.2704 H   0  0  0  0  0  0  0  0  0  0  0  0
   -3.2124   -1.3578   -1.1289 N   0  0  0  0  0  0  0  0  0  0  0  0
   -1.8971   -1.8843   -0.8752 C   0  0  2  0  0  0  0  0  0  0  0  0
   -1.2676   -1.0599    0.2399 C   0  0  0  0  0  0  0  0  0  0  0  0
   -1.6270    0.0833    0.5138 O   0  0  0  0  0  0  0  0  0  0  0  0
   -1.0364   -1.8506   -2.1285 C   0  0  0  0  0  0  0  0  0  0  0  0
   -3.5631   -0.6202   -0.5206 H   0  0  0  0  0  0  0  0  0  0  0  0
   -2.0301   -2.9174   -0.5360 H   0  0  0  0  0  0  0  0  0  0  0  0
   -0.8921   -0.8236   -2.4833 H   0  0  0  0  0  0  0  0  0  0  0  0
   -0.0457   -2.2777   -1.9410 H   0  0  0  0  0  0  0  0  0  0  0  0
   -1.5052   -2.4193   -2.9387 H   0  0  0  0  0  0  0  0  0  0  0  0
   -0.2267   -1.7335    0.8672 N   0  0  0  0  0  0  0  0  0  0  0  0
    0.5363   -1.1590    1.9465 C   0  0  2  0  0  0  0  0  0  0  0  0
    0.9981   -2.3095    2.8335 C   0  0  0  0  0  0  0  0  0  0  0  0
    0.3818   -3.3686    2.9328 O   0  0  0  0  0  0  0  0  0  0  0  0
   -0.2866   -0.1570    2.7529 C   0  0  0  0  0  0  0  0  0  0  0  0
   -0.6530    1.1526    2.0428 C   0  0  0  0  0  0  0  0  0  0  0  0
    0.1836    1.5158    1.1659 O   0  5  0  0  0  0  0  0  0  0  0  0
   -1.7203    1.7154    2.4103 O   0  0  0  0  0  0  0  0  0  0  0  0
   -0.0113   -2.6869    0.5854 H   0  0  0  0  0  0  0  0  0  0  0  0
    1.4114   -0.6795    1.4936 H   0  0  0  0  0  0  0  0  0  0  0  0
    0.2469    0.0991    3.6785 H   0  0  0  0  0  0  0  0  0  0  0  0
   -1.2346   -0.6186    3.0588 H   0  0  0  0  0  0  0  0  0  0  0  0
    2.2056   -2.0333    3.4596 N   0  0  0  0  0  0  0  0  0  0  0  0
    2.8696   -2.9768    4.3288 C   0  0  2  0  0  0  0  0  0  0  0  0
    3.6355   -2.1873    5.3821 C   0  0  0  0  0  0  0  0  0  0  0  0
    3.9840   -1.0192    5.2232 O   0  0  0  0  0  0  0  0  0  0  0  0
    3.8032   -3.8874    3.5466 C   0  0  0  0  0  0  0  0  0  0  0  0
    2.6692   -1.1473    3.2815 H   0  0  0  0  0  0  0  0  0  0  0  0
    2.0844   -3.5672    4.8134 H   0  0  0  0  0  0  0  0  0  0  0  0
    4.5966   -3.3136    3.0540 H   0  0  0  0  0  0  0  0  0  0  0  0
    4.2840   -4.6205    4.2026 H   0  0  0  0  0  0  0  0  0  0  0  0
    3.2558   -4.4322    2.7698 H   0  0  0  0  0  0  0  0  0  0  0  0
    3.9217   -2.9539    6.5031 N   0  0  0  0  0  0  0  0  0  0  0  0
    4.6511   -2.4354    7.6367 C   0  0  0  0  0  0  0  0  0  0  0  0
    3.5773   -3.9079    6.5573 H   0  0  0  0  0  0  0  0  0  0  0  0
    5.7232   -2.6471    7.5116 H   0  0  0  0  0  0  0  0  0  0  0  0
    4.4977   -1.3483    7.7052 H   0  0  0  0  0  0  0  0  0  0  0  0
    4.2876   -2.9156    8.5572 H   0  0  0  0  0  0  0  0  0  0  0  0
  1  3  1  0  0  0  0
  1  7  1  0  0  0  0
  1  2  2  0  0  0  0
 30 31  1  0  0  0  0
 31 39  1  0  0  0  0
 31 32  2  0  0  0  0
  8  9  1  0  0  0  0
  9 17  1  0  0  0  0
  9 10  2  0  0  0  0
 18 19  1  0  0  0  0
 19 29  1  0  0  0  0
 19 20  2  0  0  0  0
 21 22  1  0  0  0  0
 22 23  1  0  0  0  0
 22 24  2  0  0  0  0
 30 33  1  0  0  0  0
  8 11  1  0  0  0  0
 39 40  1  0  0  0  0
 18 21  1  0  0  0  0
 29 30  1  0  0  0  0
  7  8  1  0  0  0  0
 17 18  1  0  0  0  0
  3  4  1  0  0  0  0
  3  5  1  0  0  0  0
  3  6  1  0  0  0  0
 33 36  1  0  0  0  0
 33 37  1  0  0  0  0
 33 38  1  0  0  0  0
 11 14  1  0  0  0  0
 11 15  1  0  0  0  0
 11 16  1  0  0  0  0
 40 42  1  0  0  0  0
 40 43  1  0  0  0  0
 40 44  1  0  0  0  0
 21 27  1  0  0  0  0
 21 28  1  0  0  0  0
 30 35  1  0  0  0  0
  8 13  1  0  0  0  0
 18 26  1  0  0  0  0
 39 41  1  0  0  0  0
  7 12  1  0  0  0  0
 29 34  1  0  0  0  0
 17 25  1  0  0  0  0
M  CHG  1  23  -1
M  END
$$$$

  -OEChem-05262214473D

 44 43  0     1  0  0  0  0  0999 V2000
   -4.0256   -1.8030   -2.1581 C   0  0  0  0  0  0  0  0  0  0  0  0
   -3.7513   -2.6782   -2.9709 O   0  0  0  0  0  0  0  0  0  0  0  0
   -5.3491   -1.1169   -2.2339 C   0  0  0  0  0  0  0  0  0  0  0  0
   -5.3223   -0.2211   -2.8750 H   0  0  0  0  0  0  0  0  0  0  0  0
   -6.1322   -1.7605   -2.6658 H   0  0  0  0  0  0  0  0  0  0  0  0
   -5.7568   -0.7715   -1.2704 H   0  0  0  0  0  0  0  0  0  0  0  0
   -3.2124   -1.3578   -1.1289 N   0  0  0  0  0  0  0  0  0  0  0  0
   -1.8971   -1.8843   -0.8752 C   0  0  2  0  0  0  0  0  0  0  0  0
   -1.2676   -1.0599    0.2399 C   0  0  0  0  0  0  0  0  0  0  0  0
   -1.6270    0.0833    0.5138 O   0  0  0  0  0  0  0  0  0  0  0  0
   -1.0364   -1.8506   -2.1285 C   0  0  0  0  0  0  0  0  0  0  0  0
   -3.5631   -0.6202   -0.5206 H   0  0  0  0  0  0  0  0  0  0  0  0
   -2.0301   -2.9174   -0.5360 H   0  0  0  0  0  0  0  0  0  0  0  0
   -0.8921   -0.8236   -2.4833 H   0  0  0  0  0  0  0  0  0  0  0  0
   -0.0457   -2.2777   -1.9410 H   0  0  0  0  0  0  0  0  0  0  0  0
   -1.5052   -2.4193   -2.9387 H   0  0  0  0  0  0  0  0  0  0  0  0
   -0.2267   -1.7335    0.8672 N   0  0  0  0  0  0  0  0  0  0  0  0
    0.5363   -1.1590    1.9465 C   0  0  2  0  0  0  0  0  0  0  0  0
    0.9981   -2.3095    2.8335 C   0  0  0  0  0  0  0  0  0  0  0  0
    0.5499   -3.4503    2.7393 O   0  0  0  0  0  0  0  0  0  0  0  0
   -0.2866   -0.1570    2.7529 C   0  0  0  0  0  0  0  0  0  0  0  0
   -0.6530    1.1526    2.0428 C   0  0  0  0  0  0  0  0  0  0  0  0
    0.1836    1.5158    1.1659 O   0  5  0  0  0  0  0  0  0  0  0  0
   -1.7203    1.7154    2.4103 O   0  0  0  0  0  0  0  0  0  0  0  0
   -0.0113   -2.6869    0.5854 H   0  0  0  0  0  0  0  0  0  0  0  0
    1.4114   -0.6795    1.4936 H   0  0  0  0  0  0  0  0  0  0  0  0
    0.2469    0.0991    3.6785 H   0  0  0  0  0  0  0  0  0  0  0  0
   -1.2346   -0.6186    3.0588 H   0  0  0  0  0  0  0  0  0  0  0  0
    2.0059   -1.9234    3.7062 N   0  0  0  0  0  0  0  0  0  0  0  0
    2.6343   -2.8393    4.6296 C   0  0  2  0  0  0  0  0  0  0  0  0
    3.0520   -2.0504    5.8635 C   0  0  0  0  0  0  0  0  0  0  0  0
    3.2348   -0.8349    5.8524 O   0  0  0  0  0  0  0  0  0  0  0  0
    3.8313   -3.5303    3.9952 C   0  0  0  0  0  0  0  0  0  0  0  0
    2.3486   -0.9675    3.6816 H   0  0  0  0  0  0  0  0  0  0  0  0
    1.8751   -3.5785    4.9077 H   0  0  0  0  0  0  0  0  0  0  0  0
    4.6026   -2.8056    3.7099 H   0  0  0  0  0  0  0  0  0  0  0  0
    4.2892   -4.2452    4.6867 H   0  0  0  0  0  0  0  0  0  0  0  0
    3.5342   -4.0727    3.0911 H   0  0  0  0  0  0  0  0  0  0  0  0
    3.2385   -2.8695    6.9682 N   0  0  0  0  0  0  0  0  0  0  0  0
    3.6486   -2.3603    8.2560 C   0  0  0  0  0  0  0  0  0  0  0  0
    3.0457   -3.8638    6.8912 H   0  0  0  0  0  0  0  0  0  0  0  0
    4.7448   -2.4041    8.3362 H   0  0  0  0  0  0  0  0  0  0  0  0
    3.3148   -1.3174    8.3610 H   0  0  0  0  0  0  0  0  0  0  0  0
    3.1981   -2.9713    9.0521 H   0  0  0  0  0  0  0  0  0  0  0  0
  1  3  1  0  0  0  0
  1  7  1  0  0  0  0
  1  2  2  0  0  0  0
 30 31  1  0  0  0  0
 31 39  1  0  0  0  0
 31 32  2  0  0  0  0
  8  9  1  0  0  0  0
  9 17  1  0  0  0  0
  9 10  2  0  0  0  0
 18 19  1  0  0  0  0
 19 29  1  0  0  0  0
 19 20  2  0  0  0  0
 21 22  1  0  0  0  0
 22 23  1  0  0  0  0
 22 24  2  0  0  0  0
 30 33  1  0  0  0  0
  8 11  1  0  0  0  0
 39 40  1  0  0  0  0
 18 21  1  0  0  0  0
 29 30  1  0  0  0  0
  7  8  1  0  0  0  0
 17 18  1  0  0  0  0
  3  4  1  0  0  0  0
  3  5  1  0  0  0  0
  3  6  1  0  0  0  0
 33 36  1  0  0  0  0
 33 37  1  0  0  0  0
 33 38  1  0  0  0  0
 11 14  1  0  0  0  0
 11 15  1  0  0  0  0
 11 16  1  0  0  0  0
 40 42  1  0  0  0  0
 40 43  1  0  0  0  0
 40 44  1  0  0  0  0
 21 27  1  0  0  0  0
 21 28  1  0  0  0  0
 30 35  1  0  0  0  0
  8 13  1  0  0  0  0
 18 26  1  0  0  0  0
 39 41  1  0  0  0  0
  7 12  1  0  0  0  0
 29 34  1  0  0  0  0
 17 25  1  0  0  0  0
M  CHG  1  23  -1
M  END
$$$$

  -OEChem-05262214473D

 44 43  0     1  0  0  0  0  0999 V2000
   -4.0256   -1.8030   -2.1581 C   0  0  0  0  0  0  0  0  0  0  0  0
   -3.7513   -2.6782   -2.9709 O   0  0  0  0  0  0  0  0  0  0  0  0
   -5.3491   -1.1169   -2.2339 C   0  0  0  0  0  0  0  0  0  0  0  0
   -5.3223   -0.2211   -2.8750 H   0  0  0  0  0  0  0  0  0  0  0  0
   -6.1322   -1.7605   -2.6658 H   0  0  0  0  0  0  0  0  0  0  0  0
   -5.7568   -0.7715   -1.2704 H   0  0  0  0  0  0  0  0  0  0  0  0
   -3.2124   -1.3578   -1.1289 N   0  0  0  0  0  0  0  0  0  0  0  0
   -1.8971   -1.8843   -0.8752 C   0  0  2  0  0  0  0  0  0  0  0  0
   -1.2676   -1.0599    0.2399 C   0  0  0  0  0  0  0  0  0  0  0  0
   -1.6270    0.0833    0.5138 O   0  0  0  0  0  0  0  0  0  0  0  0
   -1.0364   -1.8506   -2.1285 C   0  0  0  0  0  0  0  0  0  0  0  0
   -3.5631   -0.6202   -0.5206 H   0  0  0  0  0  0  0  0  0  0  0  0
   -2.0301   -2.9174   -0.5360 H   0  0  0  0  0  0  0  0  0  0  0  0
   -0.8921   -0.8236   -2.4833 H   0  0  0  0  0  0  0  0  0  0  0  0
   -0.0457   -2.2777   -1.9410 H   0  0  0  0  0  0  0  0  0  0  0  0
   -1.5052   -2.4193   -2.9387 H   0  0  0  0  0  0  0  0  0  0  0  0
   -0.2267   -1.7335    0.8672 N   0  0  0  0  0  0  0  0  0  0  0  0
    0.5363   -1.1590    1.9465 C   0  0  2  0  0  0  0  0  0  0  0  0
    1.3050   -2.2962    2.6095 C   0  0  0  0  0  0  0  0  0  0  0  0
    1.2654   -3.4568    2.2062 O   0  0  0  0  0  0  0  0  0  0  0  0
   -0.3594   -0.4534    2.9621 C   0  0  0  0  0  0  0  0  0  0  0  0
   -1.0440    0.8350    2.4883 C   0  0  0  0  0  0  0  0  0  0  0  0
   -0.3980    1.4673    1.6029 O   0  5  0  0  0  0  0  0  0  0  0  0
   -2.1473    1.1206    3.0287 O   0  0  0  0  0  0  0  0  0  0  0  0
   -0.0113   -2.6869    0.5854 H   0  0  0  0  0  0  0  0  0  0  0  0
    1.2476   -0.4599    1.4925 H   0  0  0  0  0  0  0  0  0  0  0  0
    0.2213   -0.2149    3.8637 H   0  0  0  0  0  0  0  0  0  0  0  0
   -1.1622   -1.1312    3.2804 H   0  0  0  0  0  0  0  0  0  0  0  0
    2.0802   -1.8522    3.6716 N   0  0  0  0  0  0  0  0  0  0  0  0
    2.9263   -2.7322    4.4438 C   0  0  2  0  0  0  0  0  0  0  0  0
    2.9930   -2.1918    5.8662 C   0  0  0  0  0  0  0  0  0  0  0  0
    2.7635   -1.0178    6.1492 O   0  0  0  0  0  0  0  0  0  0  0  0
    4.3165   -2.8369    3.8364 C   0  0  0  0  0  0  0  0  0  0  0  0
    2.0880   -0.8637    3.9052 H   0  0  0  0  0  0  0  0  0  0  0  0
    2.4409   -3.7142    4.4481 H   0  0  0  0  0  0  0  0  0  0  0  0
    4.8184   -1.8626    3.8236 H   0  0  0  0  0  0  0  0  0  0  0  0
    4.9477   -3.5264    4.4066 H   0  0  0  0  0  0  0  0  0  0  0  0
    4.2643   -3.1975    2.8034 H   0  0  0  0  0  0  0  0  0  0  0  0
    3.3812   -3.1648    6.7765 N   0  0  0  0  0  0  0  0  0  0  0  0
    3.5304   -2.8970    8.1878 C   0  0  0  0  0  0  0  0  0  0  0  0
    3.5327   -4.1168    6.4561 H   0  0  0  0  0  0  0  0  0  0  0  0
    4.5734   -2.6198    8.4007 H   0  0  0  0  0  0  0  0  0  0  0  0
    2.8651   -2.0698    8.4763 H   0  0  0  0  0  0  0  0  0  0  0  0
    3.2659   -3.7973    8.7618 H   0  0  0  0  0  0  0  0  0  0  0  0
  1  3  1  0  0  0  0
  1  7  1  0  0  0  0
  1  2  2  0  0  0  0
 30 31  1  0  0  0  0
 31 39  1  0  0  0  0
 31 32  2  0  0  0  0
  8  9  1  0  0  0  0
  9 17  1  0  0  0  0
  9 10  2  0  0  0  0
 18 19  1  0  0  0  0
 19 29  1  0  0  0  0
 19 20  2  0  0  0  0
 21 22  1  0  0  0  0
 22 23  1  0  0  0  0
 22 24  2  0  0  0  0
 30 33  1  0  0  0  0
  8 11  1  0  0  0  0
 39 40  1  0  0  0  0
 18 21  1  0  0  0  0
 29 30  1  0  0  0  0
  7  8  1  0  0  0  0
 17 18  1  0  0  0  0
  3  4  1  0  0  0  0
  3  5  1  0  0  0  0
  3  6  1  0  0  0  0
 33 36  1  0  0  0  0
 33 37  1  0  0  0  0
 33 38  1  0  0  0  0
 11 14  1  0  0  0  0
 11 15  1  0  0  0  0
 11 16  1  0  0  0  0
 40 42  1  0  0  0  0
 40 43  1  0  0  0  0
 40 44  1  0  0  0  0
 21 27  1  0  0  0  0
 21 28  1  0  0  0  0
 30 35  1  0  0  0  0
  8 13  1  0  0  0  0
 18 26  1  0  0  0  0
 39 41  1  0  0  0  0
  7 12  1  0  0  0  0
 29 34  1  0  0  0  0
 17 25  1  0  0  0  0
M  CHG  1  23  -1
M  END
$$$$

  -OEChem-05262214473D

 44 43  0     1  0  0  0  0  0999 V2000
   -4.0256   -1.8030   -2.1581 C   0  0  0  0  0  0  0  0  0  0  0  0
   -3.7513   -2.6782   -2.9709 O   0  0  0  0  0  0  0  0  0  0  0  0
   -5.3491   -1.1169   -2.2339 C   0  0  0  0  0  0  0  0  0  0  0  0
   -5.3223   -0.2211   -2.8750 H   0  0  0  0  0  0  0  0  0  0  0  0
   -6.1322   -1.7605   -2.6658 H   0  0  0  0  0  0  0  0  0  0  0  0
   -5.7568   -0.7715   -1.2704 H   0  0  0  0  0  0  0  0  0  0  0  0
   -3.2124   -1.3578   -1.1289 N   0  0  0  0  0  0  0  0  0  0  0  0
   -1.8971   -1.8843   -0.8752 C   0  0  2  0  0  0  0  0  0  0  0  0
   -1.2676   -1.0599    0.2399 C   0  0  0  0  0  0  0  0  0  0  0  0
   -1.6270    0.0833    0.5138 O   0  0  0  0  0  0  0  0  0  0  0  0
   -1.0364   -1.8506   -2.1285 C   0  0  0  0  0  0  0  0  0  0  0  0
   -3.5631   -0.6202   -0.5206 H   0  0  0  0  0  0  0  0  0  0  0  0
   -2.0301   -2.9174   -0.5360 H   0  0  0  0  0  0  0  0  0  0  0  0
   -0.8921   -0.8236   -2.4833 H   0  0  0  0  0  0  0  0  0  0  0  0
   -0.0457   -2.2777   -1.9410 H   0  0  0  0  0  0  0  0  0  0  0  0
   -1.5052   -2.4193   -2.9387 H   0  0  0  0  0  0  0  0  0  0  0  0
   -0.2267   -1.7335    0.8672 N   0  0  0  0  0  0  0  0  0  0  0  0
    0.5363   -1.1590    1.9465 C   0  0  2  0  0  0  0  0  0  0  0  0
    1.3050   -2.2962    2.6095 C   0  0  0  0  0  0  0  0  0  0  0  0
    1.4868   -3.3861    2.0707 O   0  0  0  0  0  0  0  0  0  0  0  0
   -0.3594   -0.4534    2.9621 C   0  0  0  0  0  0  0  0  0  0  0  0
   -1.0440    0.8350    2.4883 C   0  0  0  0  0  0  0  0  0  0  0  0
   -0.3980    1.4673    1.6029 O   0  5  0  0  0  0  0  0  0  0  0  0
   -2.1473    1.1206    3.0287 O   0  0  0  0  0  0  0  0  0  0  0  0
   -0.0113   -2.6869    0.5854 H   0  0  0  0  0  0  0  0  0  0  0  0
    1.2476   -0.4599    1.4925 H   0  0  0  0  0  0  0  0  0  0  0  0
    0.2213   -0.2149    3.8637 H   0  0  0  0  0  0  0  0  0  0  0  0
   -1.1622   -1.1312    3.2804 H   0  0  0  0  0  0  0  0  0  0  0  0
    1.8077   -1.9320    3.8508 N   0  0  0  0  0  0  0  0  0  0  0  0
    2.5993   -2.8236    4.6662 C   0  0  2  0  0  0  0  0  0  0  0  0
    2.3326   -2.4860    6.1272 C   0  0  0  0  0  0  0  0  0  0  0  0
    1.9091   -1.3927    6.4966 O   0  0  0  0  0  0  0  0  0  0  0  0
    4.0800   -2.7020    4.3419 C   0  0  0  0  0  0  0  0  0  0  0  0
    1.6480   -0.9907    4.1976 H   0  0  0  0  0  0  0  0  0  0  0  0
    2.2486   -3.8398    4.4557 H   0  0  0  0  0  0  0  0  0  0  0  0
    4.4494   -1.6905    4.5465 H   0  0  0  0  0  0  0  0  0  0  0  0
    4.6759   -3.3989    4.9406 H   0  0  0  0  0  0  0  0  0  0  0  0
    4.2661   -2.9161    3.2839 H   0  0  0  0  0  0  0  0  0  0  0  0
    2.6639   -3.5345    6.9740 N   0  0  0  0  0  0  0  0  0  0  0  0
    2.5138   -3.4556    8.4083 C   0  0  0  0  0  0  0  0  0  0  0  0
    2.9904   -4.4116    6.5792 H   0  0  0  0  0  0  0  0  0  0  0  0
    3.4560   -3.1088    8.8576 H   0  0  0  0  0  0  0  0  0  0  0  0
    1.7082   -2.7481    8.6541 H   0  0  0  0  0  0  0  0  0  0  0  0
    2.2624   -4.4500    8.8058 H   0  0  0  0  0  0  0  0  0  0  0  0
  1  3  1  0  0  0  0
  1  7  1  0  0  0  0
  1  2  2  0  0  0  0
 30 31  1  0  0  0  0
 31 39  1  0  0  0  0
 31 32  2  0  0  0  0
  8  9  1  0  0  0  0
  9 17  1  0  0  0  0
  9 10  2  0  0  0  0
 18 19  1  0  0  0  0
 19 29  1  0  0  0  0
 19 20  2  0  0  0  0
 21 22  1  0  0  0  0
 22 23  1  0  0  0  0
 22 24  2  0  0  0  0
 30 33  1  0  0  0  0
  8 11  1  0  0  0  0
 39 40  1  0  0  0  0
 18 21  1  0  0  0  0
 29 30  1  0  0  0  0
  7  8  1  0  0  0  0
 17 18  1  0  0  0  0
  3  4  1  0  0  0  0
  3  5  1  0  0  0  0
  3  6  1  0  0  0  0
 33 36  1  0  0  0  0
 33 37  1  0  0  0  0
 33 38  1  0  0  0  0
 11 14  1  0  0  0  0
 11 15  1  0  0  0  0
 11 16  1  0  0  0  0
 40 42  1  0  0  0  0
 40 43  1  0  0  0  0
 40 44  1  0  0  0  0
 21 27  1  0  0  0  0
 21 28  1  0  0  0  0
 30 35  1  0  0  0  0
  8 13  1  0  0  0  0
 18 26  1  0  0  0  0
 39 41  1  0  0  0  0
  7 12  1  0  0  0  0
 29 34  1  0  0  0  0
 17 25  1  0  0  0  0
M  CHG  1  23  -1
M  END
$$$$

  -OEChem-05262214473D

 44 43  0     1  0  0  0  0  0999 V2000
   -4.0256   -1.8030   -2.1581 C   0  0  0  0  0  0  0  0  0  0  0  0
   -3.7513   -2.6782   -2.9709 O   0  0  0  0  0  0  0  0  0  0  0  0
   -5.3491   -1.1169   -2.2339 C   0  0  0  0  0  0  0  0  0  0  0  0
   -5.3223   -0.2211   -2.8750 H   0  0  0  0  0  0  0  0  0  0  0  0
   -6.1322   -1.7605   -2.6658 H   0  0  0  0  0  0  0  0  0  0  0  0
   -5.7568   -0.7715   -1.2704 H   0  0  0  0  0  0  0  0  0  0  0  0
   -3.2124   -1.3578   -1.1289 N   0  0  0  0  0  0  0  0  0  0  0  0
   -1.8971   -1.8843   -0.8752 C   0  0  2  0  0  0  0  0  0  0  0  0
   -1.2676   -1.0599    0.2399 C   0  0  0  0  0  0  0  0  0  0  0  0
   -1.6270    0.0833    0.5138 O   0  0  0  0  0  0  0  0  0  0  0  0
   -1.0364   -1.8506   -2.1285 C   0  0  0  0  0  0  0  0  0  0  0  0
   -3.5631   -0.6202   -0.5206 H   0  0  0  0  0  0  0  0  0  0  0  0
   -2.0301   -2.9174   -0.5360 H   0  0  0  0  0  0  0  0  0  0  0  0
   -0.8921   -0.8236   -2.4833 H   0  0  0  0  0  0  0  0  0  0  0  0
   -0.0457   -2.2777   -1.9410 H   0  0  0  0  0  0  0  0  0  0  0  0
   -1.5052   -2.4193   -2.9387 H   0  0  0  0  0  0  0  0  0  0  0  0
   -0.2267   -1.7335    0.8672 N   0  0  0  0  0  0  0  0  0  0  0  0
    0.5363   -1.1590    1.9465 C   0  0  2  0  0  0  0  0  0  0  0  0
    1.3050   -2.2962    2.6095 C   0  0  0  0  0  0  0  0  0  0  0  0
    1.7188   -3.2752    1.9918 O   0  0  0  0  0  0  0  0  0  0  0  0
   -0.3594   -0.4534    2.9621 C   0  0  0  0  0  0  0  0  0  0  0  0
   -1.0440    0.8350    2.4883 C   0  0  0  0  0  0  0  0  0  0  0  0
   -0.3980    1.4673    1.6029 O   0  5  0  0  0  0  0  0  0  0  0  0
   -2.1473    1.1206    3.0287 O   0  0  0  0  0  0  0  0  0  0  0  0
   -0.0113   -2.6869    0.5854 H   0  0  0  0  0  0  0  0  0  0  0  0
    1.2476   -0.4599    1.4925 H   0  0  0  0  0  0  0  0  0  0  0  0
    0.2213   -0.2149    3.8637 H   0  0  0  0  0  0  0  0  0  0  0  0
   -1.1622   -1.1312    3.2804 H   0  0  0  0  0  0  0  0  0  0  0  0
    1.5189   -2.0631    3.9609 N   0  0  0  0  0  0  0  0  0  0  0  0
    2.2508   -2.9777    4.8060 C   0  0  2  0  0  0  0  0  0  0  0  0
    1.6774   -2.8787    6.2134 C   0  0  0  0  0  0  0  0  0  0  0  0
    1.0590   -1.8964    6.6183 O   0  0  0  0  0  0  0  0  0  0  0  0
    3.7389   -2.6643    4.8021 C   0  0  0  0  0  0  0  0  0  0  0  0
    1.1808   -1.2010    4.3785 H   0  0  0  0  0  0  0  0  0  0  0  0
    2.0755   -3.9837    4.4096 H   0  0  0  0  0  0  0  0  0  0  0  0
    3.9341   -1.6602    5.1959 H   0  0  0  0  0  0  0  0  0  0  0  0
    4.2958   -3.3760    5.4205 H   0  0  0  0  0  0  0  0  0  0  0  0
    4.1434   -2.7068    3.7850 H   0  0  0  0  0  0  0  0  0  0  0  0
    1.9746   -3.9982    6.9780 N   0  0  0  0  0  0  0  0  0  0  0  0
    1.5521   -4.1385    8.3520 C   0  0  0  0  0  0  0  0  0  0  0  0
    2.4760   -4.7735    6.5548 H   0  0  0  0  0  0  0  0  0  0  0  0
    2.3435   -3.7665    9.0193 H   0  0  0  0  0  0  0  0  0  0  0  0
    0.6327   -3.5568    8.5140 H   0  0  0  0  0  0  0  0  0  0  0  0
    1.3581   -5.1992    8.5693 H   0  0  0  0  0  0  0  0  0  0  0  0
  1  3  1  0  0  0  0
  1  7  1  0  0  0  0
  1  2  2  0  0  0  0
 30 31  1  0  0  0  0
 31 39  1  0  0  0  0
 31 32  2  0  0  0  0
  8  9  1  0  0  0  0
  9 17  1  0  0  0  0
  9 10  2  0  0  0  0
 18 19  1  0  0  0  0
 19 29  1  0  0  0  0
 19 20  2  0  0  0  0
 21 22  1  0  0  0  0
 22 23  1  0  0  0  0
 22 24  2  0  0  0  0
 30 33  1  0  0  0  0
  8 11  1  0  0  0  0
 39 40  1  0  0  0  0
 18 21  1  0  0  0  0
 29 30  1  0  0  0  0
  7  8  1  0  0  0  0
 17 18  1  0  0  0  0
  3  4  1  0  0  0  0
  3  5  1  0  0  0  0
  3  6  1  0  0  0  0
 33 36  1  0  0  0  0
 33 37  1  0  0  0  0
 33 38  1  0  0  0  0
 11 14  1  0  0  0  0
 11 15  1  0  0  0  0
 11 16  1  0  0  0  0
 40 42  1  0  0  0  0
 40 43  1  0  0  0  0
 40 44  1  0  0  0  0
 21 27  1  0  0  0  0
 21 28  1  0  0  0  0
 30 35  1  0  0  0  0
  8 13  1  0  0  0  0
 18 26  1  0  0  0  0
 39 41  1  0  0  0  0
  7 12  1  0  0  0  0
 29 34  1  0  0  0  0
 17 25  1  0  0  0  0
M  CHG  1  23  -1
M  END
$$$$

  -OEChem-05262214473D

 44 43  0     1  0  0  0  0  0999 V2000
   -4.0256   -1.8030   -2.1581 C   0  0  0  0  0  0  0  0  0  0  0  0
   -3.7513   -2.6782   -2.9709 O   0  0  0  0  0  0  0  0  0  0  0  0
   -5.3491   -1.1169   -2.2339 C   0  0  0  0  0  0  0  0  0  0  0  0
   -5.3223   -0.2211   -2.8750 H   0  0  0  0  0  0  0  0  0  0  0  0
   -6.1322   -1.7605   -2.6658 H   0  0  0  0  0  0  0  0  0  0  0  0
   -5.7568   -0.7715   -1.2704 H   0  0  0  0  0  0  0  0  0  0  0  0
   -3.2124   -1.3578   -1.1289 N   0  0  0  0  0  0  0  0  0  0  0  0
   -1.8971   -1.8843   -0.8752 C   0  0  2  0  0  0  0  0  0  0  0  0
   -1.2676   -1.0599    0.2399 C   0  0  0  0  0  0  0  0  0  0  0  0
   -1.6270    0.0833    0.5138 O   0  0  0  0  0  0  0  0  0  0  0  0
   -1.0364   -1.8506   -2.1285 C   0  0  0  0  0  0  0  0  0  0  0  0
   -3.5631   -0.6202   -0.5206 H   0  0  0  0  0  0  0  0  0  0  0  0
   -2.0301   -2.9174   -0.5360 H   0  0  0  0  0  0  0  0  0  0  0  0
   -0.8921   -0.8236   -2.4833 H   0  0  0  0  0  0  0  0  0  0  0  0
   -0.0457   -2.2777   -1.9410 H   0  0  0  0  0  0  0  0  0  0  0  0
   -1.5052   -2.4193   -2.9387 H   0  0  0  0  0  0  0  0  0  0  0  0
   -0.2267   -1.7335    0.8672 N   0  0  0  0  0  0  0  0  0  0  0  0
    0.5363   -1.1590    1.9465 C   0  0  2  0  0  0  0  0  0  0  0  0
    1.3050   -2.2962    2.6095 C   0  0  0  0  0  0  0  0  0  0  0  0
    1.9457   -3.1317    1.9749 O   0  0  0  0  0  0  0  0  0  0  0  0
   -0.3594   -0.4534    2.9621 C   0  0  0  0  0  0  0  0  0  0  0  0
   -1.0440    0.8350    2.4883 C   0  0  0  0  0  0  0  0  0  0  0  0
   -0.3980    1.4673    1.6029 O   0  5  0  0  0  0  0  0  0  0  0  0
   -2.1473    1.1206    3.0287 O   0  0  0  0  0  0  0  0  0  0  0  0
   -0.0113   -2.6869    0.5854 H   0  0  0  0  0  0  0  0  0  0  0  0
    1.2476   -0.4599    1.4925 H   0  0  0  0  0  0  0  0  0  0  0  0
    0.2213   -0.2149    3.8637 H   0  0  0  0  0  0  0  0  0  0  0  0
   -1.1622   -1.1312    3.2804 H   0  0  0  0  0  0  0  0  0  0  0  0
    1.2334   -2.2366    3.9943 N   0  0  0  0  0  0  0  0  0  0  0  0
    1.9045   -3.1840    4.8536 C   0  0  2  0  0  0  0  0  0  0  0  0
    1.0720   -3.3429    6.1190 C   0  0  0  0  0  0  0  0  0  0  0  0
    0.2711   -2.4945    6.5060 O   0  0  0  0  0  0  0  0  0  0  0  0
    3.3162   -2.7264    5.1857 C   0  0  0  0  0  0  0  0  0  0  0  0
    0.7183   -1.4804    4.4355 H   0  0  0  0  0  0  0  0  0  0  0  0
    1.9334   -4.1362    4.3128 H   0  0  0  0  0  0  0  0  0  0  0  0
    3.3075   -1.7737    5.7277 H   0  0  0  0  0  0  0  0  0  0  0  0
    3.8335   -3.4593    5.8137 H   0  0  0  0  0  0  0  0  0  0  0  0
    3.9046   -2.5839    4.2728 H   0  0  0  0  0  0  0  0  0  0  0  0
    1.3601   -4.5241    6.7883 N   0  0  0  0  0  0  0  0  0  0  0  0
    0.7110   -4.8990    8.0228 C   0  0  0  0  0  0  0  0  0  0  0  0
    2.0246   -5.1778    6.3847 H   0  0  0  0  0  0  0  0  0  0  0  0
    1.3118   -4.5481    8.8748 H   0  0  0  0  0  0  0  0  0  0  0  0
   -0.2881   -4.4408    8.0654 H   0  0  0  0  0  0  0  0  0  0  0  0
    0.6145   -5.9938    8.0685 H   0  0  0  0  0  0  0  0  0  0  0  0
  1  3  1  0  0  0  0
  1  7  1  0  0  0  0
  1  2  2  0  0  0  0
 30 31  1  0  0  0  0
 31 39  1  0  0  0  0
 31 32  2  0  0  0  0
  8  9  1  0  0  0  0
  9 17  1  0  0  0  0
  9 10  2  0  0  0  0
 18 19  1  0  0  0  0
 19 29  1  0  0  0  0
 19 20  2  0  0  0  0
 21 22  1  0  0  0  0
 22 23  1  0  0  0  0
 22 24  2  0  0  0  0
 30 33  1  0  0  0  0
  8 11  1  0  0  0  0
 39 40  1  0  0  0  0
 18 21  1  0  0  0  0
 29 30  1  0  0  0  0
  7  8  1  0  0  0  0
 17 18  1  0  0  0  0
  3  4  1  0  0  0  0
  3  5  1  0  0  0  0
  3  6  1  0  0  0  0
 33 36  1  0  0  0  0
 33 37  1  0  0  0  0
 33 38  1  0  0  0  0
 11 14  1  0  0  0  0
 11 15  1  0  0  0  0
 11 16  1  0  0  0  0
 40 42  1  0  0  0  0
 40 43  1  0  0  0  0
 40 44  1  0  0  0  0
 21 27  1  0  0  0  0
 21 28  1  0  0  0  0
 30 35  1  0  0  0  0
  8 13  1  0  0  0  0
 18 26  1  0  0  0  0
 39 41  1  0  0  0  0
  7 12  1  0  0  0  0
 29 34  1  0  0  0  0
 17 25  1  0  0  0  0
M  CHG  1  23  -1
M  END
$$$$

  -OEChem-05262214473D

 44 43  0     1  0  0  0  0  0999 V2000
   -4.0256   -1.8030   -2.1581 C   0  0  0  0  0  0  0  0  0  0  0  0
   -3.7513   -2.6782   -2.9709 O   0  0  0  0  0  0  0  0  0  0  0  0
   -5.3491   -1.1169   -2.2339 C   0  0  0  0  0  0  0  0  0  0  0  0
   -5.3223   -0.2211   -2.8750 H   0  0  0  0  0  0  0  0  0  0  0  0
   -6.1322   -1.7605   -2.6658 H   0  0  0  0  0  0  0  0  0  0  0  0
   -5.7568   -0.7715   -1.2704 H   0  0  0  0  0  0  0  0  0  0  0  0
   -3.2124   -1.3578   -1.1289 N   0  0  0  0  0  0  0  0  0  0  0  0
   -1.8971   -1.8843   -0.8752 C   0  0  2  0  0  0  0  0  0  0  0  0
   -1.2676   -1.0599    0.2399 C   0  0  0  0  0  0  0  0  0  0  0  0
   -1.6270    0.0833    0.5138 O   0  0  0  0  0  0  0  0  0  0  0  0
   -1.0364   -1.8506   -2.1285 C   0  0  0  0  0  0  0  0  0  0  0  0
   -3.5631   -0.6202   -0.5206 H   0  0  0  0  0  0  0  0  0  0  0  0
   -2.0301   -2.9174   -0.5360 H   0  0  0  0  0  0  0  0  0  0  0  0
   -0.8921   -0.8236   -2.4833 H   0  0  0  0  0  0  0  0  0  0  0  0
   -0.0457   -2.2777   -1.9410 H   0  0  0  0  0  0  0  0  0  0  0  0
   -1.5052   -2.4193   -2.9387 H   0  0  0  0  0  0  0  0  0  0  0  0
   -0.2267   -1.7335    0.8672 N   0  0  0  0  0  0  0  0  0  0  0  0
    0.5363   -1.1590    1.9465 C   0  0  2  0  0  0  0  0  0  0  0  0
    1.3050   -2.2962    2.6095 C   0  0  0  0  0  0  0  0  0  0  0  0
    2.1520   -2.9654    2.0212 O   0  0  0  0  0  0  0  0  0  0  0  0
   -0.3594   -0.4534    2.9621 C   0  0  0  0  0  0  0  0  0  0  0  0
   -1.0440    0.8350    2.4883 C   0  0  0  0  0  0  0  0  0  0  0  0
   -0.3980    1.4673    1.6029 O   0  5  0  0  0  0  0  0  0  0  0  0
   -2.1473    1.1206    3.0287 O   0  0  0  0  0  0  0  0  0  0  0  0
   -0.0113   -2.6869    0.5854 H   0  0  0  0  0  0  0  0  0  0  0  0
    1.2476   -0.4599    1.4925 H   0  0  0  0  0  0  0  0  0  0  0  0
    0.2213   -0.2149    3.8637 H   0  0  0  0  0  0  0  0  0  0  0  0
   -1.1622   -1.1312    3.2804 H   0  0  0  0  0  0  0  0  0  0  0  0
    0.9707   -2.4407    3.9488 N   0  0  0  0  0  0  0  0  0  0  0  0
    1.5840   -3.4285    4.8058 C   0  0  2  0  0  0  0  0  0  0  0  0
    0.5578   -3.8472    5.8503 C   0  0  0  0  0  0  0  0  0  0  0  0
   -0.4010   -3.1463    6.1673 O   0  0  0  0  0  0  0  0  0  0  0  0
    2.8409   -2.8840    5.4665 C   0  0  0  0  0  0  0  0  0  0  0  0
    0.2920   -1.8098    4.3649 H   0  0  0  0  0  0  0  0  0  0  0  0
    1.8320   -4.2868    4.1720 H   0  0  0  0  0  0  0  0  0  0  0  0
    2.6123   -2.0233    6.1056 H   0  0  0  0  0  0  0  0  0  0  0  0
    3.3203   -3.6431    6.0933 H   0  0  0  0  0  0  0  0  0  0  0  0
    3.5659   -2.5557    4.7138 H   0  0  0  0  0  0  0  0  0  0  0  0
    0.8624   -5.0765    6.4178 N   0  0  0  0  0  0  0  0  0  0  0  0
    0.0477   -5.6853    7.4432 C   0  0  0  0  0  0  0  0  0  0  0  0
    1.6669   -5.5970    6.0805 H   0  0  0  0  0  0  0  0  0  0  0  0
    0.4311   -5.4004    8.4341 H   0  0  0  0  0  0  0  0  0  0  0  0
   -0.9914   -5.3397    7.3390 H   0  0  0  0  0  0  0  0  0  0  0  0
    0.0825   -6.7796    7.3375 H   0  0  0  0  0  0  0  0  0  0  0  0
  1  3  1  0  0  0  0
  1  7  1  0  0  0  0
  1  2  2  0  0  0  0
 30 31  1  0  0  0  0
 31 39  1  0  0  0  0
 31 32  2  0  0  0  0
  8  9  1  0  0  0  0
  9 17  1  0  0  0  0
  9 10  2  0  0  0  0
 18 19  1  0  0  0  0
 19 29  1  0  0  0  0
 19 20  2  0  0  0  0
 21 22  1  0  0  0  0
 22 23  1  0  0  0  0
 22 24  2  0  0  0  0
 30 33  1  0  0  0  0
  8 11  1  0  0  0  0
 39 40  1  0  0  0  0
 18 21  1  0  0  0  0
 29 30  1  0  0  0  0
  7  8  1  0  0  0  0
 17 18  1  0  0  0  0
  3  4  1  0  0  0  0
  3  5  1  0  0  0  0
  3  6  1  0  0  0  0
 33 36  1  0  0  0  0
 33 37  1  0  0  0  0
 33 38  1  0  0  0  0
 11 14  1  0  0  0  0
 11 15  1  0  0  0  0
 11 16  1  0  0  0  0
 40 42  1  0  0  0  0
 40 43  1  0  0  0  0
 40 44  1  0  0  0  0
 21 27  1  0  0  0  0
 21 28  1  0  0  0  0
 30 35  1  0  0  0  0
  8 13  1  0  0  0  0
 18 26  1  0  0  0  0
 39 41  1  0  0  0  0
  7 12  1  0  0  0  0
 29 34  1  0  0  0  0
 17 25  1  0  0  0  0
M  CHG  1  23  -1
M  END
$$$$

  -OEChem-05262214473D

 44 43  0     1  0  0  0  0  0999 V2000
   -4.0256   -1.8030   -2.1581 C   0  0  0  0  0  0  0  0  0  0  0  0
   -3.7513   -2.6782   -2.9709 O   0  0  0  0  0  0  0  0  0  0  0  0
   -5.3491   -1.1169   -2.2339 C   0  0  0  0  0  0  0  0  0  0  0  0
   -5.3223   -0.2211   -2.8750 H   0  0  0  0  0  0  0  0  0  0  0  0
   -6.1322   -1.7605   -2.6658 H   0  0  0  0  0  0  0  0  0  0  0  0
   -5.7568   -0.7715   -1.2704 H   0  0  0  0  0  0  0  0  0  0  0  0
   -3.2124   -1.3578   -1.1289 N   0  0  0  0  0  0  0  0  0  0  0  0
   -1.8971   -1.8843   -0.8752 C   0  0  2  0  0  0  0  0  0  0  0  0
   -1.2676   -1.0599    0.2399 C   0  0  0  0  0  0  0  0  0  0  0  0
   -1.6270    0.0833    0.5138 O   0  0  0  0  0  0  0  0  0  0  0  0
   -1.0364   -1.8506   -2.1285 C   0  0  0  0  0  0  0  0  0  0  0  0
   -3.5631   -0.6202   -0.5206 H   0  0  0  0  0  0  0  0  0  0  0  0
   -2.0301   -2.9174   -0.5360 H   0  0  0  0  0  0  0  0  0  0  0  0
   -0.8921   -0.8236   -2.4833 H   0  0  0  0  0  0  0  0  0  0  0  0
   -0.0457   -2.2777   -1.9410 H   0  0  0  0  0  0  0  0  0  0  0  0
   -1.5052   -2.4193   -2.9387 H   0  0  0  0  0  0  0  0  0  0  0  0
   -0.2267   -1.7335    0.8672 N   0  0  0  0  0  0  0  0  0  0  0  0
    0.5363   -1.1590    1.9465 C   0  0  2  0  0  0  0  0  0  0  0  0
    1.3050   -2.2962    2.6095 C   0  0  0  0  0  0  0  0  0  0  0  0
    2.3235   -2.7875    2.1274 O   0  0  0  0  0  0  0  0  0  0  0  0
   -0.3594   -0.4534    2.9621 C   0  0  0  0  0  0  0  0  0  0  0  0
   -1.0440    0.8350    2.4883 C   0  0  0  0  0  0  0  0  0  0  0  0
   -0.3980    1.4673    1.6029 O   0  5  0  0  0  0  0  0  0  0  0  0
   -2.1473    1.1206    3.0287 O   0  0  0  0  0  0  0  0  0  0  0  0
   -0.0113   -2.6869    0.5854 H   0  0  0  0  0  0  0  0  0  0  0  0
    1.2476   -0.4599    1.4925 H   0  0  0  0  0  0  0  0  0  0  0  0
    0.2213   -0.2149    3.8637 H   0  0  0  0  0  0  0  0  0  0  0  0
   -1.1622   -1.1312    3.2804 H   0  0  0  0  0  0  0  0  0  0  0  0
    0.7487   -2.6614    3.8275 N   0  0  0  0  0  0  0  0  0  0  0  0
    1.3113   -3.6944    4.6658 C   0  0  2  0  0  0  0  0  0  0  0  0
    0.1697   -4.3571    5.4256 C   0  0  0  0  0  0  0  0  0  0  0  0
   -0.9114   -3.8073    5.6253 O   0  0  0  0  0  0  0  0  0  0  0  0
    2.3453   -3.1263    5.6254 C   0  0  0  0  0  0  0  0  0  0  0  0
   -0.0691   -2.1667    4.1713 H   0  0  0  0  0  0  0  0  0  0  0  0
    1.7782   -4.4254    3.9967 H   0  0  0  0  0  0  0  0  0  0  0  0
    1.8959   -2.3920    6.3038 H   0  0  0  0  0  0  0  0  0  0  0  0
    2.7914   -3.9149    6.2404 H   0  0  0  0  0  0  0  0  0  0  0  0
    3.1504   -2.6242    5.0781 H   0  0  0  0  0  0  0  0  0  0  0  0
    0.5155   -5.6178    5.8916 N   0  0  0  0  0  0  0  0  0  0  0  0
   -0.3926   -6.4438    6.6526 C   0  0  0  0  0  0  0  0  0  0  0  0
    1.4273   -6.0024    5.6629 H   0  0  0  0  0  0  0  0  0  0  0  0
   -0.2386   -6.2652    7.7271 H   0  0  0  0  0  0  0  0  0  0  0  0
   -1.4293   -6.1923    6.3842 H   0  0  0  0  0  0  0  0  0  0  0  0
   -0.2019   -7.5032    6.4261 H   0  0  0  0  0  0  0  0  0  0  0  0
  1  3  1  0  0  0  0
  1  7  1  0  0  0  0
  1  2  2  0  0  0  0
 30 31  1  0  0  0  0
 31 39  1  0  0  0  0
 31 32  2  0  0  0  0
  8  9  1  0  0  0  0
  9 17  1  0  0  0  0
  9 10  2  0  0  0  0
 18 19  1  0  0  0  0
 19 29  1  0  0  0  0
 19 20  2  0  0  0  0
 21 22  1  0  0  0  0
 22 23  1  0  0  0  0
 22 24  2  0  0  0  0
 30 33  1  0  0  0  0
  8 11  1  0  0  0  0
 39 40  1  0  0  0  0
 18 21  1  0  0  0  0
 29 30  1  0  0  0  0
  7  8  1  0  0  0  0
 17 18  1  0  0  0  0
  3  4  1  0  0  0  0
  3  5  1  0  0  0  0
  3  6  1  0  0  0  0
 33 36  1  0  0  0  0
 33 37  1  0  0  0  0
 33 38  1  0  0  0  0
 11 14  1  0  0  0  0
 11 15  1  0  0  0  0
 11 16  1  0  0  0  0
 40 42  1  0  0  0  0
 40 43  1  0  0  0  0
 40 44  1  0  0  0  0
 21 27  1  0  0  0  0
 21 28  1  0  0  0  0
 30 35  1  0  0  0  0
  8 13  1  0  0  0  0
 18 26  1  0  0  0  0
 39 41  1  0  0  0  0
  7 12  1  0  0  0  0
 29 34  1  0  0  0  0
 17 25  1  0  0  0  0
M  CHG  1  23  -1
M  END
$$$$

  -OEChem-05262214473D

 44 43  0     1  0  0  0  0  0999 V2000
   -4.0256   -1.8030   -2.1581 C   0  0  0  0  0  0  0  0  0  0  0  0
   -3.7513   -2.6782   -2.9709 O   0  0  0  0  0  0  0  0  0  0  0  0
   -5.3491   -1.1169   -2.2339 C   0  0  0  0  0  0  0  0  0  0  0  0
   -5.3223   -0.2211   -2.8750 H   0  0  0  0  0  0  0  0  0  0  0  0
   -6.1322   -1.7605   -2.6658 H   0  0  0  0  0  0  0  0  0  0  0  0
   -5.7568   -0.7715   -1.2704 H   0  0  0  0  0  0  0  0  0  0  0  0
   -3.2124   -1.3578   -1.1289 N   0  0  0  0  0  0  0  0  0  0  0  0
   -1.8971   -1.8843   -0.8752 C   0  0  2  0  0  0  0  0  0  0  0  0
   -1.2676   -1.0599    0.2399 C   0  0  0  0  0  0  0  0  0  0  0  0
   -1.6270    0.0833    0.5138 O   0  0  0  0  0  0  0  0  0  0  0  0
   -1.0364   -1.8506   -2.1285 C   0  0  0  0  0  0  0  0  0  0  0  0
   -3.5631   -0.6202   -0.5206 H   0  0  0  0  0  0  0  0  0  0  0  0
   -2.0301   -2.9174   -0.5360 H   0  0  0  0  0  0  0  0  0  0  0  0
   -0.8921   -0.8236   -2.4833 H   0  0  0  0  0  0  0  0  0  0  0  0
   -0.0457   -2.2777   -1.9410 H   0  0  0  0  0  0  0  0  0  0  0  0
   -1.5052   -2.4193   -2.9387 H   0  0  0  0  0  0  0  0  0  0  0  0
   -0.2267   -1.7335    0.8672 N   0  0  0  0  0  0  0  0  0  0  0  0
    0.5363   -1.1590    1.9465 C   0  0  2  0  0  0  0  0  0  0  0  0
    1.3050   -2.2962    2.6095 C   0  0  0  0  0  0  0  0  0  0  0  0
    2.4487   -2.6102    2.2863 O   0  0  0  0  0  0  0  0  0  0  0  0
   -0.3594   -0.4534    2.9621 C   0  0  0  0  0  0  0  0  0  0  0  0
   -1.0440    0.8350    2.4883 C   0  0  0  0  0  0  0  0  0  0  0  0
   -0.3980    1.4673    1.6029 O   0  5  0  0  0  0  0  0  0  0  0  0
   -2.1473    1.1206    3.0287 O   0  0  0  0  0  0  0  0  0  0  0  0
   -0.0113   -2.6869    0.5854 H   0  0  0  0  0  0  0  0  0  0  0  0
    1.2476   -0.4599    1.4925 H   0  0  0  0  0  0  0  0  0  0  0  0
    0.2213   -0.2149    3.8637 H   0  0  0  0  0  0  0  0  0  0  0  0
   -1.1622   -1.1312    3.2804 H   0  0  0  0  0  0  0  0  0  0  0  0
    0.5826   -2.8838    3.6386 N   0  0  0  0  0  0  0  0  0  0  0  0
    1.1048   -3.9638    4.4432 C   0  0  2  0  0  0  0  0  0  0  0  0
   -0.0657   -4.8379    4.8739 C   0  0  0  0  0  0  0  0  0  0  0  0
   -1.2254   -4.4325    4.9169 O   0  0  0  0  0  0  0  0  0  0  0  0
    1.8632   -3.4370    5.6515 C   0  0  0  0  0  0  0  0  0  0  0  0
   -0.3403   -2.5268    3.8681 H   0  0  0  0  0  0  0  0  0  0  0  0
    1.7757   -4.5424    3.7989 H   0  0  0  0  0  0  0  0  0  0  0  0
    1.2072   -2.8546    6.3088 H   0  0  0  0  0  0  0  0  0  0  0  0
    2.2826   -4.2562    6.2448 H   0  0  0  0  0  0  0  0  0  0  0  0
    2.6864   -2.7846    5.3408 H   0  0  0  0  0  0  0  0  0  0  0  0
    0.3428   -6.1110    5.2458 N   0  0  0  0  0  0  0  0  0  0  0  0
   -0.5799   -7.1228    5.7050 C   0  0  0  0  0  0  0  0  0  0  0  0
    1.3222   -6.3664    5.1603 H   0  0  0  0  0  0  0  0  0  0  0  0
   -0.6516   -7.0838    6.8020 H   0  0  0  0  0  0  0  0  0  0  0  0
   -1.5719   -6.9406    5.2661 H   0  0  0  0  0  0  0  0  0  0  0  0
   -0.2191   -8.1151    5.3964 H   0  0  0  0  0  0  0  0  0  0  0  0
  1  3  1  0  0  0  0
  1  7  1  0  0  0  0
  1  2  2  0  0  0  0
 30 31  1  0  0  0  0
 31 39  1  0  0  0  0
 31 32  2  0  0  0  0
  8  9  1  0  0  0  0
  9 17  1  0  0  0  0
  9 10  2  0  0  0  0
 18 19  1  0  0  0  0
 19 29  1  0  0  0  0
 19 20  2  0  0  0  0
 21 22  1  0  0  0  0
 22 23  1  0  0  0  0
 22 24  2  0  0  0  0
 30 33  1  0  0  0  0
  8 11  1  0  0  0  0
 39 40  1  0  0  0  0
 18 21  1  0  0  0  0
 29 30  1  0  0  0  0
  7  8  1  0  0  0  0
 17 18  1  0  0  0  0
  3  4  1  0  0  0  0
  3  5  1  0  0  0  0
  3  6  1  0  0  0  0
 33 36  1  0  0  0  0
 33 37  1  0  0  0  0
 33 38  1  0  0  0  0
 11 14  1  0  0  0  0
 11 15  1  0  0  0  0
 11 16  1  0  0  0  0
 40 42  1  0  0  0  0
 40 43  1  0  0  0  0
 40 44  1  0  0  0  0
 21 27  1  0  0  0  0
 21 28  1  0  0  0  0
 30 35  1  0  0  0  0
  8 13  1  0  0  0  0
 18 26  1  0  0  0  0
 39 41  1  0  0  0  0
  7 12  1  0  0  0  0
 29 34  1  0  0  0  0
 17 25  1  0  0  0  0
M  CHG  1  23  -1
M  END
$$$$

  -OEChem-05262214473D

 44 43  0     1  0  0  0  0  0999 V2000
   -4.0256   -1.8030   -2.1581 C   0  0  0  0  0  0  0  0  0  0  0  0
   -3.7513   -2.6782   -2.9709 O   0  0  0  0  0  0  0  0  0  0  0  0
   -5.3491   -1.1169   -2.2339 C   0  0  0  0  0  0  0  0  0  0  0  0
   -5.3223   -0.2211   -2.8750 H   0  0  0  0  0  0  0  0  0  0  0  0
   -6.1322   -1.7605   -2.6658 H   0  0  0  0  0  0  0  0  0  0  0  0
   -5.7568   -0.7715   -1.2704 H   0  0  0  0  0  0  0  0  0  0  0  0
   -3.2124   -1.3578   -1.1289 N   0  0  0  0  0  0  0  0  0  0  0  0
   -1.8971   -1.8843   -0.8752 C   0  0  2  0  0  0  0  0  0  0  0  0
   -1.2676   -1.0599    0.2399 C   0  0  0  0  0  0  0  0  0  0  0  0
   -1.6270    0.0833    0.5138 O   0  0  0  0  0  0  0  0  0  0  0  0
   -1.0364   -1.8506   -2.1285 C   0  0  0  0  0  0  0  0  0  0  0  0
   -3.5631   -0.6202   -0.5206 H   0  0  0  0  0  0  0  0  0  0  0  0
   -2.0301   -2.9174   -0.5360 H   0  0  0  0  0  0  0  0  0  0  0  0
   -0.8921   -0.8236   -2.4833 H   0  0  0  0  0  0  0  0  0  0  0  0
   -0.0457   -2.2777   -1.9410 H   0  0  0  0  0  0  0  0  0  0  0  0
   -1.5052   -2.4193   -2.9387 H   0  0  0  0  0  0  0  0  0  0  0  0
   -0.2267   -1.7335    0.8672 N   0  0  0  0  0  0  0  0  0  0  0  0
    0.5363   -1.1590    1.9465 C   0  0  2  0  0  0  0  0  0  0  0  0
    1.3050   -2.2962    2.6095 C   0  0  0  0  0  0  0  0  0  0  0  0
    2.5190   -2.4456    2.4871 O   0  0  0  0  0  0  0  0  0  0  0  0
   -0.3594   -0.4534    2.9621 C   0  0  0  0  0  0  0  0  0  0  0  0
   -1.0440    0.8350    2.4883 C   0  0  0  0  0  0  0  0  0  0  0  0
   -0.3980    1.4673    1.6029 O   0  5  0  0  0  0  0  0  0  0  0  0
   -2.1473    1.1206    3.0287 O   0  0  0  0  0  0  0  0  0  0  0  0
   -0.0113   -2.6869    0.5854 H   0  0  0  0  0  0  0  0  0  0  0  0
    1.2476   -0.4599    1.4925 H   0  0  0  0  0  0  0  0  0  0  0  0
    0.2213   -0.2149    3.8637 H   0  0  0  0  0  0  0  0  0  0  0  0
   -1.1622   -1.1312    3.2804 H   0  0  0  0  0  0  0  0  0  0  0  0
    0.4836   -3.0927    3.3951 N   0  0  0  0  0  0  0  0  0  0  0  0
    0.9786   -4.2182    4.1532 C   0  0  2  0  0  0  0  0  0  0  0  0
   -0.1325   -5.2568    4.2328 C   0  0  0  0  0  0  0  0  0  0  0  0
   -1.3215   -4.9793    4.0905 O   0  0  0  0  0  0  0  0  0  0  0  0
    1.4274   -3.7947    5.5431 C   0  0  0  0  0  0  0  0  0  0  0  0
   -0.5032   -2.8656    3.4758 H   0  0  0  0  0  0  0  0  0  0  0  0
    1.8246   -4.6299    3.5922 H   0  0  0  0  0  0  0  0  0  0  0  0
    0.5931   -3.3796    6.1203 H   0  0  0  0  0  0  0  0  0  0  0  0
    1.8288   -4.6437    6.1063 H   0  0  0  0  0  0  0  0  0  0  0  0
    2.2056   -3.0261    5.4841 H   0  0  0  0  0  0  0  0  0  0  0  0
    0.3563   -6.5226    4.5243 N   0  0  0  0  0  0  0  0  0  0  0  0
   -0.5013   -7.6762    4.6649 C   0  0  0  0  0  0  0  0  0  0  0  0
    1.3587   -6.6643    4.6071 H   0  0  0  0  0  0  0  0  0  0  0  0
   -0.7797   -7.8001    5.7218 H   0  0  0  0  0  0  0  0  0  0  0  0
   -1.4095   -7.5335    4.0609 H   0  0  0  0  0  0  0  0  0  0  0  0
    0.0320   -8.5738    4.3186 H   0  0  0  0  0  0  0  0  0  0  0  0
  1  3  1  0  0  0  0
  1  7  1  0  0  0  0
  1  2  2  0  0  0  0
 30 31  1  0  0  0  0
 31 39  1  0  0  0  0
 31 32  2  0  0  0  0
  8  9  1  0  0  0  0
  9 17  1  0  0  0  0
  9 10  2  0  0  0  0
 18 19  1  0  0  0  0
 19 29  1  0  0  0  0
 19 20  2  0  0  0  0
 21 22  1  0  0  0  0
 22 23  1  0  0  0  0
 22 24  2  0  0  0  0
 30 33  1  0  0  0  0
  8 11  1  0  0  0  0
 39 40  1  0  0  0  0
 18 21  1  0  0  0  0
 29 30  1  0  0  0  0
  7  8  1  0  0  0  0
 17 18  1  0  0  0  0
  3  4  1  0  0  0  0
  3  5  1  0  0  0  0
  3  6  1  0  0  0  0
 33 36  1  0  0  0  0
 33 37  1  0  0  0  0
 33 38  1  0  0  0  0
 11 14  1  0  0  0  0
 11 15  1  0  0  0  0
 11 16  1  0  0  0  0
 40 42  1  0  0  0  0
 40 43  1  0  0  0  0
 40 44  1  0  0  0  0
 21 27  1  0  0  0  0
 21 28  1  0  0  0  0
 30 35  1  0  0  0  0
  8 13  1  0  0  0  0
 18 26  1  0  0  0  0
 39 41  1  0  0  0  0
  7 12  1  0  0  0  0
 29 34  1  0  0  0  0
 17 25  1  0  0  0  0
M  CHG  1  23  -1
M  END
$$$$

  -OEChem-05262214473D

 44 43  0     1  0  0  0  0  0999 V2000
   -4.0256   -1.8030   -2.1581 C   0  0  0  0  0  0  0  0  0  0  0  0
   -3.7513   -2.6782   -2.9709 O   0  0  0  0  0  0  0  0  0  0  0  0
   -5.3491   -1.1169   -2.2339 C   0  0  0  0  0  0  0  0  0  0  0  0
   -5.3223   -0.2211   -2.8750 H   0  0  0  0  0  0  0  0  0  0  0  0
   -6.1322   -1.7605   -2.6658 H   0  0  0  0  0  0  0  0  0  0  0  0
   -5.7568   -0.7715   -1.2704 H   0  0  0  0  0  0  0  0  0  0  0  0
   -3.2124   -1.3578   -1.1289 N   0  0  0  0  0  0  0  0  0  0  0  0
   -1.8971   -1.8843   -0.8752 C   0  0  2  0  0  0  0  0  0  0  0  0
   -1.2676   -1.0599    0.2399 C   0  0  0  0  0  0  0  0  0  0  0  0
   -1.6270    0.0833    0.5138 O   0  0  0  0  0  0  0  0  0  0  0  0
   -1.0364   -1.8506   -2.1285 C   0  0  0  0  0  0  0  0  0  0  0  0
   -3.5631   -0.6202   -0.5206 H   0  0  0  0  0  0  0  0  0  0  0  0
   -2.0301   -2.9174   -0.5360 H   0  0  0  0  0  0  0  0  0  0  0  0
   -0.8921   -0.8236   -2.4833 H   0  0  0  0  0  0  0  0  0  0  0  0
   -0.0457   -2.2777   -1.9410 H   0  0  0  0  0  0  0  0  0  0  0  0
   -1.5052   -2.4193   -2.9387 H   0  0  0  0  0  0  0  0  0  0  0  0
   -0.2267   -1.7335    0.8672 N   0  0  0  0  0  0  0  0  0  0  0  0
    0.5363   -1.1590    1.9465 C   0  0  2  0  0  0  0  0  0  0  0  0
    1.3050   -2.2962    2.6095 C   0  0  0  0  0  0  0  0  0  0  0  0
    2.5296   -2.3049    2.7161 O   0  0  0  0  0  0  0  0  0  0  0  0
   -0.3594   -0.4534    2.9621 C   0  0  0  0  0  0  0  0  0  0  0  0
   -1.0440    0.8350    2.4883 C   0  0  0  0  0  0  0  0  0  0  0  0
   -0.3980    1.4673    1.6029 O   0  5  0  0  0  0  0  0  0  0  0  0
   -2.1473    1.1206    3.0287 O   0  0  0  0  0  0  0  0  0  0  0  0
   -0.0113   -2.6869    0.5854 H   0  0  0  0  0  0  0  0  0  0  0  0
    1.2476   -0.4599    1.4925 H   0  0  0  0  0  0  0  0  0  0  0  0
    0.2213   -0.2149    3.8637 H   0  0  0  0  0  0  0  0  0  0  0  0
   -1.1622   -1.1312    3.2804 H   0  0  0  0  0  0  0  0  0  0  0  0
    0.4585   -3.2738    3.1136 N   0  0  0  0  0  0  0  0  0  0  0  0
    0.9414   -4.4402    3.8155 C   0  0  2  0  0  0  0  0  0  0  0  0
   -0.0260   -5.5852    3.5460 C   0  0  0  0  0  0  0  0  0  0  0  0
   -1.1932   -5.4104    3.2023 O   0  0  0  0  0  0  0  0  0  0  0  0
    1.0677   -4.1752    5.3076 C   0  0  0  0  0  0  0  0  0  0  0  0
   -0.5466   -3.1600    3.0212 H   0  0  0  0  0  0  0  0  0  0  0  0
    1.9216   -4.6819    3.3904 H   0  0  0  0  0  0  0  0  0  0  0  0
    0.0954   -3.9313    5.7511 H   0  0  0  0  0  0  0  0  0  0  0  0
    1.4608   -5.0510    5.8343 H   0  0  0  0  0  0  0  0  0  0  0  0
    1.7407   -3.3322    5.4981 H   0  0  0  0  0  0  0  0  0  0  0  0
    0.5549   -6.8244    3.7763 N   0  0  0  0  0  0  0  0  0  0  0  0
   -0.1623   -8.0660    3.6032 C   0  0  0  0  0  0  0  0  0  0  0  0
    1.5343   -6.8758    4.0408 H   0  0  0  0  0  0  0  0  0  0  0  0
   -0.6143   -8.3655    4.5603 H   0  0  0  0  0  0  0  0  0  0  0  0
   -0.9533   -7.9306    2.8508 H   0  0  0  0  0  0  0  0  0  0  0  0
    0.5343   -8.8479    3.2662 H   0  0  0  0  0  0  0  0  0  0  0  0
  1  3  1  0  0  0  0
  1  7  1  0  0  0  0
  1  2  2  0  0  0  0
 30 31  1  0  0  0  0
 31 39  1  0  0  0  0
 31 32  2  0  0  0  0
  8  9  1  0  0  0  0
  9 17  1  0  0  0  0
  9 10  2  0  0  0  0
 18 19  1  0  0  0  0
 19 29  1  0  0  0  0
 19 20  2  0  0  0  0
 21 22  1  0  0  0  0
 22 23  1  0  0  0  0
 22 24  2  0  0  0  0
 30 33  1  0  0  0  0
  8 11  1  0  0  0  0
 39 40  1  0  0  0  0
 18 21  1  0  0  0  0
 29 30  1  0  0  0  0
  7  8  1  0  0  0  0
 17 18  1  0  0  0  0
  3  4  1  0  0  0  0
  3  5  1  0  0  0  0
  3  6  1  0  0  0  0
 33 36  1  0  0  0  0
 33 37  1  0  0  0  0
 33 38  1  0  0  0  0
 11 14  1  0  0  0  0
 11 15  1  0  0  0  0
 11 16  1  0  0  0  0
 40 42  1  0  0  0  0
 40 43  1  0  0  0  0
 40 44  1  0  0  0  0
 21 27  1  0  0  0  0
 21 28  1  0  0  0  0
 30 35  1  0  0  0  0
  8 13  1  0  0  0  0
 18 26  1  0  0  0  0
 39 41  1  0  0  0  0
  7 12  1  0  0  0  0
 29 34  1  0  0  0  0
 17 25  1  0  0  0  0
M  CHG  1  23  -1
M  END
$$$$

  -OEChem-05262214473D

 44 43  0     1  0  0  0  0  0999 V2000
   -4.0256   -1.8030   -2.1581 C   0  0  0  0  0  0  0  0  0  0  0  0
   -3.7513   -2.6782   -2.9709 O   0  0  0  0  0  0  0  0  0  0  0  0
   -5.3491   -1.1169   -2.2339 C   0  0  0  0  0  0  0  0  0  0  0  0
   -5.3223   -0.2211   -2.8750 H   0  0  0  0  0  0  0  0  0  0  0  0
   -6.1322   -1.7605   -2.6658 H   0  0  0  0  0  0  0  0  0  0  0  0
   -5.7568   -0.7715   -1.2704 H   0  0  0  0  0  0  0  0  0  0  0  0
   -3.2124   -1.3578   -1.1289 N   0  0  0  0  0  0  0  0  0  0  0  0
   -1.8971   -1.8843   -0.8752 C   0  0  2  0  0  0  0  0  0  0  0  0
   -1.2676   -1.0599    0.2399 C   0  0  0  0  0  0  0  0  0  0  0  0
   -1.6270    0.0833    0.5138 O   0  0  0  0  0  0  0  0  0  0  0  0
   -1.0364   -1.8506   -2.1285 C   0  0  0  0  0  0  0  0  0  0  0  0
   -3.5631   -0.6202   -0.5206 H   0  0  0  0  0  0  0  0  0  0  0  0
   -2.0301   -2.9174   -0.5360 H   0  0  0  0  0  0  0  0  0  0  0  0
   -0.8921   -0.8236   -2.4833 H   0  0  0  0  0  0  0  0  0  0  0  0
   -0.0457   -2.2777   -1.9410 H   0  0  0  0  0  0  0  0  0  0  0  0
   -1.5052   -2.4193   -2.9387 H   0  0  0  0  0  0  0  0  0  0  0  0
   -0.2267   -1.7335    0.8672 N   0  0  0  0  0  0  0  0  0  0  0  0
    0.5363   -1.1590    1.9465 C   0  0  2  0  0  0  0  0  0  0  0  0
    1.3050   -2.2962    2.6095 C   0  0  0  0  0  0  0  0  0  0  0  0
    2.4798   -2.1977    2.9577 O   0  0  0  0  0  0  0  0  0  0  0  0
   -0.3594   -0.4534    2.9621 C   0  0  0  0  0  0  0  0  0  0  0  0
   -1.0440    0.8350    2.4883 C   0  0  0  0  0  0  0  0  0  0  0  0
   -0.3980    1.4673    1.6029 O   0  5  0  0  0  0  0  0  0  0  0  0
   -2.1473    1.1206    3.0287 O   0  0  0  0  0  0  0  0  0  0  0  0
   -0.0113   -2.6869    0.5854 H   0  0  0  0  0  0  0  0  0  0  0  0
    1.2476   -0.4599    1.4925 H   0  0  0  0  0  0  0  0  0  0  0  0
    0.2213   -0.2149    3.8637 H   0  0  0  0  0  0  0  0  0  0  0  0
   -1.1622   -1.1312    3.2804 H   0  0  0  0  0  0  0  0  0  0  0  0
    0.5091   -3.4149    2.8131 N   0  0  0  0  0  0  0  0  0  0  0  0
    0.9956   -4.6148    3.4531 C   0  0  2  0  0  0  0  0  0  0  0  0
    0.2464   -5.8009    2.8603 C   0  0  0  0  0  0  0  0  0  0  0  0
   -0.8493   -5.6965    2.3129 O   0  0  0  0  0  0  0  0  0  0  0  0
    0.8085   -4.5524    4.9610 C   0  0  0  0  0  0  0  0  0  0  0  0
   -0.4677   -3.3900    2.5353 H   0  0  0  0  0  0  0  0  0  0  0  0
    2.0602   -4.6949    3.2076 H   0  0  0  0  0  0  0  0  0  0  0  0
   -0.2519   -4.4720    5.2264 H   0  0  0  0  0  0  0  0  0  0  0  0
    1.2037   -5.4504    5.4474 H   0  0  0  0  0  0  0  0  0  0  0  0
    1.3234   -3.6820    5.3819 H   0  0  0  0  0  0  0  0  0  0  0  0
    0.9252   -6.9960    3.0527 N   0  0  0  0  0  0  0  0  0  0  0  0
    0.4140   -8.2659    2.5922 C   0  0  0  0  0  0  0  0  0  0  0  0
    1.8370   -6.9863    3.5002 H   0  0  0  0  0  0  0  0  0  0  0  0
   -0.1666   -8.7414    3.3964 H   0  0  0  0  0  0  0  0  0  0  0  0
   -0.2342   -8.1049    1.7181 H   0  0  0  0  0  0  0  0  0  0  0  0
    1.2535   -8.9187    2.3108 H   0  0  0  0  0  0  0  0  0  0  0  0
  1  3  1  0  0  0  0
  1  7  1  0  0  0  0
  1  2  2  0  0  0  0
 30 31  1  0  0  0  0
 31 39  1  0  0  0  0
 31 32  2  0  0  0  0
  8  9  1  0  0  0  0
  9 17  1  0  0  0  0
  9 10  2  0  0  0  0
 18 19  1  0  0  0  0
 19 29  1  0  0  0  0
 19 20  2  0  0  0  0
 21 22  1  0  0  0  0
 22 23  1  0  0  0  0
 22 24  2  0  0  0  0
 30 33  1  0  0  0  0
  8 11  1  0  0  0  0
 39 40  1  0  0  0  0
 18 21  1  0  0  0  0
 29 30  1  0  0  0  0
  7  8  1  0  0  0  0
 17 18  1  0  0  0  0
  3  4  1  0  0  0  0
  3  5  1  0  0  0  0
  3  6  1  0  0  0  0
 33 36  1  0  0  0  0
 33 37  1  0  0  0  0
 33 38  1  0  0  0  0
 11 14  1  0  0  0  0
 11 15  1  0  0  0  0
 11 16  1  0  0  0  0
 40 42  1  0  0  0  0
 40 43  1  0  0  0  0
 40 44  1  0  0  0  0
 21 27  1  0  0  0  0
 21 28  1  0  0  0  0
 30 35  1  0  0  0  0
  8 13  1  0  0  0  0
 18 26  1  0  0  0  0
 39 41  1  0  0  0  0
  7 12  1  0  0  0  0
 29 34  1  0  0  0  0
 17 25  1  0  0  0  0
M  CHG  1  23  -1
M  END
$$$$

  -OEChem-05262214473D

 44 43  0     1  0  0  0  0  0999 V2000
   -4.0256   -1.8030   -2.1581 C   0  0  0  0  0  0  0  0  0  0  0  0
   -3.7513   -2.6782   -2.9709 O   0  0  0  0  0  0  0  0  0  0  0  0
   -5.3491   -1.1169   -2.2339 C   0  0  0  0  0  0  0  0  0  0  0  0
   -5.3223   -0.2211   -2.8750 H   0  0  0  0  0  0  0  0  0  0  0  0
   -6.1322   -1.7605   -2.6658 H   0  0  0  0  0  0  0  0  0  0  0  0
   -5.7568   -0.7715   -1.2704 H   0  0  0  0  0  0  0  0  0  0  0  0
   -3.2124   -1.3578   -1.1289 N   0  0  0  0  0  0  0  0  0  0  0  0
   -1.8971   -1.8843   -0.8752 C   0  0  2  0  0  0  0  0  0  0  0  0
   -1.2676   -1.0599    0.2399 C   0  0  0  0  0  0  0  0  0  0  0  0
   -1.6270    0.0833    0.5138 O   0  0  0  0  0  0  0  0  0  0  0  0
   -1.0364   -1.8506   -2.1285 C   0  0  0  0  0  0  0  0  0  0  0  0
   -3.5631   -0.6202   -0.5206 H   0  0  0  0  0  0  0  0  0  0  0  0
   -2.0301   -2.9174   -0.5360 H   0  0  0  0  0  0  0  0  0  0  0  0
   -0.8921   -0.8236   -2.4833 H   0  0  0  0  0  0  0  0  0  0  0  0
   -0.0457   -2.2777   -1.9410 H   0  0  0  0  0  0  0  0  0  0  0  0
   -1.5052   -2.4193   -2.9387 H   0  0  0  0  0  0  0  0  0  0  0  0
   -0.2267   -1.7335    0.8672 N   0  0  0  0  0  0  0  0  0  0  0  0
    0.5363   -1.1590    1.9465 C   0  0  2  0  0  0  0  0  0  0  0  0
    1.3050   -2.2962    2.6095 C   0  0  0  0  0  0  0  0  0  0  0  0
    2.3730   -2.1313    3.1955 O   0  0  0  0  0  0  0  0  0  0  0  0
   -0.3594   -0.4534    2.9621 C   0  0  0  0  0  0  0  0  0  0  0  0
   -1.0440    0.8350    2.4883 C   0  0  0  0  0  0  0  0  0  0  0  0
   -0.3980    1.4673    1.6029 O   0  5  0  0  0  0  0  0  0  0  0  0
   -2.1473    1.1206    3.0287 O   0  0  0  0  0  0  0  0  0  0  0  0
   -0.0113   -2.6869    0.5854 H   0  0  0  0  0  0  0  0  0  0  0  0
    1.2476   -0.4599    1.4925 H   0  0  0  0  0  0  0  0  0  0  0  0
    0.2213   -0.2149    3.8637 H   0  0  0  0  0  0  0  0  0  0  0  0
   -1.1622   -1.1312    3.2804 H   0  0  0  0  0  0  0  0  0  0  0  0
    0.6318   -3.5062    2.5142 N   0  0  0  0  0  0  0  0  0  0  0  0
    1.1376   -4.7301    3.0908 C   0  0  2  0  0  0  0  0  0  0  0  0
    0.6662   -5.8890    2.2224 C   0  0  0  0  0  0  0  0  0  0  0  0
   -0.3132   -5.8180    1.4828 O   0  0  0  0  0  0  0  0  0  0  0  0
    0.6676   -4.9008    4.5270 C   0  0  0  0  0  0  0  0  0  0  0  0
   -0.2717   -3.5397    2.0511 H   0  0  0  0  0  0  0  0  0  0  0  0
    2.2307   -4.6680    3.0559 H   0  0  0  0  0  0  0  0  0  0  0  0
   -0.4253   -4.9649    4.5819 H   0  0  0  0  0  0  0  0  0  0  0  0
    1.0751   -5.8146    4.9719 H   0  0  0  0  0  0  0  0  0  0  0  0
    0.9821   -4.0518    5.1435 H   0  0  0  0  0  0  0  0  0  0  0  0
    1.4419   -7.0256    2.4028 N   0  0  0  0  0  0  0  0  0  0  0  0
    1.1884   -8.2621    1.7008 C   0  0  0  0  0  0  0  0  0  0  0  0
    2.2463   -6.9885    3.0220 H   0  0  0  0  0  0  0  0  0  0  0  0
    0.5329   -8.9022    2.3096 H   0  0  0  0  0  0  0  0  0  0  0  0
    0.6987   -8.0445    0.7402 H   0  0  0  0  0  0  0  0  0  0  0  0
    2.1406   -8.7815    1.5176 H   0  0  0  0  0  0  0  0  0  0  0  0
  1  3  1  0  0  0  0
  1  7  1  0  0  0  0
  1  2  2  0  0  0  0
 30 31  1  0  0  0  0
 31 39  1  0  0  0  0
 31 32  2  0  0  0  0
  8  9  1  0  0  0  0
  9 17  1  0  0  0  0
  9 10  2  0  0  0  0
 18 19  1  0  0  0  0
 19 29  1  0  0  0  0
 19 20  2  0  0  0  0
 21 22  1  0  0  0  0
 22 23  1  0  0  0  0
 22 24  2  0  0  0  0
 30 33  1  0  0  0  0
  8 11  1  0  0  0  0
 39 40  1  0  0  0  0
 18 21  1  0  0  0  0
 29 30  1  0  0  0  0
  7  8  1  0  0  0  0
 17 18  1  0  0  0  0
  3  4  1  0  0  0  0
  3  5  1  0  0  0  0
  3  6  1  0  0  0  0
 33 36  1  0  0  0  0
 33 37  1  0  0  0  0
 33 38  1  0  0  0  0
 11 14  1  0  0  0  0
 11 15  1  0  0  0  0
 11 16  1  0  0  0  0
 40 42  1  0  0  0  0
 40 43  1  0  0  0  0
 40 44  1  0  0  0  0
 21 27  1  0  0  0  0
 21 28  1  0  0  0  0
 30 35  1  0  0  0  0
  8 13  1  0  0  0  0
 18 26  1  0  0  0  0
 39 41  1  0  0  0  0
  7 12  1  0  0  0  0
 29 34  1  0  0  0  0
 17 25  1  0  0  0  0
M  CHG  1  23  -1
M  END
$$$$

  -OEChem-05262214473D

 44 43  0     1  0  0  0  0  0999 V2000
   -4.0256   -1.8030   -2.1581 C   0  0  0  0  0  0  0  0  0  0  0  0
   -3.7513   -2.6782   -2.9709 O   0  0  0  0  0  0  0  0  0  0  0  0
   -5.3491   -1.1169   -2.2339 C   0  0  0  0  0  0  0  0  0  0  0  0
   -5.3223   -0.2211   -2.8750 H   0  0  0  0  0  0  0  0  0  0  0  0
   -6.1322   -1.7605   -2.6658 H   0  0  0  0  0  0  0  0  0  0  0  0
   -5.7568   -0.7715   -1.2704 H   0  0  0  0  0  0  0  0  0  0  0  0
   -3.2124   -1.3578   -1.1289 N   0  0  0  0  0  0  0  0  0  0  0  0
   -1.8971   -1.8843   -0.8752 C   0  0  2  0  0  0  0  0  0  0  0  0
   -1.2676   -1.0599    0.2399 C   0  0  0  0  0  0  0  0  0  0  0  0
   -1.6270    0.0833    0.5138 O   0  0  0  0  0  0  0  0  0  0  0  0
   -1.0364   -1.8506   -2.1285 C   0  0  0  0  0  0  0  0  0  0  0  0
   -3.5631   -0.6202   -0.5206 H   0  0  0  0  0  0  0  0  0  0  0  0
   -2.0301   -2.9174   -0.5360 H   0  0  0  0  0  0  0  0  0  0  0  0
   -0.8921   -0.8236   -2.4833 H   0  0  0  0  0  0  0  0  0  0  0  0
   -0.0457   -2.2777   -1.9410 H   0  0  0  0  0  0  0  0  0  0  0  0
   -1.5052   -2.4193   -2.9387 H   0  0  0  0  0  0  0  0  0  0  0  0
   -0.2267   -1.7335    0.8672 N   0  0  0  0  0  0  0  0  0  0  0  0
    0.5363   -1.1590    1.9465 C   0  0  2  0  0  0  0  0  0  0  0  0
    1.3050   -2.2962    2.6095 C   0  0  0  0  0  0  0  0  0  0  0  0
    2.2164   -2.1102    3.4132 O   0  0  0  0  0  0  0  0  0  0  0  0
   -0.3594   -0.4534    2.9621 C   0  0  0  0  0  0  0  0  0  0  0  0
   -1.0440    0.8350    2.4883 C   0  0  0  0  0  0  0  0  0  0  0  0
   -0.3980    1.4673    1.6029 O   0  5  0  0  0  0  0  0  0  0  0  0
   -2.1473    1.1206    3.0287 O   0  0  0  0  0  0  0  0  0  0  0  0
   -0.0113   -2.6869    0.5854 H   0  0  0  0  0  0  0  0  0  0  0  0
    1.2476   -0.4599    1.4925 H   0  0  0  0  0  0  0  0  0  0  0  0
    0.2213   -0.2149    3.8637 H   0  0  0  0  0  0  0  0  0  0  0  0
   -1.1622   -1.1312    3.2804 H   0  0  0  0  0  0  0  0  0  0  0  0
    0.8183   -3.5415    2.2373 N   0  0  0  0  0  0  0  0  0  0  0  0
    1.3577   -4.7782    2.7532 C   0  0  2  0  0  0  0  0  0  0  0  0
    1.2048   -5.8437    1.6758 C   0  0  0  0  0  0  0  0  0  0  0  0
    0.3787   -5.7667    0.7687 O   0  0  0  0  0  0  0  0  0  0  0  0
    0.6545   -5.1965    4.0350 C   0  0  0  0  0  0  0  0  0  0  0  0
    0.0279   -3.5992    1.6018 H   0  0  0  0  0  0  0  0  0  0  0  0
    2.4217   -4.6030    2.9459 H   0  0  0  0  0  0  0  0  0  0  0  0
   -0.4128   -5.3764    3.8616 H   0  0  0  0  0  0  0  0  0  0  0  0
    1.0836   -6.1188    4.4402 H   0  0  0  0  0  0  0  0  0  0  0  0
    0.7401   -4.4162    4.7990 H   0  0  0  0  0  0  0  0  0  0  0  0
    2.0698   -6.9112    1.8710 N   0  0  0  0  0  0  0  0  0  0  0  0
    2.1081   -8.0550    0.9899 C   0  0  0  0  0  0  0  0  0  0  0  0
    2.7341   -6.8821    2.6389 H   0  0  0  0  0  0  0  0  0  0  0  0
    1.4365   -8.8370    1.3739 H   0  0  0  0  0  0  0  0  0  0  0  0
    1.7819   -7.7534   -0.0165 H   0  0  0  0  0  0  0  0  0  0  0  0
    3.1352   -8.4456    0.9407 H   0  0  0  0  0  0  0  0  0  0  0  0
  1  3  1  0  0  0  0
  1  7  1  0  0  0  0
  1  2  2  0  0  0  0
 30 31  1  0  0  0  0
 31 39  1  0  0  0  0
 31 32  2  0  0  0  0
  8  9  1  0  0  0  0
  9 17  1  0  0  0  0
  9 10  2  0  0  0  0
 18 19  1  0  0  0  0
 19 29  1  0  0  0  0
 19 20  2  0  0  0  0
 21 22  1  0  0  0  0
 22 23  1  0  0  0  0
 22 24  2  0  0  0  0
 30 33  1  0  0  0  0
  8 11  1  0  0  0  0
 39 40  1  0  0  0  0
 18 21  1  0  0  0  0
 29 30  1  0  0  0  0
  7  8  1  0  0  0  0
 17 18  1  0  0  0  0
  3  4  1  0  0  0  0
  3  5  1  0  0  0  0
  3  6  1  0  0  0  0
 33 36  1  0  0  0  0
 33 37  1  0  0  0  0
 33 38  1  0  0  0  0
 11 14  1  0  0  0  0
 11 15  1  0  0  0  0
 11 16  1  0  0  0  0
 40 42  1  0  0  0  0
 40 43  1  0  0  0  0
 40 44  1  0  0  0  0
 21 27  1  0  0  0  0
 21 28  1  0  0  0  0
 30 35  1  0  0  0  0
  8 13  1  0  0  0  0
 18 26  1  0  0  0  0
 39 41  1  0  0  0  0
  7 12  1  0  0  0  0
 29 34  1  0  0  0  0
 17 25  1  0  0  0  0
M  CHG  1  23  -1
M  END
$$$$

  -OEChem-05262214473D

 44 43  0     1  0  0  0  0  0999 V2000
   -4.0256   -1.8030   -2.1581 C   0  0  0  0  0  0  0  0  0  0  0  0
   -3.7513   -2.6782   -2.9709 O   0  0  0  0  0  0  0  0  0  0  0  0
   -5.3491   -1.1169   -2.2339 C   0  0  0  0  0  0  0  0  0  0  0  0
   -5.3223   -0.2211   -2.8750 H   0  0  0  0  0  0  0  0  0  0  0  0
   -6.1322   -1.7605   -2.6658 H   0  0  0  0  0  0  0  0  0  0  0  0
   -5.7568   -0.7715   -1.2704 H   0  0  0  0  0  0  0  0  0  0  0  0
   -3.2124   -1.3578   -1.1289 N   0  0  0  0  0  0  0  0  0  0  0  0
   -1.8971   -1.8843   -0.8752 C   0  0  2  0  0  0  0  0  0  0  0  0
   -1.2676   -1.0599    0.2399 C   0  0  0  0  0  0  0  0  0  0  0  0
   -1.6270    0.0833    0.5138 O   0  0  0  0  0  0  0  0  0  0  0  0
   -1.0364   -1.8506   -2.1285 C   0  0  0  0  0  0  0  0  0  0  0  0
   -3.5631   -0.6202   -0.5206 H   0  0  0  0  0  0  0  0  0  0  0  0
   -2.0301   -2.9174   -0.5360 H   0  0  0  0  0  0  0  0  0  0  0  0
   -0.8921   -0.8236   -2.4833 H   0  0  0  0  0  0  0  0  0  0  0  0
   -0.0457   -2.2777   -1.9410 H   0  0  0  0  0  0  0  0  0  0  0  0
   -1.5052   -2.4193   -2.9387 H   0  0  0  0  0  0  0  0  0  0  0  0
   -0.2267   -1.7335    0.8672 N   0  0  0  0  0  0  0  0  0  0  0  0
    0.5363   -1.1590    1.9465 C   0  0  2  0  0  0  0  0  0  0  0  0
    1.3050   -2.2962    2.6095 C   0  0  0  0  0  0  0  0  0  0  0  0
    2.0207   -2.1359    3.5960 O   0  0  0  0  0  0  0  0  0  0  0  0
   -0.3594   -0.4534    2.9621 C   0  0  0  0  0  0  0  0  0  0  0  0
   -1.0440    0.8350    2.4883 C   0  0  0  0  0  0  0  0  0  0  0  0
   -0.3980    1.4673    1.6029 O   0  5  0  0  0  0  0  0  0  0  0  0
   -2.1473    1.1206    3.0287 O   0  0  0  0  0  0  0  0  0  0  0  0
   -0.0113   -2.6869    0.5854 H   0  0  0  0  0  0  0  0  0  0  0  0
    1.2476   -0.4599    1.4925 H   0  0  0  0  0  0  0  0  0  0  0  0
    0.2213   -0.2149    3.8637 H   0  0  0  0  0  0  0  0  0  0  0  0
   -1.1622   -1.1312    3.2804 H   0  0  0  0  0  0  0  0  0  0  0  0
    1.0559   -3.5186    2.0012 N   0  0  0  0  0  0  0  0  0  0  0  0
    1.6409   -4.7557    2.4633 C   0  0  2  0  0  0  0  0  0  0  0  0
    1.8254   -5.6679    1.2577 C   0  0  0  0  0  0  0  0  0  0  0  0
    1.1790   -5.5461    0.2192 O   0  0  0  0  0  0  0  0  0  0  0  0
    0.7701   -5.4193    3.5187 C   0  0  0  0  0  0  0  0  0  0  0  0
    0.4108   -3.5642    1.2179 H   0  0  0  0  0  0  0  0  0  0  0  0
    2.6202   -4.5044    2.8851 H   0  0  0  0  0  0  0  0  0  0  0  0
   -0.2153   -5.6785    3.1146 H   0  0  0  0  0  0  0  0  0  0  0  0
    1.2288   -6.3423    3.8886 H   0  0  0  0  0  0  0  0  0  0  0  0
    0.6139   -4.7505    4.3720 H   0  0  0  0  0  0  0  0  0  0  0  0
    2.7661   -6.6607    1.4935 N   0  0  0  0  0  0  0  0  0  0  0  0
    3.1104   -7.6585    0.5077 C   0  0  0  0  0  0  0  0  0  0  0  0
    3.2674   -6.6744    2.3769 H   0  0  0  0  0  0  0  0  0  0  0  0
    2.4827   -8.5501    0.6531 H   0  0  0  0  0  0  0  0  0  0  0  0
    2.9414   -7.2516   -0.5002 H   0  0  0  0  0  0  0  0  0  0  0  0
    4.1695   -7.9338    0.6192 H   0  0  0  0  0  0  0  0  0  0  0  0
  1  3  1  0  0  0  0
  1  7  1  0  0  0  0
  1  2  2  0  0  0  0
 30 31  1  0  0  0  0
 31 39  1  0  0  0  0
 31 32  2  0  0  0  0
  8  9  1  0  0  0  0
  9 17  1  0  0  0  0
  9 10  2  0  0  0  0
 18 19  1  0  0  0  0
 19 29  1  0  0  0  0
 19 20  2  0  0  0  0
 21 22  1  0  0  0  0
 22 23  1  0  0  0  0
 22 24  2  0  0  0  0
 30 33  1  0  0  0  0
  8 11  1  0  0  0  0
 39 40  1  0  0  0  0
 18 21  1  0  0  0  0
 29 30  1  0  0  0  0
  7  8  1  0  0  0  0
 17 18  1  0  0  0  0
  3  4  1  0  0  0  0
  3  5  1  0  0  0  0
  3  6  1  0  0  0  0
 33 36  1  0  0  0  0
 33 37  1  0  0  0  0
 33 38  1  0  0  0  0
 11 14  1  0  0  0  0
 11 15  1  0  0  0  0
 11 16  1  0  0  0  0
 40 42  1  0  0  0  0
 40 43  1  0  0  0  0
 40 44  1  0  0  0  0
 21 27  1  0  0  0  0
 21 28  1  0  0  0  0
 30 35  1  0  0  0  0
  8 13  1  0  0  0  0
 18 26  1  0  0  0  0
 39 41  1  0  0  0  0
  7 12  1  0  0  0  0
 29 34  1  0  0  0  0
 17 25  1  0  0  0  0
M  CHG  1  23  -1
M  END
$$$$

  -OEChem-05262214473D

 44 43  0     1  0  0  0  0  0999 V2000
   -4.0256   -1.8030   -2.1581 C   0  0  0  0  0  0  0  0  0  0  0  0
   -3.7513   -2.6782   -2.9709 O   0  0  0  0  0  0  0  0  0  0  0  0
   -5.3491   -1.1169   -2.2339 C   0  0  0  0  0  0  0  0  0  0  0  0
   -5.3223   -0.2211   -2.8750 H   0  0  0  0  0  0  0  0  0  0  0  0
   -6.1322   -1.7605   -2.6658 H   0  0  0  0  0  0  0  0  0  0  0  0
   -5.7568   -0.7715   -1.2704 H   0  0  0  0  0  0  0  0  0  0  0  0
   -3.2124   -1.3578   -1.1289 N   0  0  0  0  0  0  0  0  0  0  0  0
   -1.8971   -1.8843   -0.8752 C   0  0  2  0  0  0  0  0  0  0  0  0
   -1.2676   -1.0599    0.2399 C   0  0  0  0  0  0  0  0  0  0  0  0
   -1.6270    0.0833    0.5138 O   0  0  0  0  0  0  0  0  0  0  0  0
   -1.0364   -1.8506   -2.1285 C   0  0  0  0  0  0  0  0  0  0  0  0
   -3.5631   -0.6202   -0.5206 H   0  0  0  0  0  0  0  0  0  0  0  0
   -2.0301   -2.9174   -0.5360 H   0  0  0  0  0  0  0  0  0  0  0  0
   -0.8921   -0.8236   -2.4833 H   0  0  0  0  0  0  0  0  0  0  0  0
   -0.0457   -2.2777   -1.9410 H   0  0  0  0  0  0  0  0  0  0  0  0
   -1.5052   -2.4193   -2.9387 H   0  0  0  0  0  0  0  0  0  0  0  0
   -0.2267   -1.7335    0.8672 N   0  0  0  0  0  0  0  0  0  0  0  0
    0.5363   -1.1590    1.9465 C   0  0  2  0  0  0  0  0  0  0  0  0
    1.3050   -2.2962    2.6095 C   0  0  0  0  0  0  0  0  0  0  0  0
    1.7993   -2.2066    3.7315 O   0  0  0  0  0  0  0  0  0  0  0  0
   -0.3594   -0.4534    2.9621 C   0  0  0  0  0  0  0  0  0  0  0  0
   -1.0440    0.8350    2.4883 C   0  0  0  0  0  0  0  0  0  0  0  0
   -0.3980    1.4673    1.6029 O   0  5  0  0  0  0  0  0  0  0  0  0
   -2.1473    1.1206    3.0287 O   0  0  0  0  0  0  0  0  0  0  0  0
   -0.0113   -2.6869    0.5854 H   0  0  0  0  0  0  0  0  0  0  0  0
    1.2476   -0.4599    1.4925 H   0  0  0  0  0  0  0  0  0  0  0  0
    0.2213   -0.2149    3.8637 H   0  0  0  0  0  0  0  0  0  0  0  0
   -1.1622   -1.1312    3.2804 H   0  0  0  0  0  0  0  0  0  0  0  0
    1.3284   -3.4388    1.8220 N   0  0  0  0  0  0  0  0  0  0  0  0
    1.9679   -4.6644    2.2409 C   0  0  2  0  0  0  0  0  0  0  0  0
    2.4859   -5.3736    0.9966 C   0  0  0  0  0  0  0  0  0  0  0  0
    2.0334   -5.1711   -0.1282 O   0  0  0  0  0  0  0  0  0  0  0  0
    1.0065   -5.5542    3.0132 C   0  0  0  0  0  0  0  0  0  0  0  0
    0.8508   -3.4373    0.9255 H   0  0  0  0  0  0  0  0  0  0  0  0
    2.8125   -4.3788    2.8774 H   0  0  0  0  0  0  0  0  0  0  0  0
    0.1537   -5.8506    2.3917 H   0  0  0  0  0  0  0  0  0  0  0  0
    1.5006   -6.4698    3.3546 H   0  0  0  0  0  0  0  0  0  0  0  0
    0.6120   -5.0318    3.8915 H   0  0  0  0  0  0  0  0  0  0  0  0
    3.4834   -6.2910    1.2960 N   0  0  0  0  0  0  0  0  0  0  0  0
    4.1270   -7.0999    0.2873 C   0  0  0  0  0  0  0  0  0  0  0  0
    3.8097   -6.3796    2.2538 H   0  0  0  0  0  0  0  0  0  0  0  0
    3.6000   -8.0611    0.1962 H   0  0  0  0  0  0  0  0  0  0  0  0
    4.0984   -6.5733   -0.6780 H   0  0  0  0  0  0  0  0  0  0  0  0
    5.1730   -7.2811    0.5753 H   0  0  0  0  0  0  0  0  0  0  0  0
  1  3  1  0  0  0  0
  1  7  1  0  0  0  0
  1  2  2  0  0  0  0
 30 31  1  0  0  0  0
 31 39  1  0  0  0  0
 31 32  2  0  0  0  0
  8  9  1  0  0  0  0
  9 17  1  0  0  0  0
  9 10  2  0  0  0  0
 18 19  1  0  0  0  0
 19 29  1  0  0  0  0
 19 20  2  0  0  0  0
 21 22  1  0  0  0  0
 22 23  1  0  0  0  0
 22 24  2  0  0  0  0
 30 33  1  0  0  0  0
  8 11  1  0  0  0  0
 39 40  1  0  0  0  0
 18 21  1  0  0  0  0
 29 30  1  0  0  0  0
  7  8  1  0  0  0  0
 17 18  1  0  0  0  0
  3  4  1  0  0  0  0
  3  5  1  0  0  0  0
  3  6  1  0  0  0  0
 33 36  1  0  0  0  0
 33 37  1  0  0  0  0
 33 38  1  0  0  0  0
 11 14  1  0  0  0  0
 11 15  1  0  0  0  0
 11 16  1  0  0  0  0
 40 42  1  0  0  0  0
 40 43  1  0  0  0  0
 40 44  1  0  0  0  0
 21 27  1  0  0  0  0
 21 28  1  0  0  0  0
 30 35  1  0  0  0  0
  8 13  1  0  0  0  0
 18 26  1  0  0  0  0
 39 41  1  0  0  0  0
  7 12  1  0  0  0  0
 29 34  1  0  0  0  0
 17 25  1  0  0  0  0
M  CHG  1  23  -1
M  END
$$$$

  -OEChem-05262214473D

 44 43  0     1  0  0  0  0  0999 V2000
   -4.0256   -1.8030   -2.1581 C   0  0  0  0  0  0  0  0  0  0  0  0
   -3.7513   -2.6782   -2.9709 O   0  0  0  0  0  0  0  0  0  0  0  0
   -5.3491   -1.1169   -2.2339 C   0  0  0  0  0  0  0  0  0  0  0  0
   -5.3223   -0.2211   -2.8750 H   0  0  0  0  0  0  0  0  0  0  0  0
   -6.1322   -1.7605   -2.6658 H   0  0  0  0  0  0  0  0  0  0  0  0
   -5.7568   -0.7715   -1.2704 H   0  0  0  0  0  0  0  0  0  0  0  0
   -3.2124   -1.3578   -1.1289 N   0  0  0  0  0  0  0  0  0  0  0  0
   -1.8971   -1.8843   -0.8752 C   0  0  2  0  0  0  0  0  0  0  0  0
   -1.2676   -1.0599    0.2399 C   0  0  0  0  0  0  0  0  0  0  0  0
   -1.6270    0.0833    0.5138 O   0  0  0  0  0  0  0  0  0  0  0  0
   -1.0364   -1.8506   -2.1285 C   0  0  0  0  0  0  0  0  0  0  0  0
   -3.5631   -0.6202   -0.5206 H   0  0  0  0  0  0  0  0  0  0  0  0
   -2.0301   -2.9174   -0.5360 H   0  0  0  0  0  0  0  0  0  0  0  0
   -0.8921   -0.8236   -2.4833 H   0  0  0  0  0  0  0  0  0  0  0  0
   -0.0457   -2.2777   -1.9410 H   0  0  0  0  0  0  0  0  0  0  0  0
   -1.5052   -2.4193   -2.9387 H   0  0  0  0  0  0  0  0  0  0  0  0
   -0.2267   -1.7335    0.8672 N   0  0  0  0  0  0  0  0  0  0  0  0
    0.5363   -1.1590    1.9465 C   0  0  2  0  0  0  0  0  0  0  0  0
    1.3050   -2.2962    2.6095 C   0  0  0  0  0  0  0  0  0  0  0  0
    1.5673   -2.3174    3.8103 O   0  0  0  0  0  0  0  0  0  0  0  0
   -0.3594   -0.4534    2.9621 C   0  0  0  0  0  0  0  0  0  0  0  0
   -1.0440    0.8350    2.4883 C   0  0  0  0  0  0  0  0  0  0  0  0
   -0.3980    1.4673    1.6029 O   0  5  0  0  0  0  0  0  0  0  0  0
   -2.1473    1.1206    3.0287 O   0  0  0  0  0  0  0  0  0  0  0  0
   -0.0113   -2.6869    0.5854 H   0  0  0  0  0  0  0  0  0  0  0  0
    1.2476   -0.4599    1.4925 H   0  0  0  0  0  0  0  0  0  0  0  0
    0.2213   -0.2149    3.8637 H   0  0  0  0  0  0  0  0  0  0  0  0
   -1.1622   -1.1312    3.2804 H   0  0  0  0  0  0  0  0  0  0  0  0
    1.6172   -3.3078    1.7120 N   0  0  0  0  0  0  0  0  0  0  0  0
    2.3164   -4.5103    2.1011 C   0  0  2  0  0  0  0  0  0  0  0  0
    3.1411   -4.9810    0.9104 C   0  0  0  0  0  0  0  0  0  0  0  0
    2.8835   -4.6674   -0.2499 O   0  0  0  0  0  0  0  0  0  0  0  0
    1.3477   -5.5919    2.5530 C   0  0  0  0  0  0  0  0  0  0  0  0
    1.3180   -3.2269    0.7446 H   0  0  0  0  0  0  0  0  0  0  0  0
    2.9856   -4.2349    2.9236 H   0  0  0  0  0  0  0  0  0  0  0  0
    0.6691   -5.8809    1.7422 H   0  0  0  0  0  0  0  0  0  0  0  0
    1.8807   -6.4927    2.8747 H   0  0  0  0  0  0  0  0  0  0  0  0
    0.7347   -5.2411    3.3903 H   0  0  0  0  0  0  0  0  0  0  0  0
    4.1727   -5.8274    1.2920 N   0  0  0  0  0  0  0  0  0  0  0  0
    5.0886   -6.4170    0.3436 C   0  0  0  0  0  0  0  0  0  0  0  0
    4.3241   -6.0177    2.2782 H   0  0  0  0  0  0  0  0  0  0  0  0
    4.7125   -7.4034    0.0345 H   0  0  0  0  0  0  0  0  0  0  0  0
    5.1739   -5.7646   -0.5379 H   0  0  0  0  0  0  0  0  0  0  0  0
    6.0774   -6.5320    0.8117 H   0  0  0  0  0  0  0  0  0  0  0  0
  1  3  1  0  0  0  0
  1  7  1  0  0  0  0
  1  2  2  0  0  0  0
 30 31  1  0  0  0  0
 31 39  1  0  0  0  0
 31 32  2  0  0  0  0
  8  9  1  0  0  0  0
  9 17  1  0  0  0  0
  9 10  2  0  0  0  0
 18 19  1  0  0  0  0
 19 29  1  0  0  0  0
 19 20  2  0  0  0  0
 21 22  1  0  0  0  0
 22 23  1  0  0  0  0
 22 24  2  0  0  0  0
 30 33  1  0  0  0  0
  8 11  1  0  0  0  0
 39 40  1  0  0  0  0
 18 21  1  0  0  0  0
 29 30  1  0  0  0  0
  7  8  1  0  0  0  0
 17 18  1  0  0  0  0
  3  4  1  0  0  0  0
  3  5  1  0  0  0  0
  3  6  1  0  0  0  0
 33 36  1  0  0  0  0
 33 37  1  0  0  0  0
 33 38  1  0  0  0  0
 11 14  1  0  0  0  0
 11 15  1  0  0  0  0
 11 16  1  0  0  0  0
 40 42  1  0  0  0  0
 40 43  1  0  0  0  0
 40 44  1  0  0  0  0
 21 27  1  0  0  0  0
 21 28  1  0  0  0  0
 30 35  1  0  0  0  0
  8 13  1  0  0  0  0
 18 26  1  0  0  0  0
 39 41  1  0  0  0  0
  7 12  1  0  0  0  0
 29 34  1  0  0  0  0
 17 25  1  0  0  0  0
M  CHG  1  23  -1
M  END
$$$$

  -OEChem-05262214473D

 44 43  0     1  0  0  0  0  0999 V2000
   -4.0256   -1.8030   -2.1581 C   0  0  0  0  0  0  0  0  0  0  0  0
   -3.7513   -2.6782   -2.9709 O   0  0  0  0  0  0  0  0  0  0  0  0
   -5.3491   -1.1169   -2.2339 C   0  0  0  0  0  0  0  0  0  0  0  0
   -5.3223   -0.2211   -2.8750 H   0  0  0  0  0  0  0  0  0  0  0  0
   -6.1322   -1.7605   -2.6658 H   0  0  0  0  0  0  0  0  0  0  0  0
   -5.7568   -0.7715   -1.2704 H   0  0  0  0  0  0  0  0  0  0  0  0
   -3.2124   -1.3578   -1.1289 N   0  0  0  0  0  0  0  0  0  0  0  0
   -1.8971   -1.8843   -0.8752 C   0  0  2  0  0  0  0  0  0  0  0  0
   -1.2676   -1.0599    0.2399 C   0  0  0  0  0  0  0  0  0  0  0  0
   -1.6270    0.0833    0.5138 O   0  0  0  0  0  0  0  0  0  0  0  0
   -1.0364   -1.8506   -2.1285 C   0  0  0  0  0  0  0  0  0  0  0  0
   -3.5631   -0.6202   -0.5206 H   0  0  0  0  0  0  0  0  0  0  0  0
   -2.0301   -2.9174   -0.5360 H   0  0  0  0  0  0  0  0  0  0  0  0
   -0.8921   -0.8236   -2.4833 H   0  0  0  0  0  0  0  0  0  0  0  0
   -0.0457   -2.2777   -1.9410 H   0  0  0  0  0  0  0  0  0  0  0  0
   -1.5052   -2.4193   -2.9387 H   0  0  0  0  0  0  0  0  0  0  0  0
   -0.2267   -1.7335    0.8672 N   0  0  0  0  0  0  0  0  0  0  0  0
    0.5363   -1.1590    1.9465 C   0  0  2  0  0  0  0  0  0  0  0  0
    1.3050   -2.2962    2.6095 C   0  0  0  0  0  0  0  0  0  0  0  0
    1.3404   -2.4610    3.8272 O   0  0  0  0  0  0  0  0  0  0  0  0
   -0.3594   -0.4534    2.9621 C   0  0  0  0  0  0  0  0  0  0  0  0
   -1.0440    0.8350    2.4883 C   0  0  0  0  0  0  0  0  0  0  0  0
   -0.3980    1.4673    1.6029 O   0  5  0  0  0  0  0  0  0  0  0  0
   -2.1473    1.1206    3.0287 O   0  0  0  0  0  0  0  0  0  0  0  0
   -0.0113   -2.6869    0.5854 H   0  0  0  0  0  0  0  0  0  0  0  0
    1.2476   -0.4599    1.4925 H   0  0  0  0  0  0  0  0  0  0  0  0
    0.2213   -0.2149    3.8637 H   0  0  0  0  0  0  0  0  0  0  0  0
   -1.1622   -1.1312    3.2804 H   0  0  0  0  0  0  0  0  0  0  0  0
    1.9027   -3.1343    1.6785 N   0  0  0  0  0  0  0  0  0  0  0  0
    2.6627   -4.3039    2.0535 C   0  0  2  0  0  0  0  0  0  0  0  0
    3.7465   -4.5167    1.0049 C   0  0  0  0  0  0  0  0  0  0  0  0
    3.6715   -4.0693   -0.1376 O   0  0  0  0  0  0  0  0  0  0  0  0
    1.7703   -5.5299    2.1694 C   0  0  0  0  0  0  0  0  0  0  0  0
    1.7805   -2.9475    0.6876 H   0  0  0  0  0  0  0  0  0  0  0  0
    3.1277   -4.0824    3.0204 H   0  0  0  0  0  0  0  0  0  0  0  0
    1.2957   -5.7673    1.2104 H   0  0  0  0  0  0  0  0  0  0  0  0
    2.3430   -6.4095    2.4815 H   0  0  0  0  0  0  0  0  0  0  0  0
    0.9736   -5.3640    2.9025 H   0  0  0  0  0  0  0  0  0  0  0  0
    4.7872   -5.3014    1.4817 N   0  0  0  0  0  0  0  0  0  0  0  0
    5.9298   -5.6565    0.6728 C   0  0  0  0  0  0  0  0  0  0  0  0
    4.7755   -5.6134    2.4483 H   0  0  0  0  0  0  0  0  0  0  0  0
    5.7443   -6.6218    0.1789 H   0  0  0  0  0  0  0  0  0  0  0  0
    6.0947   -4.8807   -0.0893 H   0  0  0  0  0  0  0  0  0  0  0  0
    6.8209   -5.7374    1.3125 H   0  0  0  0  0  0  0  0  0  0  0  0
  1  3  1  0  0  0  0
  1  7  1  0  0  0  0
  1  2  2  0  0  0  0
 30 31  1  0  0  0  0
 31 39  1  0  0  0  0
 31 32  2  0  0  0  0
  8  9  1  0  0  0  0
  9 17  1  0  0  0  0
  9 10  2  0  0  0  0
 18 19  1  0  0  0  0
 19 29  1  0  0  0  0
 19 20  2  0  0  0  0
 21 22  1  0  0  0  0
 22 23  1  0  0  0  0
 22 24  2  0  0  0  0
 30 33  1  0  0  0  0
  8 11  1  0  0  0  0
 39 40  1  0  0  0  0
 18 21  1  0  0  0  0
 29 30  1  0  0  0  0
  7  8  1  0  0  0  0
 17 18  1  0  0  0  0
  3  4  1  0  0  0  0
  3  5  1  0  0  0  0
  3  6  1  0  0  0  0
 33 36  1  0  0  0  0
 33 37  1  0  0  0  0
 33 38  1  0  0  0  0
 11 14  1  0  0  0  0
 11 15  1  0  0  0  0
 11 16  1  0  0  0  0
 40 42  1  0  0  0  0
 40 43  1  0  0  0  0
 40 44  1  0  0  0  0
 21 27  1  0  0  0  0
 21 28  1  0  0  0  0
 30 35  1  0  0  0  0
  8 13  1  0  0  0  0
 18 26  1  0  0  0  0
 39 41  1  0  0  0  0
  7 12  1  0  0  0  0
 29 34  1  0  0  0  0
 17 25  1  0  0  0  0
M  CHG  1  23  -1
M  END
$$$$

  -OEChem-05262214473D

 44 43  0     1  0  0  0  0  0999 V2000
   -4.0256   -1.8030   -2.1581 C   0  0  0  0  0  0  0  0  0  0  0  0
   -3.7513   -2.6782   -2.9709 O   0  0  0  0  0  0  0  0  0  0  0  0
   -5.3491   -1.1169   -2.2339 C   0  0  0  0  0  0  0  0  0  0  0  0
   -5.3223   -0.2211   -2.8750 H   0  0  0  0  0  0  0  0  0  0  0  0
   -6.1322   -1.7605   -2.6658 H   0  0  0  0  0  0  0  0  0  0  0  0
   -5.7568   -0.7715   -1.2704 H   0  0  0  0  0  0  0  0  0  0  0  0
   -3.2124   -1.3578   -1.1289 N   0  0  0  0  0  0  0  0  0  0  0  0
   -1.8971   -1.8843   -0.8752 C   0  0  2  0  0  0  0  0  0  0  0  0
   -1.2676   -1.0599    0.2399 C   0  0  0  0  0  0  0  0  0  0  0  0
   -1.6270    0.0833    0.5138 O   0  0  0  0  0  0  0  0  0  0  0  0
   -1.0364   -1.8506   -2.1285 C   0  0  0  0  0  0  0  0  0  0  0  0
   -3.5631   -0.6202   -0.5206 H   0  0  0  0  0  0  0  0  0  0  0  0
   -2.0301   -2.9174   -0.5360 H   0  0  0  0  0  0  0  0  0  0  0  0
   -0.8921   -0.8236   -2.4833 H   0  0  0  0  0  0  0  0  0  0  0  0
   -0.0457   -2.2777   -1.9410 H   0  0  0  0  0  0  0  0  0  0  0  0
   -1.5052   -2.4193   -2.9387 H   0  0  0  0  0  0  0  0  0  0  0  0
   -0.2267   -1.7335    0.8672 N   0  0  0  0  0  0  0  0  0  0  0  0
    0.5363   -1.1590    1.9465 C   0  0  2  0  0  0  0  0  0  0  0  0
    1.3050   -2.2962    2.6095 C   0  0  0  0  0  0  0  0  0  0  0  0
    1.1341   -2.6273    3.7810 O   0  0  0  0  0  0  0  0  0  0  0  0
   -0.3594   -0.4534    2.9621 C   0  0  0  0  0  0  0  0  0  0  0  0
   -1.0440    0.8350    2.4883 C   0  0  0  0  0  0  0  0  0  0  0  0
   -0.3980    1.4673    1.6029 O   0  5  0  0  0  0  0  0  0  0  0  0
   -2.1473    1.1206    3.0287 O   0  0  0  0  0  0  0  0  0  0  0  0
   -0.0113   -2.6869    0.5854 H   0  0  0  0  0  0  0  0  0  0  0  0
    1.2476   -0.4599    1.4925 H   0  0  0  0  0  0  0  0  0  0  0  0
    0.2213   -0.2149    3.8637 H   0  0  0  0  0  0  0  0  0  0  0  0
   -1.1622   -1.1312    3.2804 H   0  0  0  0  0  0  0  0  0  0  0  0
    2.1654   -2.9302    1.7240 N   0  0  0  0  0  0  0  0  0  0  0  0
    2.9832   -4.0595    2.1013 C   0  0  2  0  0  0  0  0  0  0  0  0
    4.2607   -4.0125    1.2736 C   0  0  0  0  0  0  0  0  0  0  0  0
    4.3436   -3.4176    0.2011 O   0  0  0  0  0  0  0  0  0  0  0  0
    2.2456   -5.3723    1.8886 C   0  0  0  0  0  0  0  0  0  0  0  0
    2.2068   -2.6182    0.7582 H   0  0  0  0  0  0  0  0  0  0  0  0
    3.2291   -3.9318    3.1612 H   0  0  0  0  0  0  0  0  0  0  0  0
    1.9908   -5.5177    0.8325 H   0  0  0  0  0  0  0  0  0  0  0  0
    2.8562   -6.2256    2.2019 H   0  0  0  0  0  0  0  0  0  0  0  0
    1.3123   -5.3922    2.4615 H   0  0  0  0  0  0  0  0  0  0  0  0
    5.2848   -4.7490    1.8522 N   0  0  0  0  0  0  0  0  0  0  0  0
    6.5931   -4.8702    1.2524 C   0  0  0  0  0  0  0  0  0  0  0  0
    5.1331   -5.1942    2.7525 H   0  0  0  0  0  0  0  0  0  0  0  0
    6.6250   -5.7695    0.6197 H   0  0  0  0  0  0  0  0  0  0  0  0
    6.7980   -3.9817    0.6371 H   0  0  0  0  0  0  0  0  0  0  0  0
    7.3530   -4.9515    2.0435 H   0  0  0  0  0  0  0  0  0  0  0  0
  1  3  1  0  0  0  0
  1  7  1  0  0  0  0
  1  2  2  0  0  0  0
 30 31  1  0  0  0  0
 31 39  1  0  0  0  0
 31 32  2  0  0  0  0
  8  9  1  0  0  0  0
  9 17  1  0  0  0  0
  9 10  2  0  0  0  0
 18 19  1  0  0  0  0
 19 29  1  0  0  0  0
 19 20  2  0  0  0  0
 21 22  1  0  0  0  0
 22 23  1  0  0  0  0
 22 24  2  0  0  0  0
 30 33  1  0  0  0  0
  8 11  1  0  0  0  0
 39 40  1  0  0  0  0
 18 21  1  0  0  0  0
 29 30  1  0  0  0  0
  7  8  1  0  0  0  0
 17 18  1  0  0  0  0
  3  4  1  0  0  0  0
  3  5  1  0  0  0  0
  3  6  1  0  0  0  0
 33 36  1  0  0  0  0
 33 37  1  0  0  0  0
 33 38  1  0  0  0  0
 11 14  1  0  0  0  0
 11 15  1  0  0  0  0
 11 16  1  0  0  0  0
 40 42  1  0  0  0  0
 40 43  1  0  0  0  0
 40 44  1  0  0  0  0
 21 27  1  0  0  0  0
 21 28  1  0  0  0  0
 30 35  1  0  0  0  0
  8 13  1  0  0  0  0
 18 26  1  0  0  0  0
 39 41  1  0  0  0  0
  7 12  1  0  0  0  0
 29 34  1  0  0  0  0
 17 25  1  0  0  0  0
M  CHG  1  23  -1
M  END
$$$$

  -OEChem-05262214473D

 44 43  0     1  0  0  0  0  0999 V2000
   -4.0256   -1.8030   -2.1581 C   0  0  0  0  0  0  0  0  0  0  0  0
   -3.7513   -2.6782   -2.9709 O   0  0  0  0  0  0  0  0  0  0  0  0
   -5.3491   -1.1169   -2.2339 C   0  0  0  0  0  0  0  0  0  0  0  0
   -5.3223   -0.2211   -2.8750 H   0  0  0  0  0  0  0  0  0  0  0  0
   -6.1322   -1.7605   -2.6658 H   0  0  0  0  0  0  0  0  0  0  0  0
   -5.7568   -0.7715   -1.2704 H   0  0  0  0  0  0  0  0  0  0  0  0
   -3.2124   -1.3578   -1.1289 N   0  0  0  0  0  0  0  0  0  0  0  0
   -1.8971   -1.8843   -0.8752 C   0  0  2  0  0  0  0  0  0  0  0  0
   -1.2676   -1.0599    0.2399 C   0  0  0  0  0  0  0  0  0  0  0  0
   -1.6270    0.0833    0.5138 O   0  0  0  0  0  0  0  0  0  0  0  0
   -1.0364   -1.8506   -2.1285 C   0  0  0  0  0  0  0  0  0  0  0  0
   -3.5631   -0.6202   -0.5206 H   0  0  0  0  0  0  0  0  0  0  0  0
   -2.0301   -2.9174   -0.5360 H   0  0  0  0  0  0  0  0  0  0  0  0
   -0.8921   -0.8236   -2.4833 H   0  0  0  0  0  0  0  0  0  0  0  0
   -0.0457   -2.2777   -1.9410 H   0  0  0  0  0  0  0  0  0  0  0  0
   -1.5052   -2.4193   -2.9387 H   0  0  0  0  0  0  0  0  0  0  0  0
   -0.2267   -1.7335    0.8672 N   0  0  0  0  0  0  0  0  0  0  0  0
    0.5363   -1.1590    1.9465 C   0  0  2  0  0  0  0  0  0  0  0  0
    1.3050   -2.2962    2.6095 C   0  0  0  0  0  0  0  0  0  0  0  0
    0.9626   -2.8052    3.6748 O   0  0  0  0  0  0  0  0  0  0  0  0
   -0.3594   -0.4534    2.9621 C   0  0  0  0  0  0  0  0  0  0  0  0
   -1.0440    0.8350    2.4883 C   0  0  0  0  0  0  0  0  0  0  0  0
   -0.3980    1.4673    1.6029 O   0  5  0  0  0  0  0  0  0  0  0  0
   -2.1473    1.1206    3.0287 O   0  0  0  0  0  0  0  0  0  0  0  0
   -0.0113   -2.6869    0.5854 H   0  0  0  0  0  0  0  0  0  0  0  0
    1.2476   -0.4599    1.4925 H   0  0  0  0  0  0  0  0  0  0  0  0
    0.2213   -0.2149    3.8637 H   0  0  0  0  0  0  0  0  0  0  0  0
   -1.1622   -1.1312    3.2804 H   0  0  0  0  0  0  0  0  0  0  0  0
    2.3874   -2.7094    1.8453 N   0  0  0  0  0  0  0  0  0  0  0  0
    3.2559   -3.7935    2.2413 C   0  0  2  0  0  0  0  0  0  0  0  0
    4.6487   -3.5026    1.6983 C   0  0  0  0  0  0  0  0  0  0  0  0
    4.8540   -2.7565    0.7431 O   0  0  0  0  0  0  0  0  0  0  0  0
    2.7413   -5.1299    1.7297 C   0  0  0  0  0  0  0  0  0  0  0  0
    2.5679   -2.2613    0.9518 H   0  0  0  0  0  0  0  0  0  0  0  0
    3.2829   -3.7932    3.3364 H   0  0  0  0  0  0  0  0  0  0  0  0
    2.7072   -5.1491    0.6343 H   0  0  0  0  0  0  0  0  0  0  0  0
    3.3851   -5.9538    2.0548 H   0  0  0  0  0  0  0  0  0  0  0  0
    1.7277   -5.3238    2.0972 H   0  0  0  0  0  0  0  0  0  0  0  0
    5.6318   -4.2077    2.3783 N   0  0  0  0  0  0  0  0  0  0  0  0
    7.0333   -4.1117    2.0429 C   0  0  0  0  0  0  0  0  0  0  0  0
    5.3727   -4.7888    3.1701 H   0  0  0  0  0  0  0  0  0  0  0  0
    7.2946   -4.9047    1.3267 H   0  0  0  0  0  0  0  0  0  0  0  0
    7.2358   -3.1291    1.5919 H   0  0  0  0  0  0  0  0  0  0  0  0
    7.6373   -4.2280    2.9549 H   0  0  0  0  0  0  0  0  0  0  0  0
  1  3  1  0  0  0  0
  1  7  1  0  0  0  0
  1  2  2  0  0  0  0
 30 31  1  0  0  0  0
 31 39  1  0  0  0  0
 31 32  2  0  0  0  0
  8  9  1  0  0  0  0
  9 17  1  0  0  0  0
  9 10  2  0  0  0  0
 18 19  1  0  0  0  0
 19 29  1  0  0  0  0
 19 20  2  0  0  0  0
 21 22  1  0  0  0  0
 22 23  1  0  0  0  0
 22 24  2  0  0  0  0
 30 33  1  0  0  0  0
  8 11  1  0  0  0  0
 39 40  1  0  0  0  0
 18 21  1  0  0  0  0
 29 30  1  0  0  0  0
  7  8  1  0  0  0  0
 17 18  1  0  0  0  0
  3  4  1  0  0  0  0
  3  5  1  0  0  0  0
  3  6  1  0  0  0  0
 33 36  1  0  0  0  0
 33 37  1  0  0  0  0
 33 38  1  0  0  0  0
 11 14  1  0  0  0  0
 11 15  1  0  0  0  0
 11 16  1  0  0  0  0
 40 42  1  0  0  0  0
 40 43  1  0  0  0  0
 40 44  1  0  0  0  0
 21 27  1  0  0  0  0
 21 28  1  0  0  0  0
 30 35  1  0  0  0  0
  8 13  1  0  0  0  0
 18 26  1  0  0  0  0
 39 41  1  0  0  0  0
  7 12  1  0  0  0  0
 29 34  1  0  0  0  0
 17 25  1  0  0  0  0
M  CHG  1  23  -1
M  END
$$$$

  -OEChem-05262214473D

 44 43  0     1  0  0  0  0  0999 V2000
   -4.0256   -1.8030   -2.1581 C   0  0  0  0  0  0  0  0  0  0  0  0
   -3.7513   -2.6782   -2.9709 O   0  0  0  0  0  0  0  0  0  0  0  0
   -5.3491   -1.1169   -2.2339 C   0  0  0  0  0  0  0  0  0  0  0  0
   -5.3223   -0.2211   -2.8750 H   0  0  0  0  0  0  0  0  0  0  0  0
   -6.1322   -1.7605   -2.6658 H   0  0  0  0  0  0  0  0  0  0  0  0
   -5.7568   -0.7715   -1.2704 H   0  0  0  0  0  0  0  0  0  0  0  0
   -3.2124   -1.3578   -1.1289 N   0  0  0  0  0  0  0  0  0  0  0  0
   -1.8971   -1.8843   -0.8752 C   0  0  2  0  0  0  0  0  0  0  0  0
   -1.2676   -1.0599    0.2399 C   0  0  0  0  0  0  0  0  0  0  0  0
   -1.6270    0.0833    0.5138 O   0  0  0  0  0  0  0  0  0  0  0  0
   -1.0364   -1.8506   -2.1285 C   0  0  0  0  0  0  0  0  0  0  0  0
   -3.5631   -0.6202   -0.5206 H   0  0  0  0  0  0  0  0  0  0  0  0
   -2.0301   -2.9174   -0.5360 H   0  0  0  0  0  0  0  0  0  0  0  0
   -0.8921   -0.8236   -2.4833 H   0  0  0  0  0  0  0  0  0  0  0  0
   -0.0457   -2.2777   -1.9410 H   0  0  0  0  0  0  0  0  0  0  0  0
   -1.5052   -2.4193   -2.9387 H   0  0  0  0  0  0  0  0  0  0  0  0
   -0.2267   -1.7335    0.8672 N   0  0  0  0  0  0  0  0  0  0  0  0
    0.5363   -1.1590    1.9465 C   0  0  2  0  0  0  0  0  0  0  0  0
    1.3050   -2.2962    2.6095 C   0  0  0  0  0  0  0  0  0  0  0  0
    0.8374   -2.9825    3.5159 O   0  0  0  0  0  0  0  0  0  0  0  0
   -0.3594   -0.4534    2.9621 C   0  0  0  0  0  0  0  0  0  0  0  0
   -1.0440    0.8350    2.4883 C   0  0  0  0  0  0  0  0  0  0  0  0
   -0.3980    1.4673    1.6029 O   0  5  0  0  0  0  0  0  0  0  0  0
   -2.1473    1.1206    3.0287 O   0  0  0  0  0  0  0  0  0  0  0  0
   -0.0113   -2.6869    0.5854 H   0  0  0  0  0  0  0  0  0  0  0  0
    1.2476   -0.4599    1.4925 H   0  0  0  0  0  0  0  0  0  0  0  0
    0.2213   -0.2149    3.8637 H   0  0  0  0  0  0  0  0  0  0  0  0
   -1.1622   -1.1312    3.2804 H   0  0  0  0  0  0  0  0  0  0  0  0
    2.5535   -2.4870    2.0342 N   0  0  0  0  0  0  0  0  0  0  0  0
    3.4624   -3.5241    2.4639 C   0  0  2  0  0  0  0  0  0  0  0  0
    4.8842   -3.0218    2.2499 C   0  0  0  0  0  0  0  0  0  0  0  0
    5.1680   -2.1313    1.4514 O   0  0  0  0  0  0  0  0  0  0  0  0
    3.2234   -4.8193    1.7036 C   0  0  0  0  0  0  0  0  0  0  0  0
    2.8391   -1.9011    1.2550 H   0  0  0  0  0  0  0  0  0  0  0  0
    3.2854   -3.6762    3.5342 H   0  0  0  0  0  0  0  0  0  0  0  0
    3.3959   -4.6865    0.6293 H   0  0  0  0  0  0  0  0  0  0  0  0
    3.8939   -5.6125    2.0504 H   0  0  0  0  0  0  0  0  0  0  0  0
    2.1917   -5.1633    1.8345 H   0  0  0  0  0  0  0  0  0  0  0  0
    5.8045   -3.7145    3.0242 N   0  0  0  0  0  0  0  0  0  0  0  0
    7.2206   -3.4327    2.9906 C   0  0  0  0  0  0  0  0  0  0  0  0
    5.4778   -4.4248    3.6727 H   0  0  0  0  0  0  0  0  0  0  0  0
    7.7076   -4.0861    2.2518 H   0  0  0  0  0  0  0  0  0  0  0  0
    7.3785   -2.3808    2.7100 H   0  0  0  0  0  0  0  0  0  0  0  0
    7.6545   -3.6160    3.9846 H   0  0  0  0  0  0  0  0  0  0  0  0
  1  3  1  0  0  0  0
  1  7  1  0  0  0  0
  1  2  2  0  0  0  0
 30 31  1  0  0  0  0
 31 39  1  0  0  0  0
 31 32  2  0  0  0  0
  8  9  1  0  0  0  0
  9 17  1  0  0  0  0
  9 10  2  0  0  0  0
 18 19  1  0  0  0  0
 19 29  1  0  0  0  0
 19 20  2  0  0  0  0
 21 22  1  0  0  0  0
 22 23  1  0  0  0  0
 22 24  2  0  0  0  0
 30 33  1  0  0  0  0
  8 11  1  0  0  0  0
 39 40  1  0  0  0  0
 18 21  1  0  0  0  0
 29 30  1  0  0  0  0
  7  8  1  0  0  0  0
 17 18  1  0  0  0  0
  3  4  1  0  0  0  0
  3  5  1  0  0  0  0
  3  6  1  0  0  0  0
 33 36  1  0  0  0  0
 33 37  1  0  0  0  0
 33 38  1  0  0  0  0
 11 14  1  0  0  0  0
 11 15  1  0  0  0  0
 11 16  1  0  0  0  0
 40 42  1  0  0  0  0
 40 43  1  0  0  0  0
 40 44  1  0  0  0  0
 21 27  1  0  0  0  0
 21 28  1  0  0  0  0
 30 35  1  0  0  0  0
  8 13  1  0  0  0  0
 18 26  1  0  0  0  0
 39 41  1  0  0  0  0
  7 12  1  0  0  0  0
 29 34  1  0  0  0  0
 17 25  1  0  0  0  0
M  CHG  1  23  -1
M  END
$$$$

  -OEChem-05262214473D

 44 43  0     1  0  0  0  0  0999 V2000
   -4.0256   -1.8030   -2.1581 C   0  0  0  0  0  0  0  0  0  0  0  0
   -3.7513   -2.6782   -2.9709 O   0  0  0  0  0  0  0  0  0  0  0  0
   -5.3491   -1.1169   -2.2339 C   0  0  0  0  0  0  0  0  0  0  0  0
   -5.3223   -0.2211   -2.8750 H   0  0  0  0  0  0  0  0  0  0  0  0
   -6.1322   -1.7605   -2.6658 H   0  0  0  0  0  0  0  0  0  0  0  0
   -5.7568   -0.7715   -1.2704 H   0  0  0  0  0  0  0  0  0  0  0  0
   -3.2124   -1.3578   -1.1289 N   0  0  0  0  0  0  0  0  0  0  0  0
   -1.8971   -1.8843   -0.8752 C   0  0  2  0  0  0  0  0  0  0  0  0
   -1.2676   -1.0599    0.2399 C   0  0  0  0  0  0  0  0  0  0  0  0
   -1.6270    0.0833    0.5138 O   0  0  0  0  0  0  0  0  0  0  0  0
   -1.0364   -1.8506   -2.1285 C   0  0  0  0  0  0  0  0  0  0  0  0
   -3.5631   -0.6202   -0.5206 H   0  0  0  0  0  0  0  0  0  0  0  0
   -2.0301   -2.9174   -0.5360 H   0  0  0  0  0  0  0  0  0  0  0  0
   -0.8921   -0.8236   -2.4833 H   0  0  0  0  0  0  0  0  0  0  0  0
   -0.0457   -2.2777   -1.9410 H   0  0  0  0  0  0  0  0  0  0  0  0
   -1.5052   -2.4193   -2.9387 H   0  0  0  0  0  0  0  0  0  0  0  0
   -0.2267   -1.7335    0.8672 N   0  0  0  0  0  0  0  0  0  0  0  0
    0.5363   -1.1590    1.9465 C   0  0  2  0  0  0  0  0  0  0  0  0
    1.3050   -2.2962    2.6095 C   0  0  0  0  0  0  0  0  0  0  0  0
    0.7671   -3.1471    3.3151 O   0  0  0  0  0  0  0  0  0  0  0  0
   -0.3594   -0.4534    2.9621 C   0  0  0  0  0  0  0  0  0  0  0  0
   -1.0440    0.8350    2.4883 C   0  0  0  0  0  0  0  0  0  0  0  0
   -0.3980    1.4673    1.6029 O   0  5  0  0  0  0  0  0  0  0  0  0
   -2.1473    1.1206    3.0287 O   0  0  0  0  0  0  0  0  0  0  0  0
   -0.0113   -2.6869    0.5854 H   0  0  0  0  0  0  0  0  0  0  0  0
    1.2476   -0.4599    1.4925 H   0  0  0  0  0  0  0  0  0  0  0  0
    0.2213   -0.2149    3.8637 H   0  0  0  0  0  0  0  0  0  0  0  0
   -1.1622   -1.1312    3.2804 H   0  0  0  0  0  0  0  0  0  0  0  0
    2.6525   -2.2781    2.2777 N   0  0  0  0  0  0  0  0  0  0  0  0
    3.5886   -3.2697    2.7539 C   0  0  2  0  0  0  0  0  0  0  0  0
    4.9509   -2.6029    2.8910 C   0  0  0  0  0  0  0  0  0  0  0  0
    5.2641   -1.5845    2.2779 O   0  0  0  0  0  0  0  0  0  0  0  0
    3.6591   -4.4615    1.8120 C   0  0  0  0  0  0  0  0  0  0  0  0
    3.0020   -1.5623    1.6473 H   0  0  0  0  0  0  0  0  0  0  0  0
    3.2365   -3.5887    3.7410 H   0  0  0  0  0  0  0  0  0  0  0  0
    4.0100   -4.1614    0.8178 H   0  0  0  0  0  0  0  0  0  0  0  0
    4.3477   -5.2250    2.1889 H   0  0  0  0  0  0  0  0  0  0  0  0
    2.6725   -4.9218    1.6912 H   0  0  0  0  0  0  0  0  0  0  0  0
    5.7910   -3.3029    3.7457 N   0  0  0  0  0  0  0  0  0  0  0  0
    7.1421   -2.8793    4.0307 C   0  0  0  0  0  0  0  0  0  0  0  0
    5.4414   -4.1269    4.2259 H   0  0  0  0  0  0  0  0  0  0  0  0
    7.8358   -3.3698    3.3320 H   0  0  0  0  0  0  0  0  0  0  0  0
    7.2161   -1.7879    3.9151 H   0  0  0  0  0  0  0  0  0  0  0  0
    7.4034   -3.1574    5.0624 H   0  0  0  0  0  0  0  0  0  0  0  0
  1  3  1  0  0  0  0
  1  7  1  0  0  0  0
  1  2  2  0  0  0  0
 30 31  1  0  0  0  0
 31 39  1  0  0  0  0
 31 32  2  0  0  0  0
  8  9  1  0  0  0  0
  9 17  1  0  0  0  0
  9 10  2  0  0  0  0
 18 19  1  0  0  0  0
 19 29  1  0  0  0  0
 19 20  2  0  0  0  0
 21 22  1  0  0  0  0
 22 23  1  0  0  0  0
 22 24  2  0  0  0  0
 30 33  1  0  0  0  0
  8 11  1  0  0  0  0
 39 40  1  0  0  0  0
 18 21  1  0  0  0  0
 29 30  1  0  0  0  0
  7  8  1  0  0  0  0
 17 18  1  0  0  0  0
  3  4  1  0  0  0  0
  3  5  1  0  0  0  0
  3  6  1  0  0  0  0
 33 36  1  0  0  0  0
 33 37  1  0  0  0  0
 33 38  1  0  0  0  0
 11 14  1  0  0  0  0
 11 15  1  0  0  0  0
 11 16  1  0  0  0  0
 40 42  1  0  0  0  0
 40 43  1  0  0  0  0
 40 44  1  0  0  0  0
 21 27  1  0  0  0  0
 21 28  1  0  0  0  0
 30 35  1  0  0  0  0
  8 13  1  0  0  0  0
 18 26  1  0  0  0  0
 39 41  1  0  0  0  0
  7 12  1  0  0  0  0
 29 34  1  0  0  0  0
 17 25  1  0  0  0  0
M  CHG  1  23  -1
M  END
$$$$

  -OEChem-05262214473D

 44 43  0     1  0  0  0  0  0999 V2000
   -4.0256   -1.8030   -2.1581 C   0  0  0  0  0  0  0  0  0  0  0  0
   -3.7513   -2.6782   -2.9709 O   0  0  0  0  0  0  0  0  0  0  0  0
   -5.3491   -1.1169   -2.2339 C   0  0  0  0  0  0  0  0  0  0  0  0
   -5.3223   -0.2211   -2.8750 H   0  0  0  0  0  0  0  0  0  0  0  0
   -6.1322   -1.7605   -2.6658 H   0  0  0  0  0  0  0  0  0  0  0  0
   -5.7568   -0.7715   -1.2704 H   0  0  0  0  0  0  0  0  0  0  0  0
   -3.2124   -1.3578   -1.1289 N   0  0  0  0  0  0  0  0  0  0  0  0
   -1.8971   -1.8843   -0.8752 C   0  0  2  0  0  0  0  0  0  0  0  0
   -1.2676   -1.0599    0.2399 C   0  0  0  0  0  0  0  0  0  0  0  0
   -1.6270    0.0833    0.5138 O   0  0  0  0  0  0  0  0  0  0  0  0
   -1.0364   -1.8506   -2.1285 C   0  0  0  0  0  0  0  0  0  0  0  0
   -3.5631   -0.6202   -0.5206 H   0  0  0  0  0  0  0  0  0  0  0  0
   -2.0301   -2.9174   -0.5360 H   0  0  0  0  0  0  0  0  0  0  0  0
   -0.8921   -0.8236   -2.4833 H   0  0  0  0  0  0  0  0  0  0  0  0
   -0.0457   -2.2777   -1.9410 H   0  0  0  0  0  0  0  0  0  0  0  0
   -1.5052   -2.4193   -2.9387 H   0  0  0  0  0  0  0  0  0  0  0  0
   -0.2267   -1.7335    0.8672 N   0  0  0  0  0  0  0  0  0  0  0  0
    0.5363   -1.1590    1.9465 C   0  0  2  0  0  0  0  0  0  0  0  0
    1.3050   -2.2962    2.6095 C   0  0  0  0  0  0  0  0  0  0  0  0
    0.7565   -3.2878    3.0861 O   0  0  0  0  0  0  0  0  0  0  0  0
   -0.3594   -0.4534    2.9621 C   0  0  0  0  0  0  0  0  0  0  0  0
   -1.0440    0.8350    2.4883 C   0  0  0  0  0  0  0  0  0  0  0  0
   -0.3980    1.4673    1.6029 O   0  5  0  0  0  0  0  0  0  0  0  0
   -2.1473    1.1206    3.0287 O   0  0  0  0  0  0  0  0  0  0  0  0
   -0.0113   -2.6869    0.5854 H   0  0  0  0  0  0  0  0  0  0  0  0
    1.2476   -0.4599    1.4925 H   0  0  0  0  0  0  0  0  0  0  0  0
    0.2213   -0.2149    3.8637 H   0  0  0  0  0  0  0  0  0  0  0  0
   -1.1622   -1.1312    3.2804 H   0  0  0  0  0  0  0  0  0  0  0  0
    2.6776   -2.0970    2.5593 N   0  0  0  0  0  0  0  0  0  0  0  0
    3.6258   -3.0477    3.0916 C   0  0  2  0  0  0  0  0  0  0  0  0
    4.8445   -2.2744    3.5778 C   0  0  0  0  0  0  0  0  0  0  0  0
    5.1358   -1.1534    3.1661 O   0  0  0  0  0  0  0  0  0  0  0  0
    4.0189   -4.0811    2.0475 C   0  0  0  0  0  0  0  0  0  0  0  0
    3.0454   -1.2679    2.1019 H   0  0  0  0  0  0  0  0  0  0  0  0
    3.1395   -3.5367    3.9427 H   0  0  0  0  0  0  0  0  0  0  0  0
    4.5077   -3.6098    1.1870 H   0  0  0  0  0  0  0  0  0  0  0  0
    4.7157   -4.8177    2.4609 H   0  0  0  0  0  0  0  0  0  0  0  0
    3.1374   -4.6157    1.6772 H   0  0  0  0  0  0  0  0  0  0  0  0
    5.5924   -3.0011    4.4937 N   0  0  0  0  0  0  0  0  0  0  0  0
    6.8031   -2.4895    5.0924 C   0  0  0  0  0  0  0  0  0  0  0  0
    5.2658   -3.9154    4.7922 H   0  0  0  0  0  0  0  0  0  0  0  0
    7.6703   -2.8044    4.4935 H   0  0  0  0  0  0  0  0  0  0  0  0
    6.7598   -1.3908    5.1253 H   0  0  0  0  0  0  0  0  0  0  0  0
    6.9012   -2.8833    6.1148 H   0  0  0  0  0  0  0  0  0  0  0  0
  1  3  1  0  0  0  0
  1  7  1  0  0  0  0
  1  2  2  0  0  0  0
 30 31  1  0  0  0  0
 31 39  1  0  0  0  0
 31 32  2  0  0  0  0
  8  9  1  0  0  0  0
  9 17  1  0  0  0  0
  9 10  2  0  0  0  0
 18 19  1  0  0  0  0
 19 29  1  0  0  0  0
 19 20  2  0  0  0  0
 21 22  1  0  0  0  0
 22 23  1  0  0  0  0
 22 24  2  0  0  0  0
 30 33  1  0  0  0  0
  8 11  1  0  0  0  0
 39 40  1  0  0  0  0
 18 21  1  0  0  0  0
 29 30  1  0  0  0  0
  7  8  1  0  0  0  0
 17 18  1  0  0  0  0
  3  4  1  0  0  0  0
  3  5  1  0  0  0  0
  3  6  1  0  0  0  0
 33 36  1  0  0  0  0
 33 37  1  0  0  0  0
 33 38  1  0  0  0  0
 11 14  1  0  0  0  0
 11 15  1  0  0  0  0
 11 16  1  0  0  0  0
 40 42  1  0  0  0  0
 40 43  1  0  0  0  0
 40 44  1  0  0  0  0
 21 27  1  0  0  0  0
 21 28  1  0  0  0  0
 30 35  1  0  0  0  0
  8 13  1  0  0  0  0
 18 26  1  0  0  0  0
 39 41  1  0  0  0  0
  7 12  1  0  0  0  0
 29 34  1  0  0  0  0
 17 25  1  0  0  0  0
M  CHG  1  23  -1
M  END
$$$$

  -OEChem-05262214473D

 44 43  0     1  0  0  0  0  0999 V2000
   -4.0256   -1.8030   -2.1581 C   0  0  0  0  0  0  0  0  0  0  0  0
   -3.7513   -2.6782   -2.9709 O   0  0  0  0  0  0  0  0  0  0  0  0
   -5.3491   -1.1169   -2.2339 C   0  0  0  0  0  0  0  0  0  0  0  0
   -5.3223   -0.2211   -2.8750 H   0  0  0  0  0  0  0  0  0  0  0  0
   -6.1322   -1.7605   -2.6658 H   0  0  0  0  0  0  0  0  0  0  0  0
   -5.7568   -0.7715   -1.2704 H   0  0  0  0  0  0  0  0  0  0  0  0
   -3.2124   -1.3578   -1.1289 N   0  0  0  0  0  0  0  0  0  0  0  0
   -1.8971   -1.8843   -0.8752 C   0  0  2  0  0  0  0  0  0  0  0  0
   -1.2676   -1.0599    0.2399 C   0  0  0  0  0  0  0  0  0  0  0  0
   -1.6270    0.0833    0.5138 O   0  0  0  0  0  0  0  0  0  0  0  0
   -1.0364   -1.8506   -2.1285 C   0  0  0  0  0  0  0  0  0  0  0  0
   -3.5631   -0.6202   -0.5206 H   0  0  0  0  0  0  0  0  0  0  0  0
   -2.0301   -2.9174   -0.5360 H   0  0  0  0  0  0  0  0  0  0  0  0
   -0.8921   -0.8236   -2.4833 H   0  0  0  0  0  0  0  0  0  0  0  0
   -0.0457   -2.2777   -1.9410 H   0  0  0  0  0  0  0  0  0  0  0  0
   -1.5052   -2.4193   -2.9387 H   0  0  0  0  0  0  0  0  0  0  0  0
   -0.2267   -1.7335    0.8672 N   0  0  0  0  0  0  0  0  0  0  0  0
    0.5363   -1.1590    1.9465 C   0  0  2  0  0  0  0  0  0  0  0  0
    1.3050   -2.2962    2.6095 C   0  0  0  0  0  0  0  0  0  0  0  0
    0.8063   -3.3950    2.8444 O   0  0  0  0  0  0  0  0  0  0  0  0
   -0.3594   -0.4534    2.9621 C   0  0  0  0  0  0  0  0  0  0  0  0
   -1.0440    0.8350    2.4883 C   0  0  0  0  0  0  0  0  0  0  0  0
   -0.3980    1.4673    1.6029 O   0  5  0  0  0  0  0  0  0  0  0  0
   -2.1473    1.1206    3.0287 O   0  0  0  0  0  0  0  0  0  0  0  0
   -0.0113   -2.6869    0.5854 H   0  0  0  0  0  0  0  0  0  0  0  0
    1.2476   -0.4599    1.4925 H   0  0  0  0  0  0  0  0  0  0  0  0
    0.2213   -0.2149    3.8637 H   0  0  0  0  0  0  0  0  0  0  0  0
   -1.1622   -1.1312    3.2804 H   0  0  0  0  0  0  0  0  0  0  0  0
    2.6271   -1.9560    2.8597 N   0  0  0  0  0  0  0  0  0  0  0  0
    3.5716   -2.8731    3.4540 C   0  0  2  0  0  0  0  0  0  0  0  0
    4.5721   -2.0588    4.2636 C   0  0  0  0  0  0  0  0  0  0  0  0
    4.7919   -0.8673    4.0555 O   0  0  0  0  0  0  0  0  0  0  0  0
    4.2780   -3.7038    2.3941 C   0  0  0  0  0  0  0  0  0  0  0  0
    2.9665   -1.0380    2.5878 H   0  0  0  0  0  0  0  0  0  0  0  0
    3.0009   -3.5237    4.1256 H   0  0  0  0  0  0  0  0  0  0  0  0
    4.8551   -3.0691    1.7117 H   0  0  0  0  0  0  0  0  0  0  0  0
    4.9728   -4.4183    2.8478 H   0  0  0  0  0  0  0  0  0  0  0  0
    3.5548   -4.2659    1.7934 H   0  0  0  0  0  0  0  0  0  0  0  0
    5.2221   -2.8295    5.2173 N   0  0  0  0  0  0  0  0  0  0  0  0
    6.2267   -2.2896    6.1034 C   0  0  0  0  0  0  0  0  0  0  0  0
    4.9630   -3.8049    5.3328 H   0  0  0  0  0  0  0  0  0  0  0  0
    7.2226   -2.4285    5.6574 H   0  0  0  0  0  0  0  0  0  0  0  0
    6.0407   -1.2165    6.2580 H   0  0  0  0  0  0  0  0  0  0  0  0
    6.1820   -2.8125    7.0702 H   0  0  0  0  0  0  0  0  0  0  0  0
  1  3  1  0  0  0  0
  1  7  1  0  0  0  0
  1  2  2  0  0  0  0
 30 31  1  0  0  0  0
 31 39  1  0  0  0  0
 31 32  2  0  0  0  0
  8  9  1  0  0  0  0
  9 17  1  0  0  0  0
  9 10  2  0  0  0  0
 18 19  1  0  0  0  0
 19 29  1  0  0  0  0
 19 20  2  0  0  0  0
 21 22  1  0  0  0  0
 22 23  1  0  0  0  0
 22 24  2  0  0  0  0
 30 33  1  0  0  0  0
  8 11  1  0  0  0  0
 39 40  1  0  0  0  0
 18 21  1  0  0  0  0
 29 30  1  0  0  0  0
  7  8  1  0  0  0  0
 17 18  1  0  0  0  0
  3  4  1  0  0  0  0
  3  5  1  0  0  0  0
  3  6  1  0  0  0  0
 33 36  1  0  0  0  0
 33 37  1  0  0  0  0
 33 38  1  0  0  0  0
 11 14  1  0  0  0  0
 11 15  1  0  0  0  0
 11 16  1  0  0  0  0
 40 42  1  0  0  0  0
 40 43  1  0  0  0  0
 40 44  1  0  0  0  0
 21 27  1  0  0  0  0
 21 28  1  0  0  0  0
 30 35  1  0  0  0  0
  8 13  1  0  0  0  0
 18 26  1  0  0  0  0
 39 41  1  0  0  0  0
  7 12  1  0  0  0  0
 29 34  1  0  0  0  0
 17 25  1  0  0  0  0
M  CHG  1  23  -1
M  END
$$$$

  -OEChem-05262214473D

 44 43  0     1  0  0  0  0  0999 V2000
   -4.0256   -1.8030   -2.1581 C   0  0  0  0  0  0  0  0  0  0  0  0
   -3.7513   -2.6782   -2.9709 O   0  0  0  0  0  0  0  0  0  0  0  0
   -5.3491   -1.1169   -2.2339 C   0  0  0  0  0  0  0  0  0  0  0  0
   -5.3223   -0.2211   -2.8750 H   0  0  0  0  0  0  0  0  0  0  0  0
   -6.1322   -1.7605   -2.6658 H   0  0  0  0  0  0  0  0  0  0  0  0
   -5.7568   -0.7715   -1.2704 H   0  0  0  0  0  0  0  0  0  0  0  0
   -3.2124   -1.3578   -1.1289 N   0  0  0  0  0  0  0  0  0  0  0  0
   -1.8971   -1.8843   -0.8752 C   0  0  2  0  0  0  0  0  0  0  0  0
   -1.2676   -1.0599    0.2399 C   0  0  0  0  0  0  0  0  0  0  0  0
   -1.6270    0.0833    0.5138 O   0  0  0  0  0  0  0  0  0  0  0  0
   -1.0364   -1.8506   -2.1285 C   0  0  0  0  0  0  0  0  0  0  0  0
   -3.5631   -0.6202   -0.5206 H   0  0  0  0  0  0  0  0  0  0  0  0
   -2.0301   -2.9174   -0.5360 H   0  0  0  0  0  0  0  0  0  0  0  0
   -0.8921   -0.8236   -2.4833 H   0  0  0  0  0  0  0  0  0  0  0  0
   -0.0457   -2.2777   -1.9410 H   0  0  0  0  0  0  0  0  0  0  0  0
   -1.5052   -2.4193   -2.9387 H   0  0  0  0  0  0  0  0  0  0  0  0
   -0.2267   -1.7335    0.8672 N   0  0  0  0  0  0  0  0  0  0  0  0
    0.5363   -1.1590    1.9465 C   0  0  2  0  0  0  0  0  0  0  0  0
    1.3050   -2.2962    2.6095 C   0  0  0  0  0  0  0  0  0  0  0  0
    0.9131   -3.4614    2.6067 O   0  0  0  0  0  0  0  0  0  0  0  0
   -0.3594   -0.4534    2.9621 C   0  0  0  0  0  0  0  0  0  0  0  0
   -1.0440    0.8350    2.4883 C   0  0  0  0  0  0  0  0  0  0  0  0
   -0.3980    1.4673    1.6029 O   0  5  0  0  0  0  0  0  0  0  0  0
   -2.1473    1.1206    3.0287 O   0  0  0  0  0  0  0  0  0  0  0  0
   -0.0113   -2.6869    0.5854 H   0  0  0  0  0  0  0  0  0  0  0  0
    1.2476   -0.4599    1.4925 H   0  0  0  0  0  0  0  0  0  0  0  0
    0.2213   -0.2149    3.8637 H   0  0  0  0  0  0  0  0  0  0  0  0
   -1.1622   -1.1312    3.2804 H   0  0  0  0  0  0  0  0  0  0  0  0
    2.5044   -1.8647    3.1586 N   0  0  0  0  0  0  0  0  0  0  0  0
    3.4296   -2.7578    3.8163 C   0  0  2  0  0  0  0  0  0  0  0  0
    4.1523   -1.9706    4.9015 C   0  0  0  0  0  0  0  0  0  0  0  0
    4.2557   -0.7458    4.8855 O   0  0  0  0  0  0  0  0  0  0  0  0
    4.4190   -3.3555    2.8281 C   0  0  0  0  0  0  0  0  0  0  0  0
    2.7705   -0.8882    3.0719 H   0  0  0  0  0  0  0  0  0  0  0  0
    2.8304   -3.5506    4.2772 H   0  0  0  0  0  0  0  0  0  0  0  0
    5.0284   -2.5762    2.3562 H   0  0  0  0  0  0  0  0  0  0  0  0
    5.1014   -4.0541    3.3233 H   0  0  0  0  0  0  0  0  0  0  0  0
    3.8961   -3.8962    2.0319 H   0  0  0  0  0  0  0  0  0  0  0  0
    4.7054   -2.7999    5.8672 N   0  0  0  0  0  0  0  0  0  0  0  0
    5.4524   -2.2934    6.9948 C   0  0  0  0  0  0  0  0  0  0  0  0
    4.5538   -3.8027    5.8110 H   0  0  0  0  0  0  0  0  0  0  0  0
    6.5231   -2.2677    6.7442 H   0  0  0  0  0  0  0  0  0  0  0  0
    5.1078   -1.2770    7.2359 H   0  0  0  0  0  0  0  0  0  0  0  0
    5.2948   -2.9497    7.8634 H   0  0  0  0  0  0  0  0  0  0  0  0
  1  3  1  0  0  0  0
  1  7  1  0  0  0  0
  1  2  2  0  0  0  0
 30 31  1  0  0  0  0
 31 39  1  0  0  0  0
 31 32  2  0  0  0  0
  8  9  1  0  0  0  0
  9 17  1  0  0  0  0
  9 10  2  0  0  0  0
 18 19  1  0  0  0  0
 19 29  1  0  0  0  0
 19 20  2  0  0  0  0
 21 22  1  0  0  0  0
 22 23  1  0  0  0  0
 22 24  2  0  0  0  0
 30 33  1  0  0  0  0
  8 11  1  0  0  0  0
 39 40  1  0  0  0  0
 18 21  1  0  0  0  0
 29 30  1  0  0  0  0
  7  8  1  0  0  0  0
 17 18  1  0  0  0  0
  3  4  1  0  0  0  0
  3  5  1  0  0  0  0
  3  6  1  0  0  0  0
 33 36  1  0  0  0  0
 33 37  1  0  0  0  0
 33 38  1  0  0  0  0
 11 14  1  0  0  0  0
 11 15  1  0  0  0  0
 11 16  1  0  0  0  0
 40 42  1  0  0  0  0
 40 43  1  0  0  0  0
 40 44  1  0  0  0  0
 21 27  1  0  0  0  0
 21 28  1  0  0  0  0
 30 35  1  0  0  0  0
  8 13  1  0  0  0  0
 18 26  1  0  0  0  0
 39 41  1  0  0  0  0
  7 12  1  0  0  0  0
 29 34  1  0  0  0  0
 17 25  1  0  0  0  0
M  CHG  1  23  -1
M  END
$$$$

  -OEChem-05262214473D

 44 43  0     1  0  0  0  0  0999 V2000
   -4.0256   -1.8030   -2.1581 C   0  0  0  0  0  0  0  0  0  0  0  0
   -3.7513   -2.6782   -2.9709 O   0  0  0  0  0  0  0  0  0  0  0  0
   -5.3491   -1.1169   -2.2339 C   0  0  0  0  0  0  0  0  0  0  0  0
   -5.3223   -0.2211   -2.8750 H   0  0  0  0  0  0  0  0  0  0  0  0
   -6.1322   -1.7605   -2.6658 H   0  0  0  0  0  0  0  0  0  0  0  0
   -5.7568   -0.7715   -1.2704 H   0  0  0  0  0  0  0  0  0  0  0  0
   -3.2124   -1.3578   -1.1289 N   0  0  0  0  0  0  0  0  0  0  0  0
   -1.8971   -1.8843   -0.8752 C   0  0  2  0  0  0  0  0  0  0  0  0
   -1.2676   -1.0599    0.2399 C   0  0  0  0  0  0  0  0  0  0  0  0
   -1.6270    0.0833    0.5138 O   0  0  0  0  0  0  0  0  0  0  0  0
   -1.0364   -1.8506   -2.1285 C   0  0  0  0  0  0  0  0  0  0  0  0
   -3.5631   -0.6202   -0.5206 H   0  0  0  0  0  0  0  0  0  0  0  0
   -2.0301   -2.9174   -0.5360 H   0  0  0  0  0  0  0  0  0  0  0  0
   -0.8921   -0.8236   -2.4833 H   0  0  0  0  0  0  0  0  0  0  0  0
   -0.0457   -2.2777   -1.9410 H   0  0  0  0  0  0  0  0  0  0  0  0
   -1.5052   -2.4193   -2.9387 H   0  0  0  0  0  0  0  0  0  0  0  0
   -0.2267   -1.7335    0.8672 N   0  0  0  0  0  0  0  0  0  0  0  0
    0.5363   -1.1590    1.9465 C   0  0  2  0  0  0  0  0  0  0  0  0
    1.3050   -2.2962    2.6095 C   0  0  0  0  0  0  0  0  0  0  0  0
    1.0697   -3.4825    2.3890 O   0  0  0  0  0  0  0  0  0  0  0  0
   -0.3594   -0.4534    2.9621 C   0  0  0  0  0  0  0  0  0  0  0  0
   -1.0440    0.8350    2.4883 C   0  0  0  0  0  0  0  0  0  0  0  0
   -0.3980    1.4673    1.6029 O   0  5  0  0  0  0  0  0  0  0  0  0
   -2.1473    1.1206    3.0287 O   0  0  0  0  0  0  0  0  0  0  0  0
   -0.0113   -2.6869    0.5854 H   0  0  0  0  0  0  0  0  0  0  0  0
    1.2476   -0.4599    1.4925 H   0  0  0  0  0  0  0  0  0  0  0  0
    0.2213   -0.2149    3.8637 H   0  0  0  0  0  0  0  0  0  0  0  0
   -1.1622   -1.1312    3.2804 H   0  0  0  0  0  0  0  0  0  0  0  0
    2.3179   -1.8293    3.4355 N   0  0  0  0  0  0  0  0  0  0  0  0
    3.2095   -2.7098    4.1540 C   0  0  2  0  0  0  0  0  0  0  0  0
    3.6137   -2.0160    5.4481 C   0  0  0  0  0  0  0  0  0  0  0  0
    3.5639   -0.7971    5.5997 O   0  0  0  0  0  0  0  0  0  0  0  0
    4.4321   -3.0598    3.3201 C   0  0  0  0  0  0  0  0  0  0  0  0
    2.4709   -0.8288    3.5213 H   0  0  0  0  0  0  0  0  0  0  0  0
    2.6394   -3.6156    4.3872 H   0  0  0  0  0  0  0  0  0  0  0  0
    5.0159   -2.1646    3.0765 H   0  0  0  0  0  0  0  0  0  0  0  0
    5.0929   -3.7499    3.8550 H   0  0  0  0  0  0  0  0  0  0  0  0
    4.1381   -3.5318    2.3763 H   0  0  0  0  0  0  0  0  0  0  0  0
    4.0775   -2.9143    6.3990 N   0  0  0  0  0  0  0  0  0  0  0  0
    4.5327   -2.5005    7.7057 C   0  0  0  0  0  0  0  0  0  0  0  0
    4.0659   -3.9091    6.1941 H   0  0  0  0  0  0  0  0  0  0  0  0
    5.6195   -2.3329    7.6799 H   0  0  0  0  0  0  0  0  0  0  0  0
    4.0247   -1.5680    7.9925 H   0  0  0  0  0  0  0  0  0  0  0  0
    4.3002   -3.2856    8.4404 H   0  0  0  0  0  0  0  0  0  0  0  0
  1  3  1  0  0  0  0
  1  7  1  0  0  0  0
  1  2  2  0  0  0  0
 30 31  1  0  0  0  0
 31 39  1  0  0  0  0
 31 32  2  0  0  0  0
  8  9  1  0  0  0  0
  9 17  1  0  0  0  0
  9 10  2  0  0  0  0
 18 19  1  0  0  0  0
 19 29  1  0  0  0  0
 19 20  2  0  0  0  0
 21 22  1  0  0  0  0
 22 23  1  0  0  0  0
 22 24  2  0  0  0  0
 30 33  1  0  0  0  0
  8 11  1  0  0  0  0
 39 40  1  0  0  0  0
 18 21  1  0  0  0  0
 29 30  1  0  0  0  0
  7  8  1  0  0  0  0
 17 18  1  0  0  0  0
  3  4  1  0  0  0  0
  3  5  1  0  0  0  0
  3  6  1  0  0  0  0
 33 36  1  0  0  0  0
 33 37  1  0  0  0  0
 33 38  1  0  0  0  0
 11 14  1  0  0  0  0
 11 15  1  0  0  0  0
 11 16  1  0  0  0  0
 40 42  1  0  0  0  0
 40 43  1  0  0  0  0
 40 44  1  0  0  0  0
 21 27  1  0  0  0  0
 21 28  1  0  0  0  0
 30 35  1  0  0  0  0
  8 13  1  0  0  0  0
 18 26  1  0  0  0  0
 39 41  1  0  0  0  0
  7 12  1  0  0  0  0
 29 34  1  0  0  0  0
 17 25  1  0  0  0  0
M  CHG  1  23  -1
M  END
$$$$
