
  -OEChem-05262214473D

 53 53  0     1  0  0  0  0  0999 V2000
   -1.9298    0.2574    3.9747 C   0  0  0  0  0  0  0  0  0  0  0  0
   -0.9825   -0.3573    3.4990 O   0  0  0  0  0  0  0  0  0  0  0  0
   -2.3617   -0.0250    5.3754 C   0  0  0  0  0  0  0  0  0  0  0  0
   -3.1214   -0.8213    5.4288 H   0  0  0  0  0  0  0  0  0  0  0  0
   -1.5305   -0.3726    6.0097 H   0  0  0  0  0  0  0  0  0  0  0  0
   -2.7997    0.8299    5.9150 H   0  0  0  0  0  0  0  0  0  0  0  0
   -2.6795    1.2298    3.3336 N   0  0  0  0  0  0  0  0  0  0  0  0
   -2.4327    1.6559    1.9812 C   0  0  2  0  0  0  0  0  0  0  0  0
   -1.0977    1.0705    1.5400 C   0  0  0  0  0  0  0  0  0  0  0  0
   -0.2256    0.7177    2.3313 O   0  0  0  0  0  0  0  0  0  0  0  0
   -2.4239    3.1726    1.8718 C   0  0  0  0  0  0  0  0  0  0  0  0
   -3.4446    1.6657    3.8454 H   0  0  0  0  0  0  0  0  0  0  0  0
   -3.2368    1.2374    1.3661 H   0  0  0  0  0  0  0  0  0  0  0  0
   -1.6248    3.6099    2.4815 H   0  0  0  0  0  0  0  0  0  0  0  0
   -2.2644    3.4949    0.8375 H   0  0  0  0  0  0  0  0  0  0  0  0
   -3.3741    3.5939    2.2175 H   0  0  0  0  0  0  0  0  0  0  0  0
   -0.9750    1.0274    0.1566 N   0  0  0  0  0  0  0  0  0  0  0  0
    0.2023    0.5266   -0.5070 C   0  0  2  0  0  0  0  0  0  0  0  0
   -0.0423    0.6419   -2.0074 C   0  0  0  0  0  0  0  0  0  0  0  0
   -1.0660    1.1286   -2.4830 O   0  0  0  0  0  0  0  0  0  0  0  0
    0.5070   -0.9270   -0.1270 C   0  0  0  0  0  0  0  0  0  0  0  0
    0.9107   -1.0797    1.3192 C   0  0  0  0  0  0  0  0  0  0  0  0
    2.2207   -0.8034    1.7108 C   0  0  0  0  0  0  0  0  0  0  0  0
   -0.0262   -1.4979    2.2642 C   0  0  0  0  0  0  0  0  0  0  0  0
    2.5937   -0.9451    3.0473 C   0  0  0  0  0  0  0  0  0  0  0  0
    0.3469   -1.6397    3.6008 C   0  0  0  0  0  0  0  0  0  0  0  0
    1.6569   -1.3633    3.9923 C   0  0  0  0  0  0  0  0  0  0  0  0
    2.0214   -1.5028    5.2962 O   0  0  0  0  0  0  0  0  0  0  0  0
   -1.7582    1.3241   -0.4207 H   0  0  0  0  0  0  0  0  0  0  0  0
    1.0266    1.1924   -0.2256 H   0  0  0  0  0  0  0  0  0  0  0  0
    1.2956   -1.3324   -0.7754 H   0  0  0  0  0  0  0  0  0  0  0  0
   -0.3698   -1.5627   -0.3081 H   0  0  0  0  0  0  0  0  0  0  0  0
    2.9571   -0.4770    0.9813 H   0  0  0  0  0  0  0  0  0  0  0  0
   -1.0492   -1.7153    1.9682 H   0  0  0  0  0  0  0  0  0  0  0  0
    3.6160   -0.7286    3.3461 H   0  0  0  0  0  0  0  0  0  0  0  0
   -0.3874   -1.9661    4.3319 H   0  0  0  0  0  0  0  0  0  0  0  0
    1.2648   -1.7986    5.8272 H   0  0  0  0  0  0  0  0  0  0  0  0
    1.0388    0.1829   -2.7469 N   0  0  0  0  0  0  0  0  0  0  0  0
    1.0771    0.2009   -4.1915 C   0  0  2  0  0  0  0  0  0  0  0  0
   -0.2093   -0.4332   -4.7040 C   0  0  0  0  0  0  0  0  0  0  0  0
   -0.8896   -1.2065   -4.0330 O   0  0  0  0  0  0  0  0  0  0  0  0
    2.2960   -0.5377   -4.7220 C   0  0  0  0  0  0  0  0  0  0  0  0
    1.8437   -0.1841   -2.2476 H   0  0  0  0  0  0  0  0  0  0  0  0
    1.1119    1.2533   -4.4939 H   0  0  0  0  0  0  0  0  0  0  0  0
    2.2787   -1.5938   -4.4290 H   0  0  0  0  0  0  0  0  0  0  0  0
    2.3388   -0.4987   -5.8155 H   0  0  0  0  0  0  0  0  0  0  0  0
    3.2193   -0.0988   -4.3287 H   0  0  0  0  0  0  0  0  0  0  0  0
   -0.4854   -0.0677   -6.0141 N   0  0  0  0  0  0  0  0  0  0  0  0
   -1.6442   -0.5482   -6.7298 C   0  0  0  0  0  0  0  0  0  0  0  0
    0.1235    0.5934   -6.4873 H   0  0  0  0  0  0  0  0  0  0  0  0
   -1.3790   -1.4568   -7.2902 H   0  0  0  0  0  0  0  0  0  0  0  0
   -2.4469   -0.7800   -6.0143 H   0  0  0  0  0  0  0  0  0  0  0  0
   -1.9898    0.2266   -7.4301 H   0  0  0  0  0  0  0  0  0  0  0  0
 23 25  2  0  0  0  0
 22 23  1  0  0  0  0
 24 26  1  0  0  0  0
 22 24  2  0  0  0  0
 25 27  1  0  0  0  0
 26 27  2  0  0  0  0
 21 22  1  0  0  0  0
 27 28  1  0  0  0  0
  1  3  1  0  0  0  0
  1  7  1  0  0  0  0
  1  2  2  0  0  0  0
 39 40  1  0  0  0  0
 40 48  1  0  0  0  0
 40 41  2  0  0  0  0
  8  9  1  0  0  0  0
  9 17  1  0  0  0  0
  9 10  2  0  0  0  0
 18 19  1  0  0  0  0
 19 38  1  0  0  0  0
 19 20  2  0  0  0  0
 39 42  1  0  0  0  0
  8 11  1  0  0  0  0
 48 49  1  0  0  0  0
 18 21  1  0  0  0  0
 38 39  1  0  0  0  0
  7  8  1  0  0  0  0
 17 18  1  0  0  0  0
 23 33  1  0  0  0  0
 24 34  1  0  0  0  0
 25 35  1  0  0  0  0
 26 36  1  0  0  0  0
  3  4  1  0  0  0  0
  3  5  1  0  0  0  0
  3  6  1  0  0  0  0
 42 45  1  0  0  0  0
 42 46  1  0  0  0  0
 42 47  1  0  0  0  0
 11 14  1  0  0  0  0
 11 15  1  0  0  0  0
 11 16  1  0  0  0  0
 49 51  1  0  0  0  0
 49 52  1  0  0  0  0
 49 53  1  0  0  0  0
 21 31  1  0  0  0  0
 21 32  1  0  0  0  0
 39 44  1  0  0  0  0
  8 13  1  0  0  0  0
 18 30  1  0  0  0  0
 48 50  1  0  0  0  0
  7 12  1  0  0  0  0
 38 43  1  0  0  0  0
 17 29  1  0  0  0  0
 28 37  1  0  0  0  0
M  END
$$$$

  -OEChem-05262214473D

 53 53  0     1  0  0  0  0  0999 V2000
   -1.9298    0.2574    3.9747 C   0  0  0  0  0  0  0  0  0  0  0  0
   -0.9825   -0.3573    3.4990 O   0  0  0  0  0  0  0  0  0  0  0  0
   -2.3617   -0.0250    5.3754 C   0  0  0  0  0  0  0  0  0  0  0  0
   -3.1214   -0.8213    5.4288 H   0  0  0  0  0  0  0  0  0  0  0  0
   -1.5305   -0.3726    6.0097 H   0  0  0  0  0  0  0  0  0  0  0  0
   -2.7997    0.8299    5.9150 H   0  0  0  0  0  0  0  0  0  0  0  0
   -2.6795    1.2298    3.3336 N   0  0  0  0  0  0  0  0  0  0  0  0
   -2.4327    1.6559    1.9812 C   0  0  2  0  0  0  0  0  0  0  0  0
   -1.0977    1.0705    1.5400 C   0  0  0  0  0  0  0  0  0  0  0  0
   -0.2256    0.7177    2.3313 O   0  0  0  0  0  0  0  0  0  0  0  0
   -2.4239    3.1726    1.8718 C   0  0  0  0  0  0  0  0  0  0  0  0
   -3.4446    1.6657    3.8454 H   0  0  0  0  0  0  0  0  0  0  0  0
   -3.2368    1.2374    1.3661 H   0  0  0  0  0  0  0  0  0  0  0  0
   -1.6248    3.6099    2.4815 H   0  0  0  0  0  0  0  0  0  0  0  0
   -2.2644    3.4949    0.8375 H   0  0  0  0  0  0  0  0  0  0  0  0
   -3.3741    3.5939    2.2175 H   0  0  0  0  0  0  0  0  0  0  0  0
   -0.9750    1.0274    0.1566 N   0  0  0  0  0  0  0  0  0  0  0  0
    0.2023    0.5266   -0.5070 C   0  0  2  0  0  0  0  0  0  0  0  0
   -0.0423    0.6419   -2.0074 C   0  0  0  0  0  0  0  0  0  0  0  0
   -0.9201    1.3547   -2.4894 O   0  0  0  0  0  0  0  0  0  0  0  0
    0.5070   -0.9270   -0.1270 C   0  0  0  0  0  0  0  0  0  0  0  0
    0.9107   -1.0797    1.3192 C   0  0  0  0  0  0  0  0  0  0  0  0
    2.2207   -0.8034    1.7108 C   0  0  0  0  0  0  0  0  0  0  0  0
   -0.0262   -1.4979    2.2642 C   0  0  0  0  0  0  0  0  0  0  0  0
    2.5937   -0.9451    3.0473 C   0  0  0  0  0  0  0  0  0  0  0  0
    0.3469   -1.6397    3.6008 C   0  0  0  0  0  0  0  0  0  0  0  0
    1.6569   -1.3633    3.9923 C   0  0  0  0  0  0  0  0  0  0  0  0
    2.0214   -1.5028    5.2962 O   0  0  0  0  0  0  0  0  0  0  0  0
   -1.7582    1.3241   -0.4207 H   0  0  0  0  0  0  0  0  0  0  0  0
    1.0266    1.1924   -0.2256 H   0  0  0  0  0  0  0  0  0  0  0  0
    1.2956   -1.3324   -0.7754 H   0  0  0  0  0  0  0  0  0  0  0  0
   -0.3698   -1.5627   -0.3081 H   0  0  0  0  0  0  0  0  0  0  0  0
    2.9571   -0.4770    0.9813 H   0  0  0  0  0  0  0  0  0  0  0  0
   -1.0492   -1.7153    1.9682 H   0  0  0  0  0  0  0  0  0  0  0  0
    3.6160   -0.7286    3.3461 H   0  0  0  0  0  0  0  0  0  0  0  0
   -0.3874   -1.9661    4.3319 H   0  0  0  0  0  0  0  0  0  0  0  0
    1.2648   -1.7986    5.8272 H   0  0  0  0  0  0  0  0  0  0  0  0
    0.8677   -0.1062   -2.7412 N   0  0  0  0  0  0  0  0  0  0  0  0
    0.8733   -0.1549   -4.1856 C   0  0  2  0  0  0  0  0  0  0  0  0
   -0.5445   -0.4593   -4.6514 C   0  0  0  0  0  0  0  0  0  0  0  0
   -1.3821   -1.0067   -3.9373 O   0  0  0  0  0  0  0  0  0  0  0  0
    1.8506   -1.2001   -4.7003 C   0  0  0  0  0  0  0  0  0  0  0  0
    1.5650   -0.6466   -2.2377 H   0  0  0  0  0  0  0  0  0  0  0  0
    1.1670    0.8411   -4.5346 H   0  0  0  0  0  0  0  0  0  0  0  0
    1.5726   -2.2046   -4.3609 H   0  0  0  0  0  0  0  0  0  0  0  0
    1.8746   -1.2160   -5.7949 H   0  0  0  0  0  0  0  0  0  0  0  0
    2.8647   -0.9964   -4.3399 H   0  0  0  0  0  0  0  0  0  0  0  0
   -0.7512   -0.0869   -5.9722 N   0  0  0  0  0  0  0  0  0  0  0  0
   -2.0116   -0.2833   -6.6496 C   0  0  0  0  0  0  0  0  0  0  0  0
   -0.0062    0.3780   -6.4828 H   0  0  0  0  0  0  0  0  0  0  0  0
   -2.0003   -1.2507   -7.1731 H   0  0  0  0  0  0  0  0  0  0  0  0
   -2.8287   -0.2746   -5.9132 H   0  0  0  0  0  0  0  0  0  0  0  0
   -2.1661    0.5261   -7.3783 H   0  0  0  0  0  0  0  0  0  0  0  0
 23 25  2  0  0  0  0
 22 23  1  0  0  0  0
 24 26  1  0  0  0  0
 22 24  2  0  0  0  0
 25 27  1  0  0  0  0
 26 27  2  0  0  0  0
 21 22  1  0  0  0  0
 27 28  1  0  0  0  0
  1  3  1  0  0  0  0
  1  7  1  0  0  0  0
  1  2  2  0  0  0  0
 39 40  1  0  0  0  0
 40 48  1  0  0  0  0
 40 41  2  0  0  0  0
  8  9  1  0  0  0  0
  9 17  1  0  0  0  0
  9 10  2  0  0  0  0
 18 19  1  0  0  0  0
 19 38  1  0  0  0  0
 19 20  2  0  0  0  0
 39 42  1  0  0  0  0
  8 11  1  0  0  0  0
 48 49  1  0  0  0  0
 18 21  1  0  0  0  0
 38 39  1  0  0  0  0
  7  8  1  0  0  0  0
 17 18  1  0  0  0  0
 23 33  1  0  0  0  0
 24 34  1  0  0  0  0
 25 35  1  0  0  0  0
 26 36  1  0  0  0  0
  3  4  1  0  0  0  0
  3  5  1  0  0  0  0
  3  6  1  0  0  0  0
 42 45  1  0  0  0  0
 42 46  1  0  0  0  0
 42 47  1  0  0  0  0
 11 14  1  0  0  0  0
 11 15  1  0  0  0  0
 11 16  1  0  0  0  0
 49 51  1  0  0  0  0
 49 52  1  0  0  0  0
 49 53  1  0  0  0  0
 21 31  1  0  0  0  0
 21 32  1  0  0  0  0
 39 44  1  0  0  0  0
  8 13  1  0  0  0  0
 18 30  1  0  0  0  0
 48 50  1  0  0  0  0
  7 12  1  0  0  0  0
 38 43  1  0  0  0  0
 17 29  1  0  0  0  0
 28 37  1  0  0  0  0
M  END
$$$$

  -OEChem-05262214473D

 53 53  0     1  0  0  0  0  0999 V2000
   -1.9298    0.2574    3.9747 C   0  0  0  0  0  0  0  0  0  0  0  0
   -0.9825   -0.3573    3.4990 O   0  0  0  0  0  0  0  0  0  0  0  0
   -2.3617   -0.0250    5.3754 C   0  0  0  0  0  0  0  0  0  0  0  0
   -3.1214   -0.8213    5.4288 H   0  0  0  0  0  0  0  0  0  0  0  0
   -1.5305   -0.3726    6.0097 H   0  0  0  0  0  0  0  0  0  0  0  0
   -2.7997    0.8299    5.9150 H   0  0  0  0  0  0  0  0  0  0  0  0
   -2.6795    1.2298    3.3336 N   0  0  0  0  0  0  0  0  0  0  0  0
   -2.4327    1.6559    1.9812 C   0  0  2  0  0  0  0  0  0  0  0  0
   -1.0977    1.0705    1.5400 C   0  0  0  0  0  0  0  0  0  0  0  0
   -0.2256    0.7177    2.3313 O   0  0  0  0  0  0  0  0  0  0  0  0
   -2.4239    3.1726    1.8718 C   0  0  0  0  0  0  0  0  0  0  0  0
   -3.4446    1.6657    3.8454 H   0  0  0  0  0  0  0  0  0  0  0  0
   -3.2368    1.2374    1.3661 H   0  0  0  0  0  0  0  0  0  0  0  0
   -1.6248    3.6099    2.4815 H   0  0  0  0  0  0  0  0  0  0  0  0
   -2.2644    3.4949    0.8375 H   0  0  0  0  0  0  0  0  0  0  0  0
   -3.3741    3.5939    2.2175 H   0  0  0  0  0  0  0  0  0  0  0  0
   -0.9750    1.0274    0.1566 N   0  0  0  0  0  0  0  0  0  0  0  0
    0.2023    0.5266   -0.5070 C   0  0  2  0  0  0  0  0  0  0  0  0
   -0.0423    0.6419   -2.0074 C   0  0  0  0  0  0  0  0  0  0  0  0
   -0.7217    1.5357   -2.5078 O   0  0  0  0  0  0  0  0  0  0  0  0
    0.5070   -0.9270   -0.1270 C   0  0  0  0  0  0  0  0  0  0  0  0
    0.9107   -1.0797    1.3192 C   0  0  0  0  0  0  0  0  0  0  0  0
    2.2207   -0.8034    1.7108 C   0  0  0  0  0  0  0  0  0  0  0  0
   -0.0262   -1.4979    2.2642 C   0  0  0  0  0  0  0  0  0  0  0  0
    2.5937   -0.9451    3.0473 C   0  0  0  0  0  0  0  0  0  0  0  0
    0.3469   -1.6397    3.6008 C   0  0  0  0  0  0  0  0  0  0  0  0
    1.6569   -1.3633    3.9923 C   0  0  0  0  0  0  0  0  0  0  0  0
    2.0214   -1.5028    5.2962 O   0  0  0  0  0  0  0  0  0  0  0  0
   -1.7582    1.3241   -0.4207 H   0  0  0  0  0  0  0  0  0  0  0  0
    1.0266    1.1924   -0.2256 H   0  0  0  0  0  0  0  0  0  0  0  0
    1.2956   -1.3324   -0.7754 H   0  0  0  0  0  0  0  0  0  0  0  0
   -0.3698   -1.5627   -0.3081 H   0  0  0  0  0  0  0  0  0  0  0  0
    2.9571   -0.4770    0.9813 H   0  0  0  0  0  0  0  0  0  0  0  0
   -1.0492   -1.7153    1.9682 H   0  0  0  0  0  0  0  0  0  0  0  0
    3.6160   -0.7286    3.3461 H   0  0  0  0  0  0  0  0  0  0  0  0
   -0.3874   -1.9661    4.3319 H   0  0  0  0  0  0  0  0  0  0  0  0
    1.2648   -1.7986    5.8272 H   0  0  0  0  0  0  0  0  0  0  0  0
    0.6290   -0.3416   -2.7204 N   0  0  0  0  0  0  0  0  0  0  0  0
    0.5858   -0.4464   -4.1612 C   0  0  2  0  0  0  0  0  0  0  0  0
   -0.8738   -0.3970   -4.5929 C   0  0  0  0  0  0  0  0  0  0  0  0
   -1.8050   -0.6843   -3.8436 O   0  0  0  0  0  0  0  0  0  0  0  0
    1.2521   -1.7257   -4.6431 C   0  0  0  0  0  0  0  0  0  0  0  0
    1.1782   -1.0220   -2.2035 H   0  0  0  0  0  0  0  0  0  0  0  0
    1.1144    0.4273   -4.5578 H   0  0  0  0  0  0  0  0  0  0  0  0
    0.7364   -2.6120   -4.2559 H   0  0  0  0  0  0  0  0  0  0  0  0
    1.2440   -1.7898   -5.7362 H   0  0  0  0  0  0  0  0  0  0  0  0
    2.2934   -1.7735   -4.3065 H   0  0  0  0  0  0  0  0  0  0  0  0
   -1.0119   -0.0359   -5.9258 N   0  0  0  0  0  0  0  0  0  0  0  0
   -2.2974    0.0695   -6.5758 C   0  0  0  0  0  0  0  0  0  0  0  0
   -0.1862    0.2033   -6.4668 H   0  0  0  0  0  0  0  0  0  0  0  0
   -2.5455   -0.8884   -7.0564 H   0  0  0  0  0  0  0  0  0  0  0  0
   -3.0667    0.3150   -5.8290 H   0  0  0  0  0  0  0  0  0  0  0  0
   -2.2592    0.8624   -7.3373 H   0  0  0  0  0  0  0  0  0  0  0  0
 23 25  2  0  0  0  0
 22 23  1  0  0  0  0
 24 26  1  0  0  0  0
 22 24  2  0  0  0  0
 25 27  1  0  0  0  0
 26 27  2  0  0  0  0
 21 22  1  0  0  0  0
 27 28  1  0  0  0  0
  1  3  1  0  0  0  0
  1  7  1  0  0  0  0
  1  2  2  0  0  0  0
 39 40  1  0  0  0  0
 40 48  1  0  0  0  0
 40 41  2  0  0  0  0
  8  9  1  0  0  0  0
  9 17  1  0  0  0  0
  9 10  2  0  0  0  0
 18 19  1  0  0  0  0
 19 38  1  0  0  0  0
 19 20  2  0  0  0  0
 39 42  1  0  0  0  0
  8 11  1  0  0  0  0
 48 49  1  0  0  0  0
 18 21  1  0  0  0  0
 38 39  1  0  0  0  0
  7  8  1  0  0  0  0
 17 18  1  0  0  0  0
 23 33  1  0  0  0  0
 24 34  1  0  0  0  0
 25 35  1  0  0  0  0
 26 36  1  0  0  0  0
  3  4  1  0  0  0  0
  3  5  1  0  0  0  0
  3  6  1  0  0  0  0
 42 45  1  0  0  0  0
 42 46  1  0  0  0  0
 42 47  1  0  0  0  0
 11 14  1  0  0  0  0
 11 15  1  0  0  0  0
 11 16  1  0  0  0  0
 49 51  1  0  0  0  0
 49 52  1  0  0  0  0
 49 53  1  0  0  0  0
 21 31  1  0  0  0  0
 21 32  1  0  0  0  0
 39 44  1  0  0  0  0
  8 13  1  0  0  0  0
 18 30  1  0  0  0  0
 48 50  1  0  0  0  0
  7 12  1  0  0  0  0
 38 43  1  0  0  0  0
 17 29  1  0  0  0  0
 28 37  1  0  0  0  0
M  END
$$$$

  -OEChem-05262214473D

 53 53  0     1  0  0  0  0  0999 V2000
   -1.9298    0.2574    3.9747 C   0  0  0  0  0  0  0  0  0  0  0  0
   -0.9825   -0.3573    3.4990 O   0  0  0  0  0  0  0  0  0  0  0  0
   -2.3617   -0.0250    5.3754 C   0  0  0  0  0  0  0  0  0  0  0  0
   -3.1214   -0.8213    5.4288 H   0  0  0  0  0  0  0  0  0  0  0  0
   -1.5305   -0.3726    6.0097 H   0  0  0  0  0  0  0  0  0  0  0  0
   -2.7997    0.8299    5.9150 H   0  0  0  0  0  0  0  0  0  0  0  0
   -2.6795    1.2298    3.3336 N   0  0  0  0  0  0  0  0  0  0  0  0
   -2.4327    1.6559    1.9812 C   0  0  2  0  0  0  0  0  0  0  0  0
   -1.0977    1.0705    1.5400 C   0  0  0  0  0  0  0  0  0  0  0  0
   -0.2256    0.7177    2.3313 O   0  0  0  0  0  0  0  0  0  0  0  0
   -2.4239    3.1726    1.8718 C   0  0  0  0  0  0  0  0  0  0  0  0
   -3.4446    1.6657    3.8454 H   0  0  0  0  0  0  0  0  0  0  0  0
   -3.2368    1.2374    1.3661 H   0  0  0  0  0  0  0  0  0  0  0  0
   -1.6248    3.6099    2.4815 H   0  0  0  0  0  0  0  0  0  0  0  0
   -2.2644    3.4949    0.8375 H   0  0  0  0  0  0  0  0  0  0  0  0
   -3.3741    3.5939    2.2175 H   0  0  0  0  0  0  0  0  0  0  0  0
   -0.9750    1.0274    0.1566 N   0  0  0  0  0  0  0  0  0  0  0  0
    0.2023    0.5266   -0.5070 C   0  0  2  0  0  0  0  0  0  0  0  0
   -0.0423    0.6419   -2.0074 C   0  0  0  0  0  0  0  0  0  0  0  0
   -0.4844    1.6593   -2.5370 O   0  0  0  0  0  0  0  0  0  0  0  0
    0.5070   -0.9270   -0.1270 C   0  0  0  0  0  0  0  0  0  0  0  0
    0.9107   -1.0797    1.3192 C   0  0  0  0  0  0  0  0  0  0  0  0
    2.2207   -0.8034    1.7108 C   0  0  0  0  0  0  0  0  0  0  0  0
   -0.0262   -1.4979    2.2642 C   0  0  0  0  0  0  0  0  0  0  0  0
    2.5937   -0.9451    3.0473 C   0  0  0  0  0  0  0  0  0  0  0  0
    0.3469   -1.6397    3.6008 C   0  0  0  0  0  0  0  0  0  0  0  0
    1.6569   -1.3633    3.9923 C   0  0  0  0  0  0  0  0  0  0  0  0
    2.0214   -1.5028    5.2962 O   0  0  0  0  0  0  0  0  0  0  0  0
   -1.7582    1.3241   -0.4207 H   0  0  0  0  0  0  0  0  0  0  0  0
    1.0266    1.1924   -0.2256 H   0  0  0  0  0  0  0  0  0  0  0  0
    1.2956   -1.3324   -0.7754 H   0  0  0  0  0  0  0  0  0  0  0  0
   -0.3698   -1.5627   -0.3081 H   0  0  0  0  0  0  0  0  0  0  0  0
    2.9571   -0.4770    0.9813 H   0  0  0  0  0  0  0  0  0  0  0  0
   -1.0492   -1.7153    1.9682 H   0  0  0  0  0  0  0  0  0  0  0  0
    3.6160   -0.7286    3.3461 H   0  0  0  0  0  0  0  0  0  0  0  0
   -0.3874   -1.9661    4.3319 H   0  0  0  0  0  0  0  0  0  0  0  0
    1.2648   -1.7986    5.8272 H   0  0  0  0  0  0  0  0  0  0  0  0
    0.3388   -0.5074   -2.6858 N   0  0  0  0  0  0  0  0  0  0  0  0
    0.2345   -0.6538   -4.1199 C   0  0  2  0  0  0  0  0  0  0  0  0
   -1.1750   -0.2504   -4.5325 C   0  0  0  0  0  0  0  0  0  0  0  0
   -2.1296   -0.2612   -3.7581 O   0  0  0  0  0  0  0  0  0  0  0  0
    0.5413   -2.0785   -4.5544 C   0  0  0  0  0  0  0  0  0  0  0  0
    0.7096   -1.2847   -2.1473 H   0  0  0  0  0  0  0  0  0  0  0  0
    0.9577    0.0400   -4.5620 H   0  0  0  0  0  0  0  0  0  0  0  0
   -0.1731   -2.7881   -4.1211 H   0  0  0  0  0  0  0  0  0  0  0  0
    0.4898   -2.1810   -5.6433 H   0  0  0  0  0  0  0  0  0  0  0  0
    1.5442   -2.3772   -4.2308 H   0  0  0  0  0  0  0  0  0  0  0  0
   -1.2500    0.0816   -5.8780 N   0  0  0  0  0  0  0  0  0  0  0  0
   -2.4821    0.4861   -6.5137 C   0  0  0  0  0  0  0  0  0  0  0  0
   -0.4043    0.0810   -6.4407 H   0  0  0  0  0  0  0  0  0  0  0  0
   -2.9776   -0.3948   -6.9480 H   0  0  0  0  0  0  0  0  0  0  0  0
   -3.1449    0.9487   -5.7676 H   0  0  0  0  0  0  0  0  0  0  0  0
   -2.2625    1.2127   -7.3098 H   0  0  0  0  0  0  0  0  0  0  0  0
 23 25  2  0  0  0  0
 22 23  1  0  0  0  0
 24 26  1  0  0  0  0
 22 24  2  0  0  0  0
 25 27  1  0  0  0  0
 26 27  2  0  0  0  0
 21 22  1  0  0  0  0
 27 28  1  0  0  0  0
  1  3  1  0  0  0  0
  1  7  1  0  0  0  0
  1  2  2  0  0  0  0
 39 40  1  0  0  0  0
 40 48  1  0  0  0  0
 40 41  2  0  0  0  0
  8  9  1  0  0  0  0
  9 17  1  0  0  0  0
  9 10  2  0  0  0  0
 18 19  1  0  0  0  0
 19 38  1  0  0  0  0
 19 20  2  0  0  0  0
 39 42  1  0  0  0  0
  8 11  1  0  0  0  0
 48 49  1  0  0  0  0
 18 21  1  0  0  0  0
 38 39  1  0  0  0  0
  7  8  1  0  0  0  0
 17 18  1  0  0  0  0
 23 33  1  0  0  0  0
 24 34  1  0  0  0  0
 25 35  1  0  0  0  0
 26 36  1  0  0  0  0
  3  4  1  0  0  0  0
  3  5  1  0  0  0  0
  3  6  1  0  0  0  0
 42 45  1  0  0  0  0
 42 46  1  0  0  0  0
 42 47  1  0  0  0  0
 11 14  1  0  0  0  0
 11 15  1  0  0  0  0
 11 16  1  0  0  0  0
 49 51  1  0  0  0  0
 49 52  1  0  0  0  0
 49 53  1  0  0  0  0
 21 31  1  0  0  0  0
 21 32  1  0  0  0  0
 39 44  1  0  0  0  0
  8 13  1  0  0  0  0
 18 30  1  0  0  0  0
 48 50  1  0  0  0  0
  7 12  1  0  0  0  0
 38 43  1  0  0  0  0
 17 29  1  0  0  0  0
 28 37  1  0  0  0  0
M  END
$$$$

  -OEChem-05262214473D

 53 53  0     1  0  0  0  0  0999 V2000
   -1.9298    0.2574    3.9747 C   0  0  0  0  0  0  0  0  0  0  0  0
   -0.9825   -0.3573    3.4990 O   0  0  0  0  0  0  0  0  0  0  0  0
   -2.3617   -0.0250    5.3754 C   0  0  0  0  0  0  0  0  0  0  0  0
   -3.1214   -0.8213    5.4288 H   0  0  0  0  0  0  0  0  0  0  0  0
   -1.5305   -0.3726    6.0097 H   0  0  0  0  0  0  0  0  0  0  0  0
   -2.7997    0.8299    5.9150 H   0  0  0  0  0  0  0  0  0  0  0  0
   -2.6795    1.2298    3.3336 N   0  0  0  0  0  0  0  0  0  0  0  0
   -2.4327    1.6559    1.9812 C   0  0  2  0  0  0  0  0  0  0  0  0
   -1.0977    1.0705    1.5400 C   0  0  0  0  0  0  0  0  0  0  0  0
   -0.2256    0.7177    2.3313 O   0  0  0  0  0  0  0  0  0  0  0  0
   -2.4239    3.1726    1.8718 C   0  0  0  0  0  0  0  0  0  0  0  0
   -3.4446    1.6657    3.8454 H   0  0  0  0  0  0  0  0  0  0  0  0
   -3.2368    1.2374    1.3661 H   0  0  0  0  0  0  0  0  0  0  0  0
   -1.6248    3.6099    2.4815 H   0  0  0  0  0  0  0  0  0  0  0  0
   -2.2644    3.4949    0.8375 H   0  0  0  0  0  0  0  0  0  0  0  0
   -3.3741    3.5939    2.2175 H   0  0  0  0  0  0  0  0  0  0  0  0
   -0.9750    1.0274    0.1566 N   0  0  0  0  0  0  0  0  0  0  0  0
    0.2023    0.5266   -0.5070 C   0  0  2  0  0  0  0  0  0  0  0  0
   -0.0423    0.6419   -2.0074 C   0  0  0  0  0  0  0  0  0  0  0  0
   -0.2242    1.7169   -2.5750 O   0  0  0  0  0  0  0  0  0  0  0  0
    0.5070   -0.9270   -0.1270 C   0  0  0  0  0  0  0  0  0  0  0  0
    0.9107   -1.0797    1.3192 C   0  0  0  0  0  0  0  0  0  0  0  0
    2.2207   -0.8034    1.7108 C   0  0  0  0  0  0  0  0  0  0  0  0
   -0.0262   -1.4979    2.2642 C   0  0  0  0  0  0  0  0  0  0  0  0
    2.5937   -0.9451    3.0473 C   0  0  0  0  0  0  0  0  0  0  0  0
    0.3469   -1.6397    3.6008 C   0  0  0  0  0  0  0  0  0  0  0  0
    1.6569   -1.3633    3.9923 C   0  0  0  0  0  0  0  0  0  0  0  0
    2.0214   -1.5028    5.2962 O   0  0  0  0  0  0  0  0  0  0  0  0
   -1.7582    1.3241   -0.4207 H   0  0  0  0  0  0  0  0  0  0  0  0
    1.0266    1.1924   -0.2256 H   0  0  0  0  0  0  0  0  0  0  0  0
    1.2956   -1.3324   -0.7754 H   0  0  0  0  0  0  0  0  0  0  0  0
   -0.3698   -1.5627   -0.3081 H   0  0  0  0  0  0  0  0  0  0  0  0
    2.9571   -0.4770    0.9813 H   0  0  0  0  0  0  0  0  0  0  0  0
   -1.0492   -1.7153    1.9682 H   0  0  0  0  0  0  0  0  0  0  0  0
    3.6160   -0.7286    3.3461 H   0  0  0  0  0  0  0  0  0  0  0  0
   -0.3874   -1.9661    4.3319 H   0  0  0  0  0  0  0  0  0  0  0  0
    1.2648   -1.7986    5.8272 H   0  0  0  0  0  0  0  0  0  0  0  0
    0.0169   -0.5921   -2.6399 N   0  0  0  0  0  0  0  0  0  0  0  0
   -0.1570   -0.7629   -4.0644 C   0  0  2  0  0  0  0  0  0  0  0  0
   -1.4273   -0.0297   -4.4744 C   0  0  0  0  0  0  0  0  0  0  0  0
   -2.3337    0.2336   -3.6868 O   0  0  0  0  0  0  0  0  0  0  0  0
   -0.2335   -2.2345   -4.4401 C   0  0  0  0  0  0  0  0  0  0  0  0
    0.1912   -1.4167   -2.0730 H   0  0  0  0  0  0  0  0  0  0  0  0
    0.7077   -0.2943   -4.5470 H   0  0  0  0  0  0  0  0  0  0  0  0
   -1.0937   -2.7209   -3.9659 H   0  0  0  0  0  0  0  0  0  0  0  0
   -0.3365   -2.3629   -5.5226 H   0  0  0  0  0  0  0  0  0  0  0  0
    0.6683   -2.7664   -4.1179 H   0  0  0  0  0  0  0  0  0  0  0  0
   -1.4490    0.2578   -5.8320 N   0  0  0  0  0  0  0  0  0  0  0  0
   -2.5533    0.9381   -6.4674 C   0  0  0  0  0  0  0  0  0  0  0  0
   -0.6456    0.0195   -6.4061 H   0  0  0  0  0  0  0  0  0  0  0  0
   -3.2671    0.1965   -6.8553 H   0  0  0  0  0  0  0  0  0  0  0  0
   -3.0577    1.5833   -5.7330 H   0  0  0  0  0  0  0  0  0  0  0  0
   -2.1760    1.5531   -7.2977 H   0  0  0  0  0  0  0  0  0  0  0  0
 23 25  2  0  0  0  0
 22 23  1  0  0  0  0
 24 26  1  0  0  0  0
 22 24  2  0  0  0  0
 25 27  1  0  0  0  0
 26 27  2  0  0  0  0
 21 22  1  0  0  0  0
 27 28  1  0  0  0  0
  1  3  1  0  0  0  0
  1  7  1  0  0  0  0
  1  2  2  0  0  0  0
 39 40  1  0  0  0  0
 40 48  1  0  0  0  0
 40 41  2  0  0  0  0
  8  9  1  0  0  0  0
  9 17  1  0  0  0  0
  9 10  2  0  0  0  0
 18 19  1  0  0  0  0
 19 38  1  0  0  0  0
 19 20  2  0  0  0  0
 39 42  1  0  0  0  0
  8 11  1  0  0  0  0
 48 49  1  0  0  0  0
 18 21  1  0  0  0  0
 38 39  1  0  0  0  0
  7  8  1  0  0  0  0
 17 18  1  0  0  0  0
 23 33  1  0  0  0  0
 24 34  1  0  0  0  0
 25 35  1  0  0  0  0
 26 36  1  0  0  0  0
  3  4  1  0  0  0  0
  3  5  1  0  0  0  0
  3  6  1  0  0  0  0
 42 45  1  0  0  0  0
 42 46  1  0  0  0  0
 42 47  1  0  0  0  0
 11 14  1  0  0  0  0
 11 15  1  0  0  0  0
 11 16  1  0  0  0  0
 49 51  1  0  0  0  0
 49 52  1  0  0  0  0
 49 53  1  0  0  0  0
 21 31  1  0  0  0  0
 21 32  1  0  0  0  0
 39 44  1  0  0  0  0
  8 13  1  0  0  0  0
 18 30  1  0  0  0  0
 48 50  1  0  0  0  0
  7 12  1  0  0  0  0
 38 43  1  0  0  0  0
 17 29  1  0  0  0  0
 28 37  1  0  0  0  0
M  END
$$$$

  -OEChem-05262214473D

 53 53  0     1  0  0  0  0  0999 V2000
   -1.9298    0.2574    3.9747 C   0  0  0  0  0  0  0  0  0  0  0  0
   -0.9825   -0.3573    3.4990 O   0  0  0  0  0  0  0  0  0  0  0  0
   -2.3617   -0.0250    5.3754 C   0  0  0  0  0  0  0  0  0  0  0  0
   -3.1214   -0.8213    5.4288 H   0  0  0  0  0  0  0  0  0  0  0  0
   -1.5305   -0.3726    6.0097 H   0  0  0  0  0  0  0  0  0  0  0  0
   -2.7997    0.8299    5.9150 H   0  0  0  0  0  0  0  0  0  0  0  0
   -2.6795    1.2298    3.3336 N   0  0  0  0  0  0  0  0  0  0  0  0
   -2.4327    1.6559    1.9812 C   0  0  2  0  0  0  0  0  0  0  0  0
   -1.0977    1.0705    1.5400 C   0  0  0  0  0  0  0  0  0  0  0  0
   -0.2256    0.7177    2.3313 O   0  0  0  0  0  0  0  0  0  0  0  0
   -2.4239    3.1726    1.8718 C   0  0  0  0  0  0  0  0  0  0  0  0
   -3.4446    1.6657    3.8454 H   0  0  0  0  0  0  0  0  0  0  0  0
   -3.2368    1.2374    1.3661 H   0  0  0  0  0  0  0  0  0  0  0  0
   -1.6248    3.6099    2.4815 H   0  0  0  0  0  0  0  0  0  0  0  0
   -2.2644    3.4949    0.8375 H   0  0  0  0  0  0  0  0  0  0  0  0
   -3.3741    3.5939    2.2175 H   0  0  0  0  0  0  0  0  0  0  0  0
   -0.9750    1.0274    0.1566 N   0  0  0  0  0  0  0  0  0  0  0  0
    0.2023    0.5266   -0.5070 C   0  0  2  0  0  0  0  0  0  0  0  0
   -0.0423    0.6419   -2.0074 C   0  0  0  0  0  0  0  0  0  0  0  0
    0.0410    1.7048   -2.6192 O   0  0  0  0  0  0  0  0  0  0  0  0
    0.5070   -0.9270   -0.1270 C   0  0  0  0  0  0  0  0  0  0  0  0
    0.9107   -1.0797    1.3192 C   0  0  0  0  0  0  0  0  0  0  0  0
    2.2207   -0.8034    1.7108 C   0  0  0  0  0  0  0  0  0  0  0  0
   -0.0262   -1.4979    2.2642 C   0  0  0  0  0  0  0  0  0  0  0  0
    2.5937   -0.9451    3.0473 C   0  0  0  0  0  0  0  0  0  0  0  0
    0.3469   -1.6397    3.6008 C   0  0  0  0  0  0  0  0  0  0  0  0
    1.6569   -1.3633    3.9923 C   0  0  0  0  0  0  0  0  0  0  0  0
    2.0214   -1.5028    5.2962 O   0  0  0  0  0  0  0  0  0  0  0  0
   -1.7582    1.3241   -0.4207 H   0  0  0  0  0  0  0  0  0  0  0  0
    1.0266    1.1924   -0.2256 H   0  0  0  0  0  0  0  0  0  0  0  0
    1.2956   -1.3324   -0.7754 H   0  0  0  0  0  0  0  0  0  0  0  0
   -0.3698   -1.5627   -0.3081 H   0  0  0  0  0  0  0  0  0  0  0  0
    2.9571   -0.4770    0.9813 H   0  0  0  0  0  0  0  0  0  0  0  0
   -1.0492   -1.7153    1.9682 H   0  0  0  0  0  0  0  0  0  0  0  0
    3.6160   -0.7286    3.3461 H   0  0  0  0  0  0  0  0  0  0  0  0
   -0.3874   -1.9661    4.3319 H   0  0  0  0  0  0  0  0  0  0  0  0
    1.2648   -1.7986    5.8272 H   0  0  0  0  0  0  0  0  0  0  0  0
   -0.3147   -0.5901   -2.5856 N   0  0  0  0  0  0  0  0  0  0  0  0
   -0.5618   -0.7662   -3.9987 C   0  0  2  0  0  0  0  0  0  0  0  0
   -1.6137    0.2502   -4.4225 C   0  0  0  0  0  0  0  0  0  0  0  0
   -2.4034    0.7666   -3.6345 O   0  0  0  0  0  0  0  0  0  0  0  0
   -1.0193   -2.1832   -4.3080 C   0  0  0  0  0  0  0  0  0  0  0  0
   -0.3417   -1.4091   -1.9855 H   0  0  0  0  0  0  0  0  0  0  0  0
    0.3813   -0.5530   -4.5136 H   0  0  0  0  0  0  0  0  0  0  0  0
   -1.9629   -2.4151   -3.8007 H   0  0  0  0  0  0  0  0  0  0  0  0
   -1.1786   -2.3231   -5.3823 H   0  0  0  0  0  0  0  0  0  0  0  0
   -0.2747   -2.9145   -3.9755 H   0  0  0  0  0  0  0  0  0  0  0  0
   -1.5954    0.4806   -5.7910 N   0  0  0  0  0  0  0  0  0  0  0  0
   -2.5059    1.3948   -6.4400 C   0  0  0  0  0  0  0  0  0  0  0  0
   -0.8937    0.0230   -6.3654 H   0  0  0  0  0  0  0  0  0  0  0  0
   -3.3944    0.8453   -6.7847 H   0  0  0  0  0  0  0  0  0  0  0  0
   -2.8113    2.1754   -5.7276 H   0  0  0  0  0  0  0  0  0  0  0  0
   -2.0056    1.8603   -7.3019 H   0  0  0  0  0  0  0  0  0  0  0  0
 23 25  2  0  0  0  0
 22 23  1  0  0  0  0
 24 26  1  0  0  0  0
 22 24  2  0  0  0  0
 25 27  1  0  0  0  0
 26 27  2  0  0  0  0
 21 22  1  0  0  0  0
 27 28  1  0  0  0  0
  1  3  1  0  0  0  0
  1  7  1  0  0  0  0
  1  2  2  0  0  0  0
 39 40  1  0  0  0  0
 40 48  1  0  0  0  0
 40 41  2  0  0  0  0
  8  9  1  0  0  0  0
  9 17  1  0  0  0  0
  9 10  2  0  0  0  0
 18 19  1  0  0  0  0
 19 38  1  0  0  0  0
 19 20  2  0  0  0  0
 39 42  1  0  0  0  0
  8 11  1  0  0  0  0
 48 49  1  0  0  0  0
 18 21  1  0  0  0  0
 38 39  1  0  0  0  0
  7  8  1  0  0  0  0
 17 18  1  0  0  0  0
 23 33  1  0  0  0  0
 24 34  1  0  0  0  0
 25 35  1  0  0  0  0
 26 36  1  0  0  0  0
  3  4  1  0  0  0  0
  3  5  1  0  0  0  0
  3  6  1  0  0  0  0
 42 45  1  0  0  0  0
 42 46  1  0  0  0  0
 42 47  1  0  0  0  0
 11 14  1  0  0  0  0
 11 15  1  0  0  0  0
 11 16  1  0  0  0  0
 49 51  1  0  0  0  0
 49 52  1  0  0  0  0
 49 53  1  0  0  0  0
 21 31  1  0  0  0  0
 21 32  1  0  0  0  0
 39 44  1  0  0  0  0
  8 13  1  0  0  0  0
 18 30  1  0  0  0  0
 48 50  1  0  0  0  0
  7 12  1  0  0  0  0
 38 43  1  0  0  0  0
 17 29  1  0  0  0  0
 28 37  1  0  0  0  0
M  END
$$$$

  -OEChem-05262214473D

 53 53  0     1  0  0  0  0  0999 V2000
   -1.9298    0.2574    3.9747 C   0  0  0  0  0  0  0  0  0  0  0  0
   -0.9825   -0.3573    3.4990 O   0  0  0  0  0  0  0  0  0  0  0  0
   -2.3617   -0.0250    5.3754 C   0  0  0  0  0  0  0  0  0  0  0  0
   -3.1214   -0.8213    5.4288 H   0  0  0  0  0  0  0  0  0  0  0  0
   -1.5305   -0.3726    6.0097 H   0  0  0  0  0  0  0  0  0  0  0  0
   -2.7997    0.8299    5.9150 H   0  0  0  0  0  0  0  0  0  0  0  0
   -2.6795    1.2298    3.3336 N   0  0  0  0  0  0  0  0  0  0  0  0
   -2.4327    1.6559    1.9812 C   0  0  2  0  0  0  0  0  0  0  0  0
   -1.0977    1.0705    1.5400 C   0  0  0  0  0  0  0  0  0  0  0  0
   -0.2256    0.7177    2.3313 O   0  0  0  0  0  0  0  0  0  0  0  0
   -2.4239    3.1726    1.8718 C   0  0  0  0  0  0  0  0  0  0  0  0
   -3.4446    1.6657    3.8454 H   0  0  0  0  0  0  0  0  0  0  0  0
   -3.2368    1.2374    1.3661 H   0  0  0  0  0  0  0  0  0  0  0  0
   -1.6248    3.6099    2.4815 H   0  0  0  0  0  0  0  0  0  0  0  0
   -2.2644    3.4949    0.8375 H   0  0  0  0  0  0  0  0  0  0  0  0
   -3.3741    3.5939    2.2175 H   0  0  0  0  0  0  0  0  0  0  0  0
   -0.9750    1.0274    0.1566 N   0  0  0  0  0  0  0  0  0  0  0  0
    0.2023    0.5266   -0.5070 C   0  0  2  0  0  0  0  0  0  0  0  0
   -0.0423    0.6419   -2.0074 C   0  0  0  0  0  0  0  0  0  0  0  0
    0.2933    1.6237   -2.6665 O   0  0  0  0  0  0  0  0  0  0  0  0
    0.5070   -0.9270   -0.1270 C   0  0  0  0  0  0  0  0  0  0  0  0
    0.9107   -1.0797    1.3192 C   0  0  0  0  0  0  0  0  0  0  0  0
    2.2207   -0.8034    1.7108 C   0  0  0  0  0  0  0  0  0  0  0  0
   -0.0262   -1.4979    2.2642 C   0  0  0  0  0  0  0  0  0  0  0  0
    2.5937   -0.9451    3.0473 C   0  0  0  0  0  0  0  0  0  0  0  0
    0.3469   -1.6397    3.6008 C   0  0  0  0  0  0  0  0  0  0  0  0
    1.6569   -1.3633    3.9923 C   0  0  0  0  0  0  0  0  0  0  0  0
    2.0214   -1.5028    5.2962 O   0  0  0  0  0  0  0  0  0  0  0  0
   -1.7582    1.3241   -0.4207 H   0  0  0  0  0  0  0  0  0  0  0  0
    1.0266    1.1924   -0.2256 H   0  0  0  0  0  0  0  0  0  0  0  0
    1.2956   -1.3324   -0.7754 H   0  0  0  0  0  0  0  0  0  0  0  0
   -0.3698   -1.5627   -0.3081 H   0  0  0  0  0  0  0  0  0  0  0  0
    2.9571   -0.4770    0.9813 H   0  0  0  0  0  0  0  0  0  0  0  0
   -1.0492   -1.7153    1.9682 H   0  0  0  0  0  0  0  0  0  0  0  0
    3.6160   -0.7286    3.3461 H   0  0  0  0  0  0  0  0  0  0  0  0
   -0.3874   -1.9661    4.3319 H   0  0  0  0  0  0  0  0  0  0  0  0
    1.2648   -1.7986    5.8272 H   0  0  0  0  0  0  0  0  0  0  0  0
   -0.6334   -0.5014   -2.5269 N   0  0  0  0  0  0  0  0  0  0  0  0
   -0.9523   -0.6637   -3.9271 C   0  0  2  0  0  0  0  0  0  0  0  0
   -1.7215    0.5702   -4.3803 C   0  0  0  0  0  0  0  0  0  0  0  0
   -2.3339    1.3013   -3.6047 O   0  0  0  0  0  0  0  0  0  0  0  0
   -1.7628   -1.9279   -4.1672 C   0  0  0  0  0  0  0  0  0  0  0  0
   -0.8528   -1.2624   -1.8909 H   0  0  0  0  0  0  0  0  0  0  0  0
    0.0008   -0.7183   -4.4643 H   0  0  0  0  0  0  0  0  0  0  0  0
   -2.7213   -1.8915   -3.6368 H   0  0  0  0  0  0  0  0  0  0  0  0
   -1.9792   -2.0643   -5.2319 H   0  0  0  0  0  0  0  0  0  0  0  0
   -1.2206   -2.8115   -3.8134 H   0  0  0  0  0  0  0  0  0  0  0  0
   -1.6794    0.7347   -5.7578 N   0  0  0  0  0  0  0  0  0  0  0  0
   -2.3434    1.8250   -6.4334 C   0  0  0  0  0  0  0  0  0  0  0  0
   -1.1316    0.0912   -6.3213 H   0  0  0  0  0  0  0  0  0  0  0  0
   -3.3506    1.5074   -6.7409 H   0  0  0  0  0  0  0  0  0  0  0  0
   -2.4222    2.6848   -5.7519 H   0  0  0  0  0  0  0  0  0  0  0  0
   -1.7627    2.1135   -7.3220 H   0  0  0  0  0  0  0  0  0  0  0  0
 23 25  2  0  0  0  0
 22 23  1  0  0  0  0
 24 26  1  0  0  0  0
 22 24  2  0  0  0  0
 25 27  1  0  0  0  0
 26 27  2  0  0  0  0
 21 22  1  0  0  0  0
 27 28  1  0  0  0  0
  1  3  1  0  0  0  0
  1  7  1  0  0  0  0
  1  2  2  0  0  0  0
 39 40  1  0  0  0  0
 40 48  1  0  0  0  0
 40 41  2  0  0  0  0
  8  9  1  0  0  0  0
  9 17  1  0  0  0  0
  9 10  2  0  0  0  0
 18 19  1  0  0  0  0
 19 38  1  0  0  0  0
 19 20  2  0  0  0  0
 39 42  1  0  0  0  0
  8 11  1  0  0  0  0
 48 49  1  0  0  0  0
 18 21  1  0  0  0  0
 38 39  1  0  0  0  0
  7  8  1  0  0  0  0
 17 18  1  0  0  0  0
 23 33  1  0  0  0  0
 24 34  1  0  0  0  0
 25 35  1  0  0  0  0
 26 36  1  0  0  0  0
  3  4  1  0  0  0  0
  3  5  1  0  0  0  0
  3  6  1  0  0  0  0
 42 45  1  0  0  0  0
 42 46  1  0  0  0  0
 42 47  1  0  0  0  0
 11 14  1  0  0  0  0
 11 15  1  0  0  0  0
 11 16  1  0  0  0  0
 49 51  1  0  0  0  0
 49 52  1  0  0  0  0
 49 53  1  0  0  0  0
 21 31  1  0  0  0  0
 21 32  1  0  0  0  0
 39 44  1  0  0  0  0
  8 13  1  0  0  0  0
 18 30  1  0  0  0  0
 48 50  1  0  0  0  0
  7 12  1  0  0  0  0
 38 43  1  0  0  0  0
 17 29  1  0  0  0  0
 28 37  1  0  0  0  0
M  END
$$$$

  -OEChem-05262214473D

 53 53  0     1  0  0  0  0  0999 V2000
   -1.9298    0.2574    3.9747 C   0  0  0  0  0  0  0  0  0  0  0  0
   -0.9825   -0.3573    3.4990 O   0  0  0  0  0  0  0  0  0  0  0  0
   -2.3617   -0.0250    5.3754 C   0  0  0  0  0  0  0  0  0  0  0  0
   -3.1214   -0.8213    5.4288 H   0  0  0  0  0  0  0  0  0  0  0  0
   -1.5305   -0.3726    6.0097 H   0  0  0  0  0  0  0  0  0  0  0  0
   -2.7997    0.8299    5.9150 H   0  0  0  0  0  0  0  0  0  0  0  0
   -2.6795    1.2298    3.3336 N   0  0  0  0  0  0  0  0  0  0  0  0
   -2.4327    1.6559    1.9812 C   0  0  2  0  0  0  0  0  0  0  0  0
   -1.0977    1.0705    1.5400 C   0  0  0  0  0  0  0  0  0  0  0  0
   -0.2256    0.7177    2.3313 O   0  0  0  0  0  0  0  0  0  0  0  0
   -2.4239    3.1726    1.8718 C   0  0  0  0  0  0  0  0  0  0  0  0
   -3.4446    1.6657    3.8454 H   0  0  0  0  0  0  0  0  0  0  0  0
   -3.2368    1.2374    1.3661 H   0  0  0  0  0  0  0  0  0  0  0  0
   -1.6248    3.6099    2.4815 H   0  0  0  0  0  0  0  0  0  0  0  0
   -2.2644    3.4949    0.8375 H   0  0  0  0  0  0  0  0  0  0  0  0
   -3.3741    3.5939    2.2175 H   0  0  0  0  0  0  0  0  0  0  0  0
   -0.9750    1.0274    0.1566 N   0  0  0  0  0  0  0  0  0  0  0  0
    0.2023    0.5266   -0.5070 C   0  0  2  0  0  0  0  0  0  0  0  0
   -0.0423    0.6419   -2.0074 C   0  0  0  0  0  0  0  0  0  0  0  0
    0.5153    1.4791   -2.7138 O   0  0  0  0  0  0  0  0  0  0  0  0
    0.5070   -0.9270   -0.1270 C   0  0  0  0  0  0  0  0  0  0  0  0
    0.9107   -1.0797    1.3192 C   0  0  0  0  0  0  0  0  0  0  0  0
    2.2207   -0.8034    1.7108 C   0  0  0  0  0  0  0  0  0  0  0  0
   -0.0262   -1.4979    2.2642 C   0  0  0  0  0  0  0  0  0  0  0  0
    2.5937   -0.9451    3.0473 C   0  0  0  0  0  0  0  0  0  0  0  0
    0.3469   -1.6397    3.6008 C   0  0  0  0  0  0  0  0  0  0  0  0
    1.6569   -1.3633    3.9923 C   0  0  0  0  0  0  0  0  0  0  0  0
    2.0214   -1.5028    5.2962 O   0  0  0  0  0  0  0  0  0  0  0  0
   -1.7582    1.3241   -0.4207 H   0  0  0  0  0  0  0  0  0  0  0  0
    1.0266    1.1924   -0.2256 H   0  0  0  0  0  0  0  0  0  0  0  0
    1.2956   -1.3324   -0.7754 H   0  0  0  0  0  0  0  0  0  0  0  0
   -0.3698   -1.5627   -0.3081 H   0  0  0  0  0  0  0  0  0  0  0  0
    2.9571   -0.4770    0.9813 H   0  0  0  0  0  0  0  0  0  0  0  0
   -1.0492   -1.7153    1.9682 H   0  0  0  0  0  0  0  0  0  0  0  0
    3.6160   -0.7286    3.3461 H   0  0  0  0  0  0  0  0  0  0  0  0
   -0.3874   -1.9661    4.3319 H   0  0  0  0  0  0  0  0  0  0  0  0
    1.2648   -1.7986    5.8272 H   0  0  0  0  0  0  0  0  0  0  0  0
   -0.9175   -0.3321   -2.4675 N   0  0  0  0  0  0  0  0  0  0  0  0
   -1.3021   -0.4621   -3.8546 C   0  0  2  0  0  0  0  0  0  0  0  0
   -1.7432    0.9085   -4.3508 C   0  0  0  0  0  0  0  0  0  0  0  0
   -2.1300    1.8013   -3.5995 O   0  0  0  0  0  0  0  0  0  0  0  0
   -2.4131   -1.4861   -4.0272 C   0  0  0  0  0  0  0  0  0  0  0  0
   -1.3073   -0.9866   -1.7956 H   0  0  0  0  0  0  0  0  0  0  0  0
   -0.4079   -0.7790   -4.4024 H   0  0  0  0  0  0  0  0  0  0  0  0
   -3.3173   -1.1857   -3.4853 H   0  0  0  0  0  0  0  0  0  0  0  0
   -2.6835   -1.6042   -5.0816 H   0  0  0  0  0  0  0  0  0  0  0  0
   -2.1047   -2.4643   -3.6426 H   0  0  0  0  0  0  0  0  0  0  0  0
   -1.6950    1.0030   -5.7346 N   0  0  0  0  0  0  0  0  0  0  0  0
   -2.0766    2.1994   -6.4481 C   0  0  0  0  0  0  0  0  0  0  0  0
   -1.3432    0.2196   -6.2770 H   0  0  0  0  0  0  0  0  0  0  0  0
   -3.1389    2.1375   -6.7270 H   0  0  0  0  0  0  0  0  0  0  0  0
   -1.9172    3.0768   -5.8041 H   0  0  0  0  0  0  0  0  0  0  0  0
   -1.4641    2.2953   -7.3567 H   0  0  0  0  0  0  0  0  0  0  0  0
 23 25  2  0  0  0  0
 22 23  1  0  0  0  0
 24 26  1  0  0  0  0
 22 24  2  0  0  0  0
 25 27  1  0  0  0  0
 26 27  2  0  0  0  0
 21 22  1  0  0  0  0
 27 28  1  0  0  0  0
  1  3  1  0  0  0  0
  1  7  1  0  0  0  0
  1  2  2  0  0  0  0
 39 40  1  0  0  0  0
 40 48  1  0  0  0  0
 40 41  2  0  0  0  0
  8  9  1  0  0  0  0
  9 17  1  0  0  0  0
  9 10  2  0  0  0  0
 18 19  1  0  0  0  0
 19 38  1  0  0  0  0
 19 20  2  0  0  0  0
 39 42  1  0  0  0  0
  8 11  1  0  0  0  0
 48 49  1  0  0  0  0
 18 21  1  0  0  0  0
 38 39  1  0  0  0  0
  7  8  1  0  0  0  0
 17 18  1  0  0  0  0
 23 33  1  0  0  0  0
 24 34  1  0  0  0  0
 25 35  1  0  0  0  0
 26 36  1  0  0  0  0
  3  4  1  0  0  0  0
  3  5  1  0  0  0  0
  3  6  1  0  0  0  0
 42 45  1  0  0  0  0
 42 46  1  0  0  0  0
 42 47  1  0  0  0  0
 11 14  1  0  0  0  0
 11 15  1  0  0  0  0
 11 16  1  0  0  0  0
 49 51  1  0  0  0  0
 49 52  1  0  0  0  0
 49 53  1  0  0  0  0
 21 31  1  0  0  0  0
 21 32  1  0  0  0  0
 39 44  1  0  0  0  0
  8 13  1  0  0  0  0
 18 30  1  0  0  0  0
 48 50  1  0  0  0  0
  7 12  1  0  0  0  0
 38 43  1  0  0  0  0
 17 29  1  0  0  0  0
 28 37  1  0  0  0  0
M  END
$$$$

  -OEChem-05262214473D

 53 53  0     1  0  0  0  0  0999 V2000
   -1.9298    0.2574    3.9747 C   0  0  0  0  0  0  0  0  0  0  0  0
   -0.9825   -0.3573    3.4990 O   0  0  0  0  0  0  0  0  0  0  0  0
   -2.3617   -0.0250    5.3754 C   0  0  0  0  0  0  0  0  0  0  0  0
   -3.1214   -0.8213    5.4288 H   0  0  0  0  0  0  0  0  0  0  0  0
   -1.5305   -0.3726    6.0097 H   0  0  0  0  0  0  0  0  0  0  0  0
   -2.7997    0.8299    5.9150 H   0  0  0  0  0  0  0  0  0  0  0  0
   -2.6795    1.2298    3.3336 N   0  0  0  0  0  0  0  0  0  0  0  0
   -2.4327    1.6559    1.9812 C   0  0  2  0  0  0  0  0  0  0  0  0
   -1.0977    1.0705    1.5400 C   0  0  0  0  0  0  0  0  0  0  0  0
   -0.2256    0.7177    2.3313 O   0  0  0  0  0  0  0  0  0  0  0  0
   -2.4239    3.1726    1.8718 C   0  0  0  0  0  0  0  0  0  0  0  0
   -3.4446    1.6657    3.8454 H   0  0  0  0  0  0  0  0  0  0  0  0
   -3.2368    1.2374    1.3661 H   0  0  0  0  0  0  0  0  0  0  0  0
   -1.6248    3.6099    2.4815 H   0  0  0  0  0  0  0  0  0  0  0  0
   -2.2644    3.4949    0.8375 H   0  0  0  0  0  0  0  0  0  0  0  0
   -3.3741    3.5939    2.2175 H   0  0  0  0  0  0  0  0  0  0  0  0
   -0.9750    1.0274    0.1566 N   0  0  0  0  0  0  0  0  0  0  0  0
    0.2023    0.5266   -0.5070 C   0  0  2  0  0  0  0  0  0  0  0  0
   -0.0423    0.6419   -2.0074 C   0  0  0  0  0  0  0  0  0  0  0  0
    0.6921    1.2809   -2.7579 O   0  0  0  0  0  0  0  0  0  0  0  0
    0.5070   -0.9270   -0.1270 C   0  0  0  0  0  0  0  0  0  0  0  0
    0.9107   -1.0797    1.3192 C   0  0  0  0  0  0  0  0  0  0  0  0
    2.2207   -0.8034    1.7108 C   0  0  0  0  0  0  0  0  0  0  0  0
   -0.0262   -1.4979    2.2642 C   0  0  0  0  0  0  0  0  0  0  0  0
    2.5937   -0.9451    3.0473 C   0  0  0  0  0  0  0  0  0  0  0  0
    0.3469   -1.6397    3.6008 C   0  0  0  0  0  0  0  0  0  0  0  0
    1.6569   -1.3633    3.9923 C   0  0  0  0  0  0  0  0  0  0  0  0
    2.0214   -1.5028    5.2962 O   0  0  0  0  0  0  0  0  0  0  0  0
   -1.7582    1.3241   -0.4207 H   0  0  0  0  0  0  0  0  0  0  0  0
    1.0266    1.1924   -0.2256 H   0  0  0  0  0  0  0  0  0  0  0  0
    1.2956   -1.3324   -0.7754 H   0  0  0  0  0  0  0  0  0  0  0  0
   -0.3698   -1.5627   -0.3081 H   0  0  0  0  0  0  0  0  0  0  0  0
    2.9571   -0.4770    0.9813 H   0  0  0  0  0  0  0  0  0  0  0  0
   -1.0492   -1.7153    1.9682 H   0  0  0  0  0  0  0  0  0  0  0  0
    3.6160   -0.7286    3.3461 H   0  0  0  0  0  0  0  0  0  0  0  0
   -0.3874   -1.9661    4.3319 H   0  0  0  0  0  0  0  0  0  0  0  0
    1.2648   -1.7986    5.8272 H   0  0  0  0  0  0  0  0  0  0  0  0
   -1.1476   -0.0938   -2.4117 N   0  0  0  0  0  0  0  0  0  0  0  0
   -1.5871   -0.1754   -3.7861 C   0  0  2  0  0  0  0  0  0  0  0  0
   -1.6774    1.2421   -4.3359 C   0  0  0  0  0  0  0  0  0  0  0  0
   -1.8057    2.2326   -3.6192 O   0  0  0  0  0  0  0  0  0  0  0  0
   -2.9260   -0.8879   -3.8976 C   0  0  0  0  0  0  0  0  0  0  0  0
   -1.6741   -0.6005   -1.7061 H   0  0  0  0  0  0  0  0  0  0  0  0
   -0.8169   -0.7310   -4.3320 H   0  0  0  0  0  0  0  0  0  0  0  0
   -3.7103   -0.3459   -3.3567 H   0  0  0  0  0  0  0  0  0  0  0  0
   -3.2438   -0.9741   -4.9419 H   0  0  0  0  0  0  0  0  0  0  0  0
   -2.8670   -1.8966   -3.4747 H   0  0  0  0  0  0  0  0  0  0  0  0
   -1.6414    1.2671   -5.7230 N   0  0  0  0  0  0  0  0  0  0  0  0
   -1.7239    2.4925   -6.4831 C   0  0  0  0  0  0  0  0  0  0  0  0
   -1.5140    0.3993   -6.2353 H   0  0  0  0  0  0  0  0  0  0  0  0
   -2.7735    2.6929   -6.7439 H   0  0  0  0  0  0  0  0  0  0  0  0
   -1.3305    3.3246   -5.8807 H   0  0  0  0  0  0  0  0  0  0  0  0
   -1.1300    2.3935   -7.4037 H   0  0  0  0  0  0  0  0  0  0  0  0
 23 25  2  0  0  0  0
 22 23  1  0  0  0  0
 24 26  1  0  0  0  0
 22 24  2  0  0  0  0
 25 27  1  0  0  0  0
 26 27  2  0  0  0  0
 21 22  1  0  0  0  0
 27 28  1  0  0  0  0
  1  3  1  0  0  0  0
  1  7  1  0  0  0  0
  1  2  2  0  0  0  0
 39 40  1  0  0  0  0
 40 48  1  0  0  0  0
 40 41  2  0  0  0  0
  8  9  1  0  0  0  0
  9 17  1  0  0  0  0
  9 10  2  0  0  0  0
 18 19  1  0  0  0  0
 19 38  1  0  0  0  0
 19 20  2  0  0  0  0
 39 42  1  0  0  0  0
  8 11  1  0  0  0  0
 48 49  1  0  0  0  0
 18 21  1  0  0  0  0
 38 39  1  0  0  0  0
  7  8  1  0  0  0  0
 17 18  1  0  0  0  0
 23 33  1  0  0  0  0
 24 34  1  0  0  0  0
 25 35  1  0  0  0  0
 26 36  1  0  0  0  0
  3  4  1  0  0  0  0
  3  5  1  0  0  0  0
  3  6  1  0  0  0  0
 42 45  1  0  0  0  0
 42 46  1  0  0  0  0
 42 47  1  0  0  0  0
 11 14  1  0  0  0  0
 11 15  1  0  0  0  0
 11 16  1  0  0  0  0
 49 51  1  0  0  0  0
 49 52  1  0  0  0  0
 49 53  1  0  0  0  0
 21 31  1  0  0  0  0
 21 32  1  0  0  0  0
 39 44  1  0  0  0  0
  8 13  1  0  0  0  0
 18 30  1  0  0  0  0
 48 50  1  0  0  0  0
  7 12  1  0  0  0  0
 38 43  1  0  0  0  0
 17 29  1  0  0  0  0
 28 37  1  0  0  0  0
M  END
$$$$

  -OEChem-05262214473D

 53 53  0     1  0  0  0  0  0999 V2000
   -1.9298    0.2574    3.9747 C   0  0  0  0  0  0  0  0  0  0  0  0
   -0.9825   -0.3573    3.4990 O   0  0  0  0  0  0  0  0  0  0  0  0
   -2.3617   -0.0250    5.3754 C   0  0  0  0  0  0  0  0  0  0  0  0
   -3.1214   -0.8213    5.4288 H   0  0  0  0  0  0  0  0  0  0  0  0
   -1.5305   -0.3726    6.0097 H   0  0  0  0  0  0  0  0  0  0  0  0
   -2.7997    0.8299    5.9150 H   0  0  0  0  0  0  0  0  0  0  0  0
   -2.6795    1.2298    3.3336 N   0  0  0  0  0  0  0  0  0  0  0  0
   -2.4327    1.6559    1.9812 C   0  0  2  0  0  0  0  0  0  0  0  0
   -1.0977    1.0705    1.5400 C   0  0  0  0  0  0  0  0  0  0  0  0
   -0.2256    0.7177    2.3313 O   0  0  0  0  0  0  0  0  0  0  0  0
   -2.4239    3.1726    1.8718 C   0  0  0  0  0  0  0  0  0  0  0  0
   -3.4446    1.6657    3.8454 H   0  0  0  0  0  0  0  0  0  0  0  0
   -3.2368    1.2374    1.3661 H   0  0  0  0  0  0  0  0  0  0  0  0
   -1.6248    3.6099    2.4815 H   0  0  0  0  0  0  0  0  0  0  0  0
   -2.2644    3.4949    0.8375 H   0  0  0  0  0  0  0  0  0  0  0  0
   -3.3741    3.5939    2.2175 H   0  0  0  0  0  0  0  0  0  0  0  0
   -0.9750    1.0274    0.1566 N   0  0  0  0  0  0  0  0  0  0  0  0
    0.2023    0.5266   -0.5070 C   0  0  2  0  0  0  0  0  0  0  0  0
   -0.0423    0.6419   -2.0074 C   0  0  0  0  0  0  0  0  0  0  0  0
    0.8114    1.0426   -2.7957 O   0  0  0  0  0  0  0  0  0  0  0  0
    0.5070   -0.9270   -0.1270 C   0  0  0  0  0  0  0  0  0  0  0  0
    0.9107   -1.0797    1.3192 C   0  0  0  0  0  0  0  0  0  0  0  0
    2.2207   -0.8034    1.7108 C   0  0  0  0  0  0  0  0  0  0  0  0
   -0.0262   -1.4979    2.2642 C   0  0  0  0  0  0  0  0  0  0  0  0
    2.5937   -0.9451    3.0473 C   0  0  0  0  0  0  0  0  0  0  0  0
    0.3469   -1.6397    3.6008 C   0  0  0  0  0  0  0  0  0  0  0  0
    1.6569   -1.3633    3.9923 C   0  0  0  0  0  0  0  0  0  0  0  0
    2.0214   -1.5028    5.2962 O   0  0  0  0  0  0  0  0  0  0  0  0
   -1.7582    1.3241   -0.4207 H   0  0  0  0  0  0  0  0  0  0  0  0
    1.0266    1.1924   -0.2256 H   0  0  0  0  0  0  0  0  0  0  0  0
    1.2956   -1.3324   -0.7754 H   0  0  0  0  0  0  0  0  0  0  0  0
   -0.3698   -1.5627   -0.3081 H   0  0  0  0  0  0  0  0  0  0  0  0
    2.9571   -0.4770    0.9813 H   0  0  0  0  0  0  0  0  0  0  0  0
   -1.0492   -1.7153    1.9682 H   0  0  0  0  0  0  0  0  0  0  0  0
    3.6160   -0.7286    3.3461 H   0  0  0  0  0  0  0  0  0  0  0  0
   -0.3874   -1.9661    4.3319 H   0  0  0  0  0  0  0  0  0  0  0  0
    1.2648   -1.7986    5.8272 H   0  0  0  0  0  0  0  0  0  0  0  0
   -1.3081    0.1973   -2.3631 N   0  0  0  0  0  0  0  0  0  0  0  0
   -1.7881    0.1771   -3.7262 C   0  0  2  0  0  0  0  0  0  0  0  0
   -1.5287    1.5481   -4.3366 C   0  0  0  0  0  0  0  0  0  0  0  0
   -1.3829    2.5657   -3.6626 O   0  0  0  0  0  0  0  0  0  0  0  0
   -3.2665   -0.1741   -3.7872 C   0  0  0  0  0  0  0  0  0  0  0  0
   -1.9284   -0.1303   -1.6285 H   0  0  0  0  0  0  0  0  0  0  0  0
   -1.1983   -0.5775   -4.2580 H   0  0  0  0  0  0  0  0  0  0  0  0
   -3.8734    0.5708   -3.2597 H   0  0  0  0  0  0  0  0  0  0  0  0
   -3.6218   -0.2170   -4.8220 H   0  0  0  0  0  0  0  0  0  0  0  0
   -3.4554   -1.1472   -3.3211 H   0  0  0  0  0  0  0  0  0  0  0  0
   -1.5221    1.5090   -5.7239 N   0  0  0  0  0  0  0  0  0  0  0  0
   -1.3092    2.6843   -6.5359 C   0  0  0  0  0  0  0  0  0  0  0  0
   -1.6324    0.6181   -6.1992 H   0  0  0  0  0  0  0  0  0  0  0  0
   -2.2796    3.1355   -6.7904 H   0  0  0  0  0  0  0  0  0  0  0  0
   -0.7023    3.4114   -5.9765 H   0  0  0  0  0  0  0  0  0  0  0  0
   -0.7831    2.4012   -7.4596 H   0  0  0  0  0  0  0  0  0  0  0  0
 23 25  2  0  0  0  0
 22 23  1  0  0  0  0
 24 26  1  0  0  0  0
 22 24  2  0  0  0  0
 25 27  1  0  0  0  0
 26 27  2  0  0  0  0
 21 22  1  0  0  0  0
 27 28  1  0  0  0  0
  1  3  1  0  0  0  0
  1  7  1  0  0  0  0
  1  2  2  0  0  0  0
 39 40  1  0  0  0  0
 40 48  1  0  0  0  0
 40 41  2  0  0  0  0
  8  9  1  0  0  0  0
  9 17  1  0  0  0  0
  9 10  2  0  0  0  0
 18 19  1  0  0  0  0
 19 38  1  0  0  0  0
 19 20  2  0  0  0  0
 39 42  1  0  0  0  0
  8 11  1  0  0  0  0
 48 49  1  0  0  0  0
 18 21  1  0  0  0  0
 38 39  1  0  0  0  0
  7  8  1  0  0  0  0
 17 18  1  0  0  0  0
 23 33  1  0  0  0  0
 24 34  1  0  0  0  0
 25 35  1  0  0  0  0
 26 36  1  0  0  0  0
  3  4  1  0  0  0  0
  3  5  1  0  0  0  0
  3  6  1  0  0  0  0
 42 45  1  0  0  0  0
 42 46  1  0  0  0  0
 42 47  1  0  0  0  0
 11 14  1  0  0  0  0
 11 15  1  0  0  0  0
 11 16  1  0  0  0  0
 49 51  1  0  0  0  0
 49 52  1  0  0  0  0
 49 53  1  0  0  0  0
 21 31  1  0  0  0  0
 21 32  1  0  0  0  0
 39 44  1  0  0  0  0
  8 13  1  0  0  0  0
 18 30  1  0  0  0  0
 48 50  1  0  0  0  0
  7 12  1  0  0  0  0
 38 43  1  0  0  0  0
 17 29  1  0  0  0  0
 28 37  1  0  0  0  0
M  END
$$$$

  -OEChem-05262214473D

 53 53  0     1  0  0  0  0  0999 V2000
   -1.9298    0.2574    3.9747 C   0  0  0  0  0  0  0  0  0  0  0  0
   -0.9825   -0.3573    3.4990 O   0  0  0  0  0  0  0  0  0  0  0  0
   -2.3617   -0.0250    5.3754 C   0  0  0  0  0  0  0  0  0  0  0  0
   -3.1214   -0.8213    5.4288 H   0  0  0  0  0  0  0  0  0  0  0  0
   -1.5305   -0.3726    6.0097 H   0  0  0  0  0  0  0  0  0  0  0  0
   -2.7997    0.8299    5.9150 H   0  0  0  0  0  0  0  0  0  0  0  0
   -2.6795    1.2298    3.3336 N   0  0  0  0  0  0  0  0  0  0  0  0
   -2.4327    1.6559    1.9812 C   0  0  2  0  0  0  0  0  0  0  0  0
   -1.0977    1.0705    1.5400 C   0  0  0  0  0  0  0  0  0  0  0  0
   -0.2256    0.7177    2.3313 O   0  0  0  0  0  0  0  0  0  0  0  0
   -2.4239    3.1726    1.8718 C   0  0  0  0  0  0  0  0  0  0  0  0
   -3.4446    1.6657    3.8454 H   0  0  0  0  0  0  0  0  0  0  0  0
   -3.2368    1.2374    1.3661 H   0  0  0  0  0  0  0  0  0  0  0  0
   -1.6248    3.6099    2.4815 H   0  0  0  0  0  0  0  0  0  0  0  0
   -2.2644    3.4949    0.8375 H   0  0  0  0  0  0  0  0  0  0  0  0
   -3.3741    3.5939    2.2175 H   0  0  0  0  0  0  0  0  0  0  0  0
   -0.9750    1.0274    0.1566 N   0  0  0  0  0  0  0  0  0  0  0  0
    0.2023    0.5266   -0.5070 C   0  0  2  0  0  0  0  0  0  0  0  0
   -0.0423    0.6419   -2.0074 C   0  0  0  0  0  0  0  0  0  0  0  0
    0.8653    0.7805   -2.8246 O   0  0  0  0  0  0  0  0  0  0  0  0
    0.5070   -0.9270   -0.1270 C   0  0  0  0  0  0  0  0  0  0  0  0
    0.9107   -1.0797    1.3192 C   0  0  0  0  0  0  0  0  0  0  0  0
    2.2207   -0.8034    1.7108 C   0  0  0  0  0  0  0  0  0  0  0  0
   -0.0262   -1.4979    2.2642 C   0  0  0  0  0  0  0  0  0  0  0  0
    2.5937   -0.9451    3.0473 C   0  0  0  0  0  0  0  0  0  0  0  0
    0.3469   -1.6397    3.6008 C   0  0  0  0  0  0  0  0  0  0  0  0
    1.6569   -1.3633    3.9923 C   0  0  0  0  0  0  0  0  0  0  0  0
    2.0214   -1.5028    5.2962 O   0  0  0  0  0  0  0  0  0  0  0  0
   -1.7582    1.3241   -0.4207 H   0  0  0  0  0  0  0  0  0  0  0  0
    1.0266    1.1924   -0.2256 H   0  0  0  0  0  0  0  0  0  0  0  0
    1.2956   -1.3324   -0.7754 H   0  0  0  0  0  0  0  0  0  0  0  0
   -0.3698   -1.5627   -0.3081 H   0  0  0  0  0  0  0  0  0  0  0  0
    2.9571   -0.4770    0.9813 H   0  0  0  0  0  0  0  0  0  0  0  0
   -1.0492   -1.7153    1.9682 H   0  0  0  0  0  0  0  0  0  0  0  0
    3.6160   -0.7286    3.3461 H   0  0  0  0  0  0  0  0  0  0  0  0
   -0.3874   -1.9661    4.3319 H   0  0  0  0  0  0  0  0  0  0  0  0
    1.2648   -1.7986    5.8272 H   0  0  0  0  0  0  0  0  0  0  0  0
   -1.3881    0.5215   -2.3252 N   0  0  0  0  0  0  0  0  0  0  0  0
   -1.8912    0.5712   -3.6791 C   0  0  2  0  0  0  0  0  0  0  0  0
   -1.3070    1.8058   -4.3529 C   0  0  0  0  0  0  0  0  0  0  0  0
   -0.8905    2.7780   -3.7265 O   0  0  0  0  0  0  0  0  0  0  0  0
   -3.4114    0.6067   -3.7035 C   0  0  0  0  0  0  0  0  0  0  0  0
   -2.0527    0.3918   -1.5681 H   0  0  0  0  0  0  0  0  0  0  0  0
   -1.5263   -0.3291   -4.1854 H   0  0  0  0  0  0  0  0  0  0  0  0
   -3.7956    1.5018   -3.2008 H   0  0  0  0  0  0  0  0  0  0  0  0
   -3.7916    0.6155   -4.7303 H   0  0  0  0  0  0  0  0  0  0  0  0
   -3.8299   -0.2670   -3.1924 H   0  0  0  0  0  0  0  0  0  0  0  0
   -1.3452    1.7123   -5.7371 N   0  0  0  0  0  0  0  0  0  0  0  0
   -0.8608    2.7617   -6.6031 C   0  0  0  0  0  0  0  0  0  0  0  0
   -1.6903    0.8612   -6.1711 H   0  0  0  0  0  0  0  0  0  0  0  0
   -1.6906    3.4353   -6.8633 H   0  0  0  0  0  0  0  0  0  0  0  0
   -0.0752    3.3311   -6.0849 H   0  0  0  0  0  0  0  0  0  0  0  0
   -0.4473    2.3180   -7.5208 H   0  0  0  0  0  0  0  0  0  0  0  0
 23 25  2  0  0  0  0
 22 23  1  0  0  0  0
 24 26  1  0  0  0  0
 22 24  2  0  0  0  0
 25 27  1  0  0  0  0
 26 27  2  0  0  0  0
 21 22  1  0  0  0  0
 27 28  1  0  0  0  0
  1  3  1  0  0  0  0
  1  7  1  0  0  0  0
  1  2  2  0  0  0  0
 39 40  1  0  0  0  0
 40 48  1  0  0  0  0
 40 41  2  0  0  0  0
  8  9  1  0  0  0  0
  9 17  1  0  0  0  0
  9 10  2  0  0  0  0
 18 19  1  0  0  0  0
 19 38  1  0  0  0  0
 19 20  2  0  0  0  0
 39 42  1  0  0  0  0
  8 11  1  0  0  0  0
 48 49  1  0  0  0  0
 18 21  1  0  0  0  0
 38 39  1  0  0  0  0
  7  8  1  0  0  0  0
 17 18  1  0  0  0  0
 23 33  1  0  0  0  0
 24 34  1  0  0  0  0
 25 35  1  0  0  0  0
 26 36  1  0  0  0  0
  3  4  1  0  0  0  0
  3  5  1  0  0  0  0
  3  6  1  0  0  0  0
 42 45  1  0  0  0  0
 42 46  1  0  0  0  0
 42 47  1  0  0  0  0
 11 14  1  0  0  0  0
 11 15  1  0  0  0  0
 11 16  1  0  0  0  0
 49 51  1  0  0  0  0
 49 52  1  0  0  0  0
 49 53  1  0  0  0  0
 21 31  1  0  0  0  0
 21 32  1  0  0  0  0
 39 44  1  0  0  0  0
  8 13  1  0  0  0  0
 18 30  1  0  0  0  0
 48 50  1  0  0  0  0
  7 12  1  0  0  0  0
 38 43  1  0  0  0  0
 17 29  1  0  0  0  0
 28 37  1  0  0  0  0
M  END
$$$$

  -OEChem-05262214473D

 53 53  0     1  0  0  0  0  0999 V2000
   -1.9298    0.2574    3.9747 C   0  0  0  0  0  0  0  0  0  0  0  0
   -0.9825   -0.3573    3.4990 O   0  0  0  0  0  0  0  0  0  0  0  0
   -2.3617   -0.0250    5.3754 C   0  0  0  0  0  0  0  0  0  0  0  0
   -3.1214   -0.8213    5.4288 H   0  0  0  0  0  0  0  0  0  0  0  0
   -1.5305   -0.3726    6.0097 H   0  0  0  0  0  0  0  0  0  0  0  0
   -2.7997    0.8299    5.9150 H   0  0  0  0  0  0  0  0  0  0  0  0
   -2.6795    1.2298    3.3336 N   0  0  0  0  0  0  0  0  0  0  0  0
   -2.4327    1.6559    1.9812 C   0  0  2  0  0  0  0  0  0  0  0  0
   -1.0977    1.0705    1.5400 C   0  0  0  0  0  0  0  0  0  0  0  0
   -0.2256    0.7177    2.3313 O   0  0  0  0  0  0  0  0  0  0  0  0
   -2.4239    3.1726    1.8718 C   0  0  0  0  0  0  0  0  0  0  0  0
   -3.4446    1.6657    3.8454 H   0  0  0  0  0  0  0  0  0  0  0  0
   -3.2368    1.2374    1.3661 H   0  0  0  0  0  0  0  0  0  0  0  0
   -1.6248    3.6099    2.4815 H   0  0  0  0  0  0  0  0  0  0  0  0
   -2.2644    3.4949    0.8375 H   0  0  0  0  0  0  0  0  0  0  0  0
   -3.3741    3.5939    2.2175 H   0  0  0  0  0  0  0  0  0  0  0  0
   -0.9750    1.0274    0.1566 N   0  0  0  0  0  0  0  0  0  0  0  0
    0.2023    0.5266   -0.5070 C   0  0  2  0  0  0  0  0  0  0  0  0
   -0.0423    0.6419   -2.0074 C   0  0  0  0  0  0  0  0  0  0  0  0
    0.8500    0.5124   -2.8427 O   0  0  0  0  0  0  0  0  0  0  0  0
    0.5070   -0.9270   -0.1270 C   0  0  0  0  0  0  0  0  0  0  0  0
    0.9107   -1.0797    1.3192 C   0  0  0  0  0  0  0  0  0  0  0  0
    2.2207   -0.8034    1.7108 C   0  0  0  0  0  0  0  0  0  0  0  0
   -0.0262   -1.4979    2.2642 C   0  0  0  0  0  0  0  0  0  0  0  0
    2.5937   -0.9451    3.0473 C   0  0  0  0  0  0  0  0  0  0  0  0
    0.3469   -1.6397    3.6008 C   0  0  0  0  0  0  0  0  0  0  0  0
    1.6569   -1.3633    3.9923 C   0  0  0  0  0  0  0  0  0  0  0  0
    2.0214   -1.5028    5.2962 O   0  0  0  0  0  0  0  0  0  0  0  0
   -1.7582    1.3241   -0.4207 H   0  0  0  0  0  0  0  0  0  0  0  0
    1.0266    1.1924   -0.2256 H   0  0  0  0  0  0  0  0  0  0  0  0
    1.2956   -1.3324   -0.7754 H   0  0  0  0  0  0  0  0  0  0  0  0
   -0.3698   -1.5627   -0.3081 H   0  0  0  0  0  0  0  0  0  0  0  0
    2.9571   -0.4770    0.9813 H   0  0  0  0  0  0  0  0  0  0  0  0
   -1.0492   -1.7153    1.9682 H   0  0  0  0  0  0  0  0  0  0  0  0
    3.6160   -0.7286    3.3461 H   0  0  0  0  0  0  0  0  0  0  0  0
   -0.3874   -1.9661    4.3319 H   0  0  0  0  0  0  0  0  0  0  0  0
    1.2648   -1.7986    5.8272 H   0  0  0  0  0  0  0  0  0  0  0  0
   -1.3820    0.8565   -2.3004 N   0  0  0  0  0  0  0  0  0  0  0  0
   -1.8896    0.9801   -3.6480 C   0  0  2  0  0  0  0  0  0  0  0  0
   -1.0276    1.9976   -4.3837 C   0  0  0  0  0  0  0  0  0  0  0  0
   -0.3620    2.8550   -3.8068 O   0  0  0  0  0  0  0  0  0  0  0  0
   -3.3508    1.4013   -3.6523 C   0  0  0  0  0  0  0  0  0  0  0  0
   -2.0386    0.9303   -1.5290 H   0  0  0  0  0  0  0  0  0  0  0  0
   -1.7783   -0.0025   -4.1192 H   0  0  0  0  0  0  0  0  0  0  0  0
   -3.4821    2.3837   -3.1841 H   0  0  0  0  0  0  0  0  0  0  0  0
   -3.7418    1.4668   -4.6730 H   0  0  0  0  0  0  0  0  0  0  0  0
   -3.9649    0.6839   -3.0973 H   0  0  0  0  0  0  0  0  0  0  0  0
   -1.1229    1.8630   -5.7617 N   0  0  0  0  0  0  0  0  0  0  0  0
   -0.4093    2.7195   -6.6799 C   0  0  0  0  0  0  0  0  0  0  0  0
   -1.6838    1.1118   -6.1528 H   0  0  0  0  0  0  0  0  0  0  0  0
   -1.0467    3.5719   -6.9578 H   0  0  0  0  0  0  0  0  0  0  0  0
    0.5080    3.0894   -6.1985 H   0  0  0  0  0  0  0  0  0  0  0  0
   -0.1452    2.1496   -7.5829 H   0  0  0  0  0  0  0  0  0  0  0  0
 23 25  2  0  0  0  0
 22 23  1  0  0  0  0
 24 26  1  0  0  0  0
 22 24  2  0  0  0  0
 25 27  1  0  0  0  0
 26 27  2  0  0  0  0
 21 22  1  0  0  0  0
 27 28  1  0  0  0  0
  1  3  1  0  0  0  0
  1  7  1  0  0  0  0
  1  2  2  0  0  0  0
 39 40  1  0  0  0  0
 40 48  1  0  0  0  0
 40 41  2  0  0  0  0
  8  9  1  0  0  0  0
  9 17  1  0  0  0  0
  9 10  2  0  0  0  0
 18 19  1  0  0  0  0
 19 38  1  0  0  0  0
 19 20  2  0  0  0  0
 39 42  1  0  0  0  0
  8 11  1  0  0  0  0
 48 49  1  0  0  0  0
 18 21  1  0  0  0  0
 38 39  1  0  0  0  0
  7  8  1  0  0  0  0
 17 18  1  0  0  0  0
 23 33  1  0  0  0  0
 24 34  1  0  0  0  0
 25 35  1  0  0  0  0
 26 36  1  0  0  0  0
  3  4  1  0  0  0  0
  3  5  1  0  0  0  0
  3  6  1  0  0  0  0
 42 45  1  0  0  0  0
 42 46  1  0  0  0  0
 42 47  1  0  0  0  0
 11 14  1  0  0  0  0
 11 15  1  0  0  0  0
 11 16  1  0  0  0  0
 49 51  1  0  0  0  0
 49 52  1  0  0  0  0
 49 53  1  0  0  0  0
 21 31  1  0  0  0  0
 21 32  1  0  0  0  0
 39 44  1  0  0  0  0
  8 13  1  0  0  0  0
 18 30  1  0  0  0  0
 48 50  1  0  0  0  0
  7 12  1  0  0  0  0
 38 43  1  0  0  0  0
 17 29  1  0  0  0  0
 28 37  1  0  0  0  0
M  END
$$$$

  -OEChem-05262214473D

 53 53  0     1  0  0  0  0  0999 V2000
   -1.9298    0.2574    3.9747 C   0  0  0  0  0  0  0  0  0  0  0  0
   -0.9825   -0.3573    3.4990 O   0  0  0  0  0  0  0  0  0  0  0  0
   -2.3617   -0.0250    5.3754 C   0  0  0  0  0  0  0  0  0  0  0  0
   -3.1214   -0.8213    5.4288 H   0  0  0  0  0  0  0  0  0  0  0  0
   -1.5305   -0.3726    6.0097 H   0  0  0  0  0  0  0  0  0  0  0  0
   -2.7997    0.8299    5.9150 H   0  0  0  0  0  0  0  0  0  0  0  0
   -2.6795    1.2298    3.3336 N   0  0  0  0  0  0  0  0  0  0  0  0
   -2.4327    1.6559    1.9812 C   0  0  2  0  0  0  0  0  0  0  0  0
   -1.0977    1.0705    1.5400 C   0  0  0  0  0  0  0  0  0  0  0  0
   -0.2256    0.7177    2.3313 O   0  0  0  0  0  0  0  0  0  0  0  0
   -2.4239    3.1726    1.8718 C   0  0  0  0  0  0  0  0  0  0  0  0
   -3.4446    1.6657    3.8454 H   0  0  0  0  0  0  0  0  0  0  0  0
   -3.2368    1.2374    1.3661 H   0  0  0  0  0  0  0  0  0  0  0  0
   -1.6248    3.6099    2.4815 H   0  0  0  0  0  0  0  0  0  0  0  0
   -2.2644    3.4949    0.8375 H   0  0  0  0  0  0  0  0  0  0  0  0
   -3.3741    3.5939    2.2175 H   0  0  0  0  0  0  0  0  0  0  0  0
   -0.9750    1.0274    0.1566 N   0  0  0  0  0  0  0  0  0  0  0  0
    0.2023    0.5266   -0.5070 C   0  0  2  0  0  0  0  0  0  0  0  0
   -0.0423    0.6419   -2.0074 C   0  0  0  0  0  0  0  0  0  0  0  0
    0.7666    0.2565   -2.8488 O   0  0  0  0  0  0  0  0  0  0  0  0
    0.5070   -0.9270   -0.1270 C   0  0  0  0  0  0  0  0  0  0  0  0
    0.9107   -1.0797    1.3192 C   0  0  0  0  0  0  0  0  0  0  0  0
    2.2207   -0.8034    1.7108 C   0  0  0  0  0  0  0  0  0  0  0  0
   -0.0262   -1.4979    2.2642 C   0  0  0  0  0  0  0  0  0  0  0  0
    2.5937   -0.9451    3.0473 C   0  0  0  0  0  0  0  0  0  0  0  0
    0.3469   -1.6397    3.6008 C   0  0  0  0  0  0  0  0  0  0  0  0
    1.6569   -1.3633    3.9923 C   0  0  0  0  0  0  0  0  0  0  0  0
    2.0214   -1.5028    5.2962 O   0  0  0  0  0  0  0  0  0  0  0  0
   -1.7582    1.3241   -0.4207 H   0  0  0  0  0  0  0  0  0  0  0  0
    1.0266    1.1924   -0.2256 H   0  0  0  0  0  0  0  0  0  0  0  0
    1.2956   -1.3324   -0.7754 H   0  0  0  0  0  0  0  0  0  0  0  0
   -0.3698   -1.5627   -0.3081 H   0  0  0  0  0  0  0  0  0  0  0  0
    2.9571   -0.4770    0.9813 H   0  0  0  0  0  0  0  0  0  0  0  0
   -1.0492   -1.7153    1.9682 H   0  0  0  0  0  0  0  0  0  0  0  0
    3.6160   -0.7286    3.3461 H   0  0  0  0  0  0  0  0  0  0  0  0
   -0.3874   -1.9661    4.3319 H   0  0  0  0  0  0  0  0  0  0  0  0
    1.2648   -1.7986    5.8272 H   0  0  0  0  0  0  0  0  0  0  0  0
   -1.2902    1.1796   -2.2906 N   0  0  0  0  0  0  0  0  0  0  0  0
   -1.7832    1.3760   -3.6349 C   0  0  2  0  0  0  0  0  0  0  0  0
   -0.7095    2.1104   -4.4269 C   0  0  0  0  0  0  0  0  0  0  0  0
    0.1665    2.7914   -3.8978 O   0  0  0  0  0  0  0  0  0  0  0  0
   -3.0890    2.1555   -3.6370 C   0  0  0  0  0  0  0  0  0  0  0  0
   -1.8871    1.4485   -1.5139 H   0  0  0  0  0  0  0  0  0  0  0  0
   -1.9373    0.3799   -4.0639 H   0  0  0  0  0  0  0  0  0  0  0  0
   -2.9544    3.1563   -3.2107 H   0  0  0  0  0  0  0  0  0  0  0  0
   -3.4758    2.2788   -4.6540 H   0  0  0  0  0  0  0  0  0  0  0  0
   -3.8512    1.6407   -3.0423 H   0  0  0  0  0  0  0  0  0  0  0  0
   -0.8702    1.9509   -5.7962 N   0  0  0  0  0  0  0  0  0  0  0  0
    0.0146    2.5606   -6.7613 C   0  0  0  0  0  0  0  0  0  0  0  0
   -1.6133    1.3531   -6.1458 H   0  0  0  0  0  0  0  0  0  0  0  0
   -0.3919    3.5358   -7.0673 H   0  0  0  0  0  0  0  0  0  0  0  0
    1.0075    2.7027   -6.3097 H   0  0  0  0  0  0  0  0  0  0  0  0
    0.1024    1.9073   -7.6419 H   0  0  0  0  0  0  0  0  0  0  0  0
 23 25  2  0  0  0  0
 22 23  1  0  0  0  0
 24 26  1  0  0  0  0
 22 24  2  0  0  0  0
 25 27  1  0  0  0  0
 26 27  2  0  0  0  0
 21 22  1  0  0  0  0
 27 28  1  0  0  0  0
  1  3  1  0  0  0  0
  1  7  1  0  0  0  0
  1  2  2  0  0  0  0
 39 40  1  0  0  0  0
 40 48  1  0  0  0  0
 40 41  2  0  0  0  0
  8  9  1  0  0  0  0
  9 17  1  0  0  0  0
  9 10  2  0  0  0  0
 18 19  1  0  0  0  0
 19 38  1  0  0  0  0
 19 20  2  0  0  0  0
 39 42  1  0  0  0  0
  8 11  1  0  0  0  0
 48 49  1  0  0  0  0
 18 21  1  0  0  0  0
 38 39  1  0  0  0  0
  7  8  1  0  0  0  0
 17 18  1  0  0  0  0
 23 33  1  0  0  0  0
 24 34  1  0  0  0  0
 25 35  1  0  0  0  0
 26 36  1  0  0  0  0
  3  4  1  0  0  0  0
  3  5  1  0  0  0  0
  3  6  1  0  0  0  0
 42 45  1  0  0  0  0
 42 46  1  0  0  0  0
 42 47  1  0  0  0  0
 11 14  1  0  0  0  0
 11 15  1  0  0  0  0
 11 16  1  0  0  0  0
 49 51  1  0  0  0  0
 49 52  1  0  0  0  0
 49 53  1  0  0  0  0
 21 31  1  0  0  0  0
 21 32  1  0  0  0  0
 39 44  1  0  0  0  0
  8 13  1  0  0  0  0
 18 30  1  0  0  0  0
 48 50  1  0  0  0  0
  7 12  1  0  0  0  0
 38 43  1  0  0  0  0
 17 29  1  0  0  0  0
 28 37  1  0  0  0  0
M  END
$$$$

  -OEChem-05262214473D

 53 53  0     1  0  0  0  0  0999 V2000
   -1.9298    0.2574    3.9747 C   0  0  0  0  0  0  0  0  0  0  0  0
   -0.9825   -0.3573    3.4990 O   0  0  0  0  0  0  0  0  0  0  0  0
   -2.3617   -0.0250    5.3754 C   0  0  0  0  0  0  0  0  0  0  0  0
   -3.1214   -0.8213    5.4288 H   0  0  0  0  0  0  0  0  0  0  0  0
   -1.5305   -0.3726    6.0097 H   0  0  0  0  0  0  0  0  0  0  0  0
   -2.7997    0.8299    5.9150 H   0  0  0  0  0  0  0  0  0  0  0  0
   -2.6795    1.2298    3.3336 N   0  0  0  0  0  0  0  0  0  0  0  0
   -2.4327    1.6559    1.9812 C   0  0  2  0  0  0  0  0  0  0  0  0
   -1.0977    1.0705    1.5400 C   0  0  0  0  0  0  0  0  0  0  0  0
   -0.2256    0.7177    2.3313 O   0  0  0  0  0  0  0  0  0  0  0  0
   -2.4239    3.1726    1.8718 C   0  0  0  0  0  0  0  0  0  0  0  0
   -3.4446    1.6657    3.8454 H   0  0  0  0  0  0  0  0  0  0  0  0
   -3.2368    1.2374    1.3661 H   0  0  0  0  0  0  0  0  0  0  0  0
   -1.6248    3.6099    2.4815 H   0  0  0  0  0  0  0  0  0  0  0  0
   -2.2644    3.4949    0.8375 H   0  0  0  0  0  0  0  0  0  0  0  0
   -3.3741    3.5939    2.2175 H   0  0  0  0  0  0  0  0  0  0  0  0
   -0.9750    1.0274    0.1566 N   0  0  0  0  0  0  0  0  0  0  0  0
    0.2023    0.5266   -0.5070 C   0  0  2  0  0  0  0  0  0  0  0  0
   -0.0423    0.6419   -2.0074 C   0  0  0  0  0  0  0  0  0  0  0  0
    0.6207    0.0304   -2.8424 O   0  0  0  0  0  0  0  0  0  0  0  0
    0.5070   -0.9270   -0.1270 C   0  0  0  0  0  0  0  0  0  0  0  0
    0.9107   -1.0797    1.3192 C   0  0  0  0  0  0  0  0  0  0  0  0
    2.2207   -0.8034    1.7108 C   0  0  0  0  0  0  0  0  0  0  0  0
   -0.0262   -1.4979    2.2642 C   0  0  0  0  0  0  0  0  0  0  0  0
    2.5937   -0.9451    3.0473 C   0  0  0  0  0  0  0  0  0  0  0  0
    0.3469   -1.6397    3.6008 C   0  0  0  0  0  0  0  0  0  0  0  0
    1.6569   -1.3633    3.9923 C   0  0  0  0  0  0  0  0  0  0  0  0
    2.0214   -1.5028    5.2962 O   0  0  0  0  0  0  0  0  0  0  0  0
   -1.7582    1.3241   -0.4207 H   0  0  0  0  0  0  0  0  0  0  0  0
    1.0266    1.1924   -0.2256 H   0  0  0  0  0  0  0  0  0  0  0  0
    1.2956   -1.3324   -0.7754 H   0  0  0  0  0  0  0  0  0  0  0  0
   -0.3698   -1.5627   -0.3081 H   0  0  0  0  0  0  0  0  0  0  0  0
    2.9571   -0.4770    0.9813 H   0  0  0  0  0  0  0  0  0  0  0  0
   -1.0492   -1.7153    1.9682 H   0  0  0  0  0  0  0  0  0  0  0  0
    3.6160   -0.7286    3.3461 H   0  0  0  0  0  0  0  0  0  0  0  0
   -0.3874   -1.9661    4.3319 H   0  0  0  0  0  0  0  0  0  0  0  0
    1.2648   -1.7986    5.8272 H   0  0  0  0  0  0  0  0  0  0  0  0
   -1.1192    1.4687   -2.2962 N   0  0  0  0  0  0  0  0  0  0  0  0
   -1.5794    1.7318   -3.6407 C   0  0  2  0  0  0  0  0  0  0  0  0
   -0.3743    2.1365   -4.4795 C   0  0  0  0  0  0  0  0  0  0  0  0
    0.6590    2.5916   -3.9935 O   0  0  0  0  0  0  0  0  0  0  0  0
   -2.6436    2.8180   -3.6587 C   0  0  0  0  0  0  0  0  0  0  0  0
   -1.6084    1.9111   -1.5237 H   0  0  0  0  0  0  0  0  0  0  0  0
   -1.9923    0.7920   -4.0233 H   0  0  0  0  0  0  0  0  0  0  0  0
   -2.2483    3.7672   -3.2789 H   0  0  0  0  0  0  0  0  0  0  0  0
   -3.0116    2.9961   -4.6745 H   0  0  0  0  0  0  0  0  0  0  0  0
   -3.4966    2.5383   -3.0311 H   0  0  0  0  0  0  0  0  0  0  0  0
   -0.6045    1.9700   -5.8380 N   0  0  0  0  0  0  0  0  0  0  0  0
    0.3819    2.2957   -6.8415 C   0  0  0  0  0  0  0  0  0  0  0  0
   -1.4836    1.5684   -6.1504 H   0  0  0  0  0  0  0  0  0  0  0  0
    0.2293    3.3297   -7.1845 H   0  0  0  0  0  0  0  0  0  0  0  0
    1.3893    2.1973   -6.4108 H   0  0  0  0  0  0  0  0  0  0  0  0
    0.2787    1.6079   -7.6937 H   0  0  0  0  0  0  0  0  0  0  0  0
 23 25  2  0  0  0  0
 22 23  1  0  0  0  0
 24 26  1  0  0  0  0
 22 24  2  0  0  0  0
 25 27  1  0  0  0  0
 26 27  2  0  0  0  0
 21 22  1  0  0  0  0
 27 28  1  0  0  0  0
  1  3  1  0  0  0  0
  1  7  1  0  0  0  0
  1  2  2  0  0  0  0
 39 40  1  0  0  0  0
 40 48  1  0  0  0  0
 40 41  2  0  0  0  0
  8  9  1  0  0  0  0
  9 17  1  0  0  0  0
  9 10  2  0  0  0  0
 18 19  1  0  0  0  0
 19 38  1  0  0  0  0
 19 20  2  0  0  0  0
 39 42  1  0  0  0  0
  8 11  1  0  0  0  0
 48 49  1  0  0  0  0
 18 21  1  0  0  0  0
 38 39  1  0  0  0  0
  7  8  1  0  0  0  0
 17 18  1  0  0  0  0
 23 33  1  0  0  0  0
 24 34  1  0  0  0  0
 25 35  1  0  0  0  0
 26 36  1  0  0  0  0
  3  4  1  0  0  0  0
  3  5  1  0  0  0  0
  3  6  1  0  0  0  0
 42 45  1  0  0  0  0
 42 46  1  0  0  0  0
 42 47  1  0  0  0  0
 11 14  1  0  0  0  0
 11 15  1  0  0  0  0
 11 16  1  0  0  0  0
 49 51  1  0  0  0  0
 49 52  1  0  0  0  0
 49 53  1  0  0  0  0
 21 31  1  0  0  0  0
 21 32  1  0  0  0  0
 39 44  1  0  0  0  0
  8 13  1  0  0  0  0
 18 30  1  0  0  0  0
 48 50  1  0  0  0  0
  7 12  1  0  0  0  0
 38 43  1  0  0  0  0
 17 29  1  0  0  0  0
 28 37  1  0  0  0  0
M  END
$$$$

  -OEChem-05262214473D

 53 53  0     1  0  0  0  0  0999 V2000
   -1.9298    0.2574    3.9747 C   0  0  0  0  0  0  0  0  0  0  0  0
   -0.9825   -0.3573    3.4990 O   0  0  0  0  0  0  0  0  0  0  0  0
   -2.3617   -0.0250    5.3754 C   0  0  0  0  0  0  0  0  0  0  0  0
   -3.1214   -0.8213    5.4288 H   0  0  0  0  0  0  0  0  0  0  0  0
   -1.5305   -0.3726    6.0097 H   0  0  0  0  0  0  0  0  0  0  0  0
   -2.7997    0.8299    5.9150 H   0  0  0  0  0  0  0  0  0  0  0  0
   -2.6795    1.2298    3.3336 N   0  0  0  0  0  0  0  0  0  0  0  0
   -2.4327    1.6559    1.9812 C   0  0  2  0  0  0  0  0  0  0  0  0
   -1.0977    1.0705    1.5400 C   0  0  0  0  0  0  0  0  0  0  0  0
   -0.2256    0.7177    2.3313 O   0  0  0  0  0  0  0  0  0  0  0  0
   -2.4239    3.1726    1.8718 C   0  0  0  0  0  0  0  0  0  0  0  0
   -3.4446    1.6657    3.8454 H   0  0  0  0  0  0  0  0  0  0  0  0
   -3.2368    1.2374    1.3661 H   0  0  0  0  0  0  0  0  0  0  0  0
   -1.6248    3.6099    2.4815 H   0  0  0  0  0  0  0  0  0  0  0  0
   -2.2644    3.4949    0.8375 H   0  0  0  0  0  0  0  0  0  0  0  0
   -3.3741    3.5939    2.2175 H   0  0  0  0  0  0  0  0  0  0  0  0
   -0.9750    1.0274    0.1566 N   0  0  0  0  0  0  0  0  0  0  0  0
    0.2023    0.5266   -0.5070 C   0  0  2  0  0  0  0  0  0  0  0  0
   -0.0423    0.6419   -2.0074 C   0  0  0  0  0  0  0  0  0  0  0  0
    0.4223   -0.1506   -2.8240 O   0  0  0  0  0  0  0  0  0  0  0  0
    0.5070   -0.9270   -0.1270 C   0  0  0  0  0  0  0  0  0  0  0  0
    0.9107   -1.0797    1.3192 C   0  0  0  0  0  0  0  0  0  0  0  0
    2.2207   -0.8034    1.7108 C   0  0  0  0  0  0  0  0  0  0  0  0
   -0.0262   -1.4979    2.2642 C   0  0  0  0  0  0  0  0  0  0  0  0
    2.5937   -0.9451    3.0473 C   0  0  0  0  0  0  0  0  0  0  0  0
    0.3469   -1.6397    3.6008 C   0  0  0  0  0  0  0  0  0  0  0  0
    1.6569   -1.3633    3.9923 C   0  0  0  0  0  0  0  0  0  0  0  0
    2.0214   -1.5028    5.2962 O   0  0  0  0  0  0  0  0  0  0  0  0
   -1.7582    1.3241   -0.4207 H   0  0  0  0  0  0  0  0  0  0  0  0
    1.0266    1.1924   -0.2256 H   0  0  0  0  0  0  0  0  0  0  0  0
    1.2956   -1.3324   -0.7754 H   0  0  0  0  0  0  0  0  0  0  0  0
   -0.3698   -1.5627   -0.3081 H   0  0  0  0  0  0  0  0  0  0  0  0
    2.9571   -0.4770    0.9813 H   0  0  0  0  0  0  0  0  0  0  0  0
   -1.0492   -1.7153    1.9682 H   0  0  0  0  0  0  0  0  0  0  0  0
    3.6160   -0.7286    3.3461 H   0  0  0  0  0  0  0  0  0  0  0  0
   -0.3874   -1.9661    4.3319 H   0  0  0  0  0  0  0  0  0  0  0  0
    1.2648   -1.7986    5.8272 H   0  0  0  0  0  0  0  0  0  0  0  0
   -0.8804    1.7041   -2.3170 N   0  0  0  0  0  0  0  0  0  0  0  0
   -1.2920    2.0233   -3.6652 C   0  0  2  0  0  0  0  0  0  0  0  0
   -0.0449    2.0742   -4.5380 C   0  0  0  0  0  0  0  0  0  0  0  0
    1.0819    2.2692   -4.0872 O   0  0  0  0  0  0  0  0  0  0  0  0
   -2.0451    3.3435   -3.7159 C   0  0  0  0  0  0  0  0  0  0  0  0
   -1.2216    2.2865   -1.5579 H   0  0  0  0  0  0  0  0  0  0  0  0
   -1.9398    1.2058   -4.0000 H   0  0  0  0  0  0  0  0  0  0  0  0
   -1.4121    4.1745   -3.3839 H   0  0  0  0  0  0  0  0  0  0  0  0
   -2.3810    3.5699   -4.7332 H   0  0  0  0  0  0  0  0  0  0  0  0
   -2.9253    3.3154   -3.0645 H   0  0  0  0  0  0  0  0  0  0  0  0
   -0.3437    1.9191   -5.8845 N   0  0  0  0  0  0  0  0  0  0  0  0
    0.6677    1.9429   -6.9152 C   0  0  0  0  0  0  0  0  0  0  0  0
   -1.3036    1.7432   -6.1663 H   0  0  0  0  0  0  0  0  0  0  0  0
    0.7746    2.9674   -7.3012 H   0  0  0  0  0  0  0  0  0  0  0  0
    1.6274    1.6076   -6.4949 H   0  0  0  0  0  0  0  0  0  0  0  0
    0.3718    1.2715   -7.7347 H   0  0  0  0  0  0  0  0  0  0  0  0
 23 25  2  0  0  0  0
 22 23  1  0  0  0  0
 24 26  1  0  0  0  0
 22 24  2  0  0  0  0
 25 27  1  0  0  0  0
 26 27  2  0  0  0  0
 21 22  1  0  0  0  0
 27 28  1  0  0  0  0
  1  3  1  0  0  0  0
  1  7  1  0  0  0  0
  1  2  2  0  0  0  0
 39 40  1  0  0  0  0
 40 48  1  0  0  0  0
 40 41  2  0  0  0  0
  8  9  1  0  0  0  0
  9 17  1  0  0  0  0
  9 10  2  0  0  0  0
 18 19  1  0  0  0  0
 19 38  1  0  0  0  0
 19 20  2  0  0  0  0
 39 42  1  0  0  0  0
  8 11  1  0  0  0  0
 48 49  1  0  0  0  0
 18 21  1  0  0  0  0
 38 39  1  0  0  0  0
  7  8  1  0  0  0  0
 17 18  1  0  0  0  0
 23 33  1  0  0  0  0
 24 34  1  0  0  0  0
 25 35  1  0  0  0  0
 26 36  1  0  0  0  0
  3  4  1  0  0  0  0
  3  5  1  0  0  0  0
  3  6  1  0  0  0  0
 42 45  1  0  0  0  0
 42 46  1  0  0  0  0
 42 47  1  0  0  0  0
 11 14  1  0  0  0  0
 11 15  1  0  0  0  0
 11 16  1  0  0  0  0
 49 51  1  0  0  0  0
 49 52  1  0  0  0  0
 49 53  1  0  0  0  0
 21 31  1  0  0  0  0
 21 32  1  0  0  0  0
 39 44  1  0  0  0  0
  8 13  1  0  0  0  0
 18 30  1  0  0  0  0
 48 50  1  0  0  0  0
  7 12  1  0  0  0  0
 38 43  1  0  0  0  0
 17 29  1  0  0  0  0
 28 37  1  0  0  0  0
M  END
$$$$

  -OEChem-05262214473D

 53 53  0     1  0  0  0  0  0999 V2000
   -1.9298    0.2574    3.9747 C   0  0  0  0  0  0  0  0  0  0  0  0
   -0.9825   -0.3573    3.4990 O   0  0  0  0  0  0  0  0  0  0  0  0
   -2.3617   -0.0250    5.3754 C   0  0  0  0  0  0  0  0  0  0  0  0
   -3.1214   -0.8213    5.4288 H   0  0  0  0  0  0  0  0  0  0  0  0
   -1.5305   -0.3726    6.0097 H   0  0  0  0  0  0  0  0  0  0  0  0
   -2.7997    0.8299    5.9150 H   0  0  0  0  0  0  0  0  0  0  0  0
   -2.6795    1.2298    3.3336 N   0  0  0  0  0  0  0  0  0  0  0  0
   -2.4327    1.6559    1.9812 C   0  0  2  0  0  0  0  0  0  0  0  0
   -1.0977    1.0705    1.5400 C   0  0  0  0  0  0  0  0  0  0  0  0
   -0.2256    0.7177    2.3313 O   0  0  0  0  0  0  0  0  0  0  0  0
   -2.4239    3.1726    1.8718 C   0  0  0  0  0  0  0  0  0  0  0  0
   -3.4446    1.6657    3.8454 H   0  0  0  0  0  0  0  0  0  0  0  0
   -3.2368    1.2374    1.3661 H   0  0  0  0  0  0  0  0  0  0  0  0
   -1.6248    3.6099    2.4815 H   0  0  0  0  0  0  0  0  0  0  0  0
   -2.2644    3.4949    0.8375 H   0  0  0  0  0  0  0  0  0  0  0  0
   -3.3741    3.5939    2.2175 H   0  0  0  0  0  0  0  0  0  0  0  0
   -0.9750    1.0274    0.1566 N   0  0  0  0  0  0  0  0  0  0  0  0
    0.2023    0.5266   -0.5070 C   0  0  2  0  0  0  0  0  0  0  0  0
   -0.0423    0.6419   -2.0074 C   0  0  0  0  0  0  0  0  0  0  0  0
    0.1850   -0.2742   -2.7948 O   0  0  0  0  0  0  0  0  0  0  0  0
    0.5070   -0.9270   -0.1270 C   0  0  0  0  0  0  0  0  0  0  0  0
    0.9107   -1.0797    1.3192 C   0  0  0  0  0  0  0  0  0  0  0  0
    2.2207   -0.8034    1.7108 C   0  0  0  0  0  0  0  0  0  0  0  0
   -0.0262   -1.4979    2.2642 C   0  0  0  0  0  0  0  0  0  0  0  0
    2.5937   -0.9451    3.0473 C   0  0  0  0  0  0  0  0  0  0  0  0
    0.3469   -1.6397    3.6008 C   0  0  0  0  0  0  0  0  0  0  0  0
    1.6569   -1.3633    3.9923 C   0  0  0  0  0  0  0  0  0  0  0  0
    2.0214   -1.5028    5.2962 O   0  0  0  0  0  0  0  0  0  0  0  0
   -1.7582    1.3241   -0.4207 H   0  0  0  0  0  0  0  0  0  0  0  0
    1.0266    1.1924   -0.2256 H   0  0  0  0  0  0  0  0  0  0  0  0
    1.2956   -1.3324   -0.7754 H   0  0  0  0  0  0  0  0  0  0  0  0
   -0.3698   -1.5627   -0.3081 H   0  0  0  0  0  0  0  0  0  0  0  0
    2.9571   -0.4770    0.9813 H   0  0  0  0  0  0  0  0  0  0  0  0
   -1.0492   -1.7153    1.9682 H   0  0  0  0  0  0  0  0  0  0  0  0
    3.6160   -0.7286    3.3461 H   0  0  0  0  0  0  0  0  0  0  0  0
   -0.3874   -1.9661    4.3319 H   0  0  0  0  0  0  0  0  0  0  0  0
    1.2648   -1.7986    5.8272 H   0  0  0  0  0  0  0  0  0  0  0  0
   -0.5902    1.8699   -2.3516 N   0  0  0  0  0  0  0  0  0  0  0  0
   -0.9406    2.2307   -3.7065 C   0  0  2  0  0  0  0  0  0  0  0  0
    0.2562    1.9276   -4.5984 C   0  0  0  0  0  0  0  0  0  0  0  0
    1.4065    1.8461   -4.1726 O   0  0  0  0  0  0  0  0  0  0  0  0
   -1.3342    3.6964   -3.8046 C   0  0  0  0  0  0  0  0  0  0  0  0
   -0.7530    2.5491   -1.6141 H   0  0  0  0  0  0  0  0  0  0  0  0
   -1.7831    1.5931   -3.9958 H   0  0  0  0  0  0  0  0  0  0  0  0
   -0.5026    4.3506   -3.5186 H   0  0  0  0  0  0  0  0  0  0  0  0
   -1.6268    3.9611   -4.8261 H   0  0  0  0  0  0  0  0  0  0  0  0
   -2.1761    3.9191   -3.1402 H   0  0  0  0  0  0  0  0  0  0  0  0
   -0.1057    1.8015   -5.9323 N   0  0  0  0  0  0  0  0  0  0  0  0
    0.8525    1.5263   -6.9774 C   0  0  0  0  0  0  0  0  0  0  0  0
   -1.0855    1.8655   -6.1925 H   0  0  0  0  0  0  0  0  0  0  0  0
    1.2067    2.4738   -7.4096 H   0  0  0  0  0  0  0  0  0  0  0  0
    1.7055    0.9740   -6.5564 H   0  0  0  0  0  0  0  0  0  0  0  0
    0.3752    0.9212   -7.7622 H   0  0  0  0  0  0  0  0  0  0  0  0
 23 25  2  0  0  0  0
 22 23  1  0  0  0  0
 24 26  1  0  0  0  0
 22 24  2  0  0  0  0
 25 27  1  0  0  0  0
 26 27  2  0  0  0  0
 21 22  1  0  0  0  0
 27 28  1  0  0  0  0
  1  3  1  0  0  0  0
  1  7  1  0  0  0  0
  1  2  2  0  0  0  0
 39 40  1  0  0  0  0
 40 48  1  0  0  0  0
 40 41  2  0  0  0  0
  8  9  1  0  0  0  0
  9 17  1  0  0  0  0
  9 10  2  0  0  0  0
 18 19  1  0  0  0  0
 19 38  1  0  0  0  0
 19 20  2  0  0  0  0
 39 42  1  0  0  0  0
  8 11  1  0  0  0  0
 48 49  1  0  0  0  0
 18 21  1  0  0  0  0
 38 39  1  0  0  0  0
  7  8  1  0  0  0  0
 17 18  1  0  0  0  0
 23 33  1  0  0  0  0
 24 34  1  0  0  0  0
 25 35  1  0  0  0  0
 26 36  1  0  0  0  0
  3  4  1  0  0  0  0
  3  5  1  0  0  0  0
  3  6  1  0  0  0  0
 42 45  1  0  0  0  0
 42 46  1  0  0  0  0
 42 47  1  0  0  0  0
 11 14  1  0  0  0  0
 11 15  1  0  0  0  0
 11 16  1  0  0  0  0
 49 51  1  0  0  0  0
 49 52  1  0  0  0  0
 49 53  1  0  0  0  0
 21 31  1  0  0  0  0
 21 32  1  0  0  0  0
 39 44  1  0  0  0  0
  8 13  1  0  0  0  0
 18 30  1  0  0  0  0
 48 50  1  0  0  0  0
  7 12  1  0  0  0  0
 38 43  1  0  0  0  0
 17 29  1  0  0  0  0
 28 37  1  0  0  0  0
M  END
$$$$

  -OEChem-05262214473D

 53 53  0     1  0  0  0  0  0999 V2000
   -1.9298    0.2574    3.9747 C   0  0  0  0  0  0  0  0  0  0  0  0
   -0.9825   -0.3573    3.4990 O   0  0  0  0  0  0  0  0  0  0  0  0
   -2.3617   -0.0250    5.3754 C   0  0  0  0  0  0  0  0  0  0  0  0
   -3.1214   -0.8213    5.4288 H   0  0  0  0  0  0  0  0  0  0  0  0
   -1.5305   -0.3726    6.0097 H   0  0  0  0  0  0  0  0  0  0  0  0
   -2.7997    0.8299    5.9150 H   0  0  0  0  0  0  0  0  0  0  0  0
   -2.6795    1.2298    3.3336 N   0  0  0  0  0  0  0  0  0  0  0  0
   -2.4327    1.6559    1.9812 C   0  0  2  0  0  0  0  0  0  0  0  0
   -1.0977    1.0705    1.5400 C   0  0  0  0  0  0  0  0  0  0  0  0
   -0.2256    0.7177    2.3313 O   0  0  0  0  0  0  0  0  0  0  0  0
   -2.4239    3.1726    1.8718 C   0  0  0  0  0  0  0  0  0  0  0  0
   -3.4446    1.6657    3.8454 H   0  0  0  0  0  0  0  0  0  0  0  0
   -3.2368    1.2374    1.3661 H   0  0  0  0  0  0  0  0  0  0  0  0
   -1.6248    3.6099    2.4815 H   0  0  0  0  0  0  0  0  0  0  0  0
   -2.2644    3.4949    0.8375 H   0  0  0  0  0  0  0  0  0  0  0  0
   -3.3741    3.5939    2.2175 H   0  0  0  0  0  0  0  0  0  0  0  0
   -0.9750    1.0274    0.1566 N   0  0  0  0  0  0  0  0  0  0  0  0
    0.2023    0.5266   -0.5070 C   0  0  2  0  0  0  0  0  0  0  0  0
   -0.0423    0.6419   -2.0074 C   0  0  0  0  0  0  0  0  0  0  0  0
   -0.0752   -0.3318   -2.7568 O   0  0  0  0  0  0  0  0  0  0  0  0
    0.5070   -0.9270   -0.1270 C   0  0  0  0  0  0  0  0  0  0  0  0
    0.9107   -1.0797    1.3192 C   0  0  0  0  0  0  0  0  0  0  0  0
    2.2207   -0.8034    1.7108 C   0  0  0  0  0  0  0  0  0  0  0  0
   -0.0262   -1.4979    2.2642 C   0  0  0  0  0  0  0  0  0  0  0  0
    2.5937   -0.9451    3.0473 C   0  0  0  0  0  0  0  0  0  0  0  0
    0.3469   -1.6397    3.6008 C   0  0  0  0  0  0  0  0  0  0  0  0
    1.6569   -1.3633    3.9923 C   0  0  0  0  0  0  0  0  0  0  0  0
    2.0214   -1.5028    5.2962 O   0  0  0  0  0  0  0  0  0  0  0  0
   -1.7582    1.3241   -0.4207 H   0  0  0  0  0  0  0  0  0  0  0  0
    1.0266    1.1924   -0.2256 H   0  0  0  0  0  0  0  0  0  0  0  0
    1.2956   -1.3324   -0.7754 H   0  0  0  0  0  0  0  0  0  0  0  0
   -0.3698   -1.5627   -0.3081 H   0  0  0  0  0  0  0  0  0  0  0  0
    2.9571   -0.4770    0.9813 H   0  0  0  0  0  0  0  0  0  0  0  0
   -1.0492   -1.7153    1.9682 H   0  0  0  0  0  0  0  0  0  0  0  0
    3.6160   -0.7286    3.3461 H   0  0  0  0  0  0  0  0  0  0  0  0
   -0.3874   -1.9661    4.3319 H   0  0  0  0  0  0  0  0  0  0  0  0
    1.2648   -1.7986    5.8272 H   0  0  0  0  0  0  0  0  0  0  0  0
   -0.2683    1.9546   -2.3976 N   0  0  0  0  0  0  0  0  0  0  0  0
   -0.5491    2.3398   -3.7620 C   0  0  2  0  0  0  0  0  0  0  0  0
    0.5085    1.7069   -4.6565 C   0  0  0  0  0  0  0  0  0  0  0  0
    1.6106    1.3513   -4.2439 O   0  0  0  0  0  0  0  0  0  0  0  0
   -0.5595    3.8524   -3.9190 C   0  0  0  0  0  0  0  0  0  0  0  0
   -0.2346    2.6812   -1.6885 H   0  0  0  0  0  0  0  0  0  0  0  0
   -1.5331    1.9275   -4.0109 H   0  0  0  0  0  0  0  0  0  0  0  0
    0.4181    4.2835   -3.6739 H   0  0  0  0  0  0  0  0  0  0  0  0
   -0.8005    4.1430   -4.9468 H   0  0  0  0  0  0  0  0  0  0  0  0
   -1.3001    4.3083   -3.2531 H   0  0  0  0  0  0  0  0  0  0  0  0
    0.0933    1.6254   -5.9783 N   0  0  0  0  0  0  0  0  0  0  0  0
    0.9236    1.0743   -7.0237 C   0  0  0  0  0  0  0  0  0  0  0  0
   -0.8442    1.9270   -6.2271 H   0  0  0  0  0  0  0  0  0  0  0  0
    1.4962    1.8825   -7.5023 H   0  0  0  0  0  0  0  0  0  0  0  0
    1.6184    0.3394   -6.5910 H   0  0  0  0  0  0  0  0  0  0  0  0
    0.2887    0.5809   -7.7743 H   0  0  0  0  0  0  0  0  0  0  0  0
 23 25  2  0  0  0  0
 22 23  1  0  0  0  0
 24 26  1  0  0  0  0
 22 24  2  0  0  0  0
 25 27  1  0  0  0  0
 26 27  2  0  0  0  0
 21 22  1  0  0  0  0
 27 28  1  0  0  0  0
  1  3  1  0  0  0  0
  1  7  1  0  0  0  0
  1  2  2  0  0  0  0
 39 40  1  0  0  0  0
 40 48  1  0  0  0  0
 40 41  2  0  0  0  0
  8  9  1  0  0  0  0
  9 17  1  0  0  0  0
  9 10  2  0  0  0  0
 18 19  1  0  0  0  0
 19 38  1  0  0  0  0
 19 20  2  0  0  0  0
 39 42  1  0  0  0  0
  8 11  1  0  0  0  0
 48 49  1  0  0  0  0
 18 21  1  0  0  0  0
 38 39  1  0  0  0  0
  7  8  1  0  0  0  0
 17 18  1  0  0  0  0
 23 33  1  0  0  0  0
 24 34  1  0  0  0  0
 25 35  1  0  0  0  0
 26 36  1  0  0  0  0
  3  4  1  0  0  0  0
  3  5  1  0  0  0  0
  3  6  1  0  0  0  0
 42 45  1  0  0  0  0
 42 46  1  0  0  0  0
 42 47  1  0  0  0  0
 11 14  1  0  0  0  0
 11 15  1  0  0  0  0
 11 16  1  0  0  0  0
 49 51  1  0  0  0  0
 49 52  1  0  0  0  0
 49 53  1  0  0  0  0
 21 31  1  0  0  0  0
 21 32  1  0  0  0  0
 39 44  1  0  0  0  0
  8 13  1  0  0  0  0
 18 30  1  0  0  0  0
 48 50  1  0  0  0  0
  7 12  1  0  0  0  0
 38 43  1  0  0  0  0
 17 29  1  0  0  0  0
 28 37  1  0  0  0  0
M  END
$$$$

  -OEChem-05262214473D

 53 53  0     1  0  0  0  0  0999 V2000
   -1.9298    0.2574    3.9747 C   0  0  0  0  0  0  0  0  0  0  0  0
   -0.9825   -0.3573    3.4990 O   0  0  0  0  0  0  0  0  0  0  0  0
   -2.3617   -0.0250    5.3754 C   0  0  0  0  0  0  0  0  0  0  0  0
   -3.1214   -0.8213    5.4288 H   0  0  0  0  0  0  0  0  0  0  0  0
   -1.5305   -0.3726    6.0097 H   0  0  0  0  0  0  0  0  0  0  0  0
   -2.7997    0.8299    5.9150 H   0  0  0  0  0  0  0  0  0  0  0  0
   -2.6795    1.2298    3.3336 N   0  0  0  0  0  0  0  0  0  0  0  0
   -2.4327    1.6559    1.9812 C   0  0  2  0  0  0  0  0  0  0  0  0
   -1.0977    1.0705    1.5400 C   0  0  0  0  0  0  0  0  0  0  0  0
   -0.2256    0.7177    2.3313 O   0  0  0  0  0  0  0  0  0  0  0  0
   -2.4239    3.1726    1.8718 C   0  0  0  0  0  0  0  0  0  0  0  0
   -3.4446    1.6657    3.8454 H   0  0  0  0  0  0  0  0  0  0  0  0
   -3.2368    1.2374    1.3661 H   0  0  0  0  0  0  0  0  0  0  0  0
   -1.6248    3.6099    2.4815 H   0  0  0  0  0  0  0  0  0  0  0  0
   -2.2644    3.4949    0.8375 H   0  0  0  0  0  0  0  0  0  0  0  0
   -3.3741    3.5939    2.2175 H   0  0  0  0  0  0  0  0  0  0  0  0
   -0.9750    1.0274    0.1566 N   0  0  0  0  0  0  0  0  0  0  0  0
    0.2023    0.5266   -0.5070 C   0  0  2  0  0  0  0  0  0  0  0  0
   -0.0423    0.6419   -2.0074 C   0  0  0  0  0  0  0  0  0  0  0  0
   -0.3404   -0.3197   -2.7126 O   0  0  0  0  0  0  0  0  0  0  0  0
    0.5070   -0.9270   -0.1270 C   0  0  0  0  0  0  0  0  0  0  0  0
    0.9107   -1.0797    1.3192 C   0  0  0  0  0  0  0  0  0  0  0  0
    2.2207   -0.8034    1.7108 C   0  0  0  0  0  0  0  0  0  0  0  0
   -0.0262   -1.4979    2.2642 C   0  0  0  0  0  0  0  0  0  0  0  0
    2.5937   -0.9451    3.0473 C   0  0  0  0  0  0  0  0  0  0  0  0
    0.3469   -1.6397    3.6008 C   0  0  0  0  0  0  0  0  0  0  0  0
    1.6569   -1.3633    3.9923 C   0  0  0  0  0  0  0  0  0  0  0  0
    2.0214   -1.5028    5.2962 O   0  0  0  0  0  0  0  0  0  0  0  0
   -1.7582    1.3241   -0.4207 H   0  0  0  0  0  0  0  0  0  0  0  0
    1.0266    1.1924   -0.2256 H   0  0  0  0  0  0  0  0  0  0  0  0
    1.2956   -1.3324   -0.7754 H   0  0  0  0  0  0  0  0  0  0  0  0
   -0.3698   -1.5627   -0.3081 H   0  0  0  0  0  0  0  0  0  0  0  0
    2.9571   -0.4770    0.9813 H   0  0  0  0  0  0  0  0  0  0  0  0
   -1.0492   -1.7153    1.9682 H   0  0  0  0  0  0  0  0  0  0  0  0
    3.6160   -0.7286    3.3461 H   0  0  0  0  0  0  0  0  0  0  0  0
   -0.3874   -1.9661    4.3319 H   0  0  0  0  0  0  0  0  0  0  0  0
    1.2648   -1.7986    5.8272 H   0  0  0  0  0  0  0  0  0  0  0  0
    0.0633    1.9526   -2.4518 N   0  0  0  0  0  0  0  0  0  0  0  0
   -0.1444    2.3432   -3.8277 C   0  0  2  0  0  0  0  0  0  0  0  0
    0.6949    1.4270   -4.7084 C   0  0  0  0  0  0  0  0  0  0  0  0
    1.6802    0.8184   -4.2963 O   0  0  0  0  0  0  0  0  0  0  0  0
    0.2264    3.8010   -4.0510 C   0  0  0  0  0  0  0  0  0  0  0  0
    0.2983    2.6736   -1.7760 H   0  0  0  0  0  0  0  0  0  0  0  0
   -1.2067    2.1861   -4.0442 H   0  0  0  0  0  0  0  0  0  0  0  0
    1.2872    3.9777   -3.8391 H   0  0  0  0  0  0  0  0  0  0  0  0
    0.0416    4.1032   -5.0872 H   0  0  0  0  0  0  0  0  0  0  0  0
   -0.3571    4.4564   -3.3954 H   0  0  0  0  0  0  0  0  0  0  0  0
    0.2398    1.4026   -6.0193 N   0  0  0  0  0  0  0  0  0  0  0  0
    0.8763    0.6176   -7.0511 C   0  0  0  0  0  0  0  0  0  0  0  0
   -0.5961    1.9235   -6.2678 H   0  0  0  0  0  0  0  0  0  0  0  0
    1.6235    1.2337   -7.5729 H   0  0  0  0  0  0  0  0  0  0  0  0
    1.3719   -0.2527   -6.5963 H   0  0  0  0  0  0  0  0  0  0  0  0
    0.1182    0.2736   -7.7701 H   0  0  0  0  0  0  0  0  0  0  0  0
 23 25  2  0  0  0  0
 22 23  1  0  0  0  0
 24 26  1  0  0  0  0
 22 24  2  0  0  0  0
 25 27  1  0  0  0  0
 26 27  2  0  0  0  0
 21 22  1  0  0  0  0
 27 28  1  0  0  0  0
  1  3  1  0  0  0  0
  1  7  1  0  0  0  0
  1  2  2  0  0  0  0
 39 40  1  0  0  0  0
 40 48  1  0  0  0  0
 40 41  2  0  0  0  0
  8  9  1  0  0  0  0
  9 17  1  0  0  0  0
  9 10  2  0  0  0  0
 18 19  1  0  0  0  0
 19 38  1  0  0  0  0
 19 20  2  0  0  0  0
 39 42  1  0  0  0  0
  8 11  1  0  0  0  0
 48 49  1  0  0  0  0
 18 21  1  0  0  0  0
 38 39  1  0  0  0  0
  7  8  1  0  0  0  0
 17 18  1  0  0  0  0
 23 33  1  0  0  0  0
 24 34  1  0  0  0  0
 25 35  1  0  0  0  0
 26 36  1  0  0  0  0
  3  4  1  0  0  0  0
  3  5  1  0  0  0  0
  3  6  1  0  0  0  0
 42 45  1  0  0  0  0
 42 46  1  0  0  0  0
 42 47  1  0  0  0  0
 11 14  1  0  0  0  0
 11 15  1  0  0  0  0
 11 16  1  0  0  0  0
 49 51  1  0  0  0  0
 49 52  1  0  0  0  0
 49 53  1  0  0  0  0
 21 31  1  0  0  0  0
 21 32  1  0  0  0  0
 39 44  1  0  0  0  0
  8 13  1  0  0  0  0
 18 30  1  0  0  0  0
 48 50  1  0  0  0  0
  7 12  1  0  0  0  0
 38 43  1  0  0  0  0
 17 29  1  0  0  0  0
 28 37  1  0  0  0  0
M  END
$$$$

  -OEChem-05262214473D

 53 53  0     1  0  0  0  0  0999 V2000
   -1.9298    0.2574    3.9747 C   0  0  0  0  0  0  0  0  0  0  0  0
   -0.9825   -0.3573    3.4990 O   0  0  0  0  0  0  0  0  0  0  0  0
   -2.3617   -0.0250    5.3754 C   0  0  0  0  0  0  0  0  0  0  0  0
   -3.1214   -0.8213    5.4288 H   0  0  0  0  0  0  0  0  0  0  0  0
   -1.5305   -0.3726    6.0097 H   0  0  0  0  0  0  0  0  0  0  0  0
   -2.7997    0.8299    5.9150 H   0  0  0  0  0  0  0  0  0  0  0  0
   -2.6795    1.2298    3.3336 N   0  0  0  0  0  0  0  0  0  0  0  0
   -2.4327    1.6559    1.9812 C   0  0  2  0  0  0  0  0  0  0  0  0
   -1.0977    1.0705    1.5400 C   0  0  0  0  0  0  0  0  0  0  0  0
   -0.2256    0.7177    2.3313 O   0  0  0  0  0  0  0  0  0  0  0  0
   -2.4239    3.1726    1.8718 C   0  0  0  0  0  0  0  0  0  0  0  0
   -3.4446    1.6657    3.8454 H   0  0  0  0  0  0  0  0  0  0  0  0
   -3.2368    1.2374    1.3661 H   0  0  0  0  0  0  0  0  0  0  0  0
   -1.6248    3.6099    2.4815 H   0  0  0  0  0  0  0  0  0  0  0  0
   -2.2644    3.4949    0.8375 H   0  0  0  0  0  0  0  0  0  0  0  0
   -3.3741    3.5939    2.2175 H   0  0  0  0  0  0  0  0  0  0  0  0
   -0.9750    1.0274    0.1566 N   0  0  0  0  0  0  0  0  0  0  0  0
    0.2023    0.5266   -0.5070 C   0  0  2  0  0  0  0  0  0  0  0  0
   -0.0423    0.6419   -2.0074 C   0  0  0  0  0  0  0  0  0  0  0  0
   -0.5927   -0.2385   -2.6652 O   0  0  0  0  0  0  0  0  0  0  0  0
    0.5070   -0.9270   -0.1270 C   0  0  0  0  0  0  0  0  0  0  0  0
    0.9107   -1.0797    1.3192 C   0  0  0  0  0  0  0  0  0  0  0  0
    2.2207   -0.8034    1.7108 C   0  0  0  0  0  0  0  0  0  0  0  0
   -0.0262   -1.4979    2.2642 C   0  0  0  0  0  0  0  0  0  0  0  0
    2.5937   -0.9451    3.0473 C   0  0  0  0  0  0  0  0  0  0  0  0
    0.3469   -1.6397    3.6008 C   0  0  0  0  0  0  0  0  0  0  0  0
    1.6569   -1.3633    3.9923 C   0  0  0  0  0  0  0  0  0  0  0  0
    2.0214   -1.5028    5.2962 O   0  0  0  0  0  0  0  0  0  0  0  0
   -1.7582    1.3241   -0.4207 H   0  0  0  0  0  0  0  0  0  0  0  0
    1.0266    1.1924   -0.2256 H   0  0  0  0  0  0  0  0  0  0  0  0
    1.2956   -1.3324   -0.7754 H   0  0  0  0  0  0  0  0  0  0  0  0
   -0.3698   -1.5627   -0.3081 H   0  0  0  0  0  0  0  0  0  0  0  0
    2.9571   -0.4770    0.9813 H   0  0  0  0  0  0  0  0  0  0  0  0
   -1.0492   -1.7153    1.9682 H   0  0  0  0  0  0  0  0  0  0  0  0
    3.6160   -0.7286    3.3461 H   0  0  0  0  0  0  0  0  0  0  0  0
   -0.3874   -1.9661    4.3319 H   0  0  0  0  0  0  0  0  0  0  0  0
    1.2648   -1.7986    5.8272 H   0  0  0  0  0  0  0  0  0  0  0  0
    0.3820    1.8639   -2.5106 N   0  0  0  0  0  0  0  0  0  0  0  0
    0.2462    2.2406   -3.8993 C   0  0  2  0  0  0  0  0  0  0  0  0
    0.8027    1.1070   -4.7506 C   0  0  0  0  0  0  0  0  0  0  0  0
    1.6108    0.2837   -4.3261 O   0  0  0  0  0  0  0  0  0  0  0  0
    0.9698    3.5458   -4.1919 C   0  0  0  0  0  0  0  0  0  0  0  0
    0.8094    2.5269   -1.8706 H   0  0  0  0  0  0  0  0  0  0  0  0
   -0.8262    2.3515   -4.0935 H   0  0  0  0  0  0  0  0  0  0  0  0
    2.0456    3.4540   -4.0030 H   0  0  0  0  0  0  0  0  0  0  0  0
    0.8421    3.8444   -5.2376 H   0  0  0  0  0  0  0  0  0  0  0  0
    0.5887    4.3534   -3.5576 H   0  0  0  0  0  0  0  0  0  0  0  0
    0.3237    1.1484   -6.0525 N   0  0  0  0  0  0  0  0  0  0  0  0
    0.7137    0.1874   -7.0577 C   0  0  0  0  0  0  0  0  0  0  0  0
   -0.3581    1.8552   -6.3118 H   0  0  0  0  0  0  0  0  0  0  0  0
    1.5797    0.5716   -7.6166 H   0  0  0  0  0  0  0  0  0  0  0  0
    0.9829   -0.7622   -6.5720 H   0  0  0  0  0  0  0  0  0  0  0  0
   -0.1247    0.0205   -7.7500 H   0  0  0  0  0  0  0  0  0  0  0  0
 23 25  2  0  0  0  0
 22 23  1  0  0  0  0
 24 26  1  0  0  0  0
 22 24  2  0  0  0  0
 25 27  1  0  0  0  0
 26 27  2  0  0  0  0
 21 22  1  0  0  0  0
 27 28  1  0  0  0  0
  1  3  1  0  0  0  0
  1  7  1  0  0  0  0
  1  2  2  0  0  0  0
 39 40  1  0  0  0  0
 40 48  1  0  0  0  0
 40 41  2  0  0  0  0
  8  9  1  0  0  0  0
  9 17  1  0  0  0  0
  9 10  2  0  0  0  0
 18 19  1  0  0  0  0
 19 38  1  0  0  0  0
 19 20  2  0  0  0  0
 39 42  1  0  0  0  0
  8 11  1  0  0  0  0
 48 49  1  0  0  0  0
 18 21  1  0  0  0  0
 38 39  1  0  0  0  0
  7  8  1  0  0  0  0
 17 18  1  0  0  0  0
 23 33  1  0  0  0  0
 24 34  1  0  0  0  0
 25 35  1  0  0  0  0
 26 36  1  0  0  0  0
  3  4  1  0  0  0  0
  3  5  1  0  0  0  0
  3  6  1  0  0  0  0
 42 45  1  0  0  0  0
 42 46  1  0  0  0  0
 42 47  1  0  0  0  0
 11 14  1  0  0  0  0
 11 15  1  0  0  0  0
 11 16  1  0  0  0  0
 49 51  1  0  0  0  0
 49 52  1  0  0  0  0
 49 53  1  0  0  0  0
 21 31  1  0  0  0  0
 21 32  1  0  0  0  0
 39 44  1  0  0  0  0
  8 13  1  0  0  0  0
 18 30  1  0  0  0  0
 48 50  1  0  0  0  0
  7 12  1  0  0  0  0
 38 43  1  0  0  0  0
 17 29  1  0  0  0  0
 28 37  1  0  0  0  0
M  END
$$$$

  -OEChem-05262214473D

 53 53  0     1  0  0  0  0  0999 V2000
   -1.9298    0.2574    3.9747 C   0  0  0  0  0  0  0  0  0  0  0  0
   -0.9825   -0.3573    3.4990 O   0  0  0  0  0  0  0  0  0  0  0  0
   -2.3617   -0.0250    5.3754 C   0  0  0  0  0  0  0  0  0  0  0  0
   -3.1214   -0.8213    5.4288 H   0  0  0  0  0  0  0  0  0  0  0  0
   -1.5305   -0.3726    6.0097 H   0  0  0  0  0  0  0  0  0  0  0  0
   -2.7997    0.8299    5.9150 H   0  0  0  0  0  0  0  0  0  0  0  0
   -2.6795    1.2298    3.3336 N   0  0  0  0  0  0  0  0  0  0  0  0
   -2.4327    1.6559    1.9812 C   0  0  2  0  0  0  0  0  0  0  0  0
   -1.0977    1.0705    1.5400 C   0  0  0  0  0  0  0  0  0  0  0  0
   -0.2256    0.7177    2.3313 O   0  0  0  0  0  0  0  0  0  0  0  0
   -2.4239    3.1726    1.8718 C   0  0  0  0  0  0  0  0  0  0  0  0
   -3.4446    1.6657    3.8454 H   0  0  0  0  0  0  0  0  0  0  0  0
   -3.2368    1.2374    1.3661 H   0  0  0  0  0  0  0  0  0  0  0  0
   -1.6248    3.6099    2.4815 H   0  0  0  0  0  0  0  0  0  0  0  0
   -2.2644    3.4949    0.8375 H   0  0  0  0  0  0  0  0  0  0  0  0
   -3.3741    3.5939    2.2175 H   0  0  0  0  0  0  0  0  0  0  0  0
   -0.9750    1.0274    0.1566 N   0  0  0  0  0  0  0  0  0  0  0  0
    0.2023    0.5266   -0.5070 C   0  0  2  0  0  0  0  0  0  0  0  0
   -0.0423    0.6419   -2.0074 C   0  0  0  0  0  0  0  0  0  0  0  0
   -0.8147   -0.0940   -2.6179 O   0  0  0  0  0  0  0  0  0  0  0  0
    0.5070   -0.9270   -0.1270 C   0  0  0  0  0  0  0  0  0  0  0  0
    0.9107   -1.0797    1.3192 C   0  0  0  0  0  0  0  0  0  0  0  0
    2.2207   -0.8034    1.7108 C   0  0  0  0  0  0  0  0  0  0  0  0
   -0.0262   -1.4979    2.2642 C   0  0  0  0  0  0  0  0  0  0  0  0
    2.5937   -0.9451    3.0473 C   0  0  0  0  0  0  0  0  0  0  0  0
    0.3469   -1.6397    3.6008 C   0  0  0  0  0  0  0  0  0  0  0  0
    1.6569   -1.3633    3.9923 C   0  0  0  0  0  0  0  0  0  0  0  0
    2.0214   -1.5028    5.2962 O   0  0  0  0  0  0  0  0  0  0  0  0
   -1.7582    1.3241   -0.4207 H   0  0  0  0  0  0  0  0  0  0  0  0
    1.0266    1.1924   -0.2256 H   0  0  0  0  0  0  0  0  0  0  0  0
    1.2956   -1.3324   -0.7754 H   0  0  0  0  0  0  0  0  0  0  0  0
   -0.3698   -1.5627   -0.3081 H   0  0  0  0  0  0  0  0  0  0  0  0
    2.9571   -0.4770    0.9813 H   0  0  0  0  0  0  0  0  0  0  0  0
   -1.0492   -1.7153    1.9682 H   0  0  0  0  0  0  0  0  0  0  0  0
    3.6160   -0.7286    3.3461 H   0  0  0  0  0  0  0  0  0  0  0  0
   -0.3874   -1.9661    4.3319 H   0  0  0  0  0  0  0  0  0  0  0  0
    1.2648   -1.7986    5.8272 H   0  0  0  0  0  0  0  0  0  0  0  0
    0.6661    1.6946   -2.5699 N   0  0  0  0  0  0  0  0  0  0  0  0
    0.5959    2.0390   -3.9718 C   0  0  2  0  0  0  0  0  0  0  0  0
    0.8244    0.7687   -4.7801 C   0  0  0  0  0  0  0  0  0  0  0  0
    1.4069   -0.2164   -4.3313 O   0  0  0  0  0  0  0  0  0  0  0  0
    1.6201    3.1040   -4.3318 C   0  0  0  0  0  0  0  0  0  0  0  0
    1.2639    2.2510   -1.9659 H   0  0  0  0  0  0  0  0  0  0  0  0
   -0.4175    2.4122   -4.1555 H   0  0  0  0  0  0  0  0  0  0  0  0
    2.6416    2.7483   -4.1544 H   0  0  0  0  0  0  0  0  0  0  0  0
    1.5465    3.3843   -5.3878 H   0  0  0  0  0  0  0  0  0  0  0  0
    1.4729    4.0062   -3.7284 H   0  0  0  0  0  0  0  0  0  0  0  0
    0.3394    0.8802   -6.0757 N   0  0  0  0  0  0  0  0  0  0  0  0
    0.4470   -0.1870   -7.0430 C   0  0  0  0  0  0  0  0  0  0  0  0
   -0.1466    1.7269   -6.3562 H   0  0  0  0  0  0  0  0  0  0  0  0
    1.3680   -0.0585   -7.6306 H   0  0  0  0  0  0  0  0  0  0  0  0
    0.4778   -1.1541   -6.5198 H   0  0  0  0  0  0  0  0  0  0  0  0
   -0.4233   -0.1614   -7.7153 H   0  0  0  0  0  0  0  0  0  0  0  0
 23 25  2  0  0  0  0
 22 23  1  0  0  0  0
 24 26  1  0  0  0  0
 22 24  2  0  0  0  0
 25 27  1  0  0  0  0
 26 27  2  0  0  0  0
 21 22  1  0  0  0  0
 27 28  1  0  0  0  0
  1  3  1  0  0  0  0
  1  7  1  0  0  0  0
  1  2  2  0  0  0  0
 39 40  1  0  0  0  0
 40 48  1  0  0  0  0
 40 41  2  0  0  0  0
  8  9  1  0  0  0  0
  9 17  1  0  0  0  0
  9 10  2  0  0  0  0
 18 19  1  0  0  0  0
 19 38  1  0  0  0  0
 19 20  2  0  0  0  0
 39 42  1  0  0  0  0
  8 11  1  0  0  0  0
 48 49  1  0  0  0  0
 18 21  1  0  0  0  0
 38 39  1  0  0  0  0
  7  8  1  0  0  0  0
 17 18  1  0  0  0  0
 23 33  1  0  0  0  0
 24 34  1  0  0  0  0
 25 35  1  0  0  0  0
 26 36  1  0  0  0  0
  3  4  1  0  0  0  0
  3  5  1  0  0  0  0
  3  6  1  0  0  0  0
 42 45  1  0  0  0  0
 42 46  1  0  0  0  0
 42 47  1  0  0  0  0
 11 14  1  0  0  0  0
 11 15  1  0  0  0  0
 11 16  1  0  0  0  0
 49 51  1  0  0  0  0
 49 52  1  0  0  0  0
 49 53  1  0  0  0  0
 21 31  1  0  0  0  0
 21 32  1  0  0  0  0
 39 44  1  0  0  0  0
  8 13  1  0  0  0  0
 18 30  1  0  0  0  0
 48 50  1  0  0  0  0
  7 12  1  0  0  0  0
 38 43  1  0  0  0  0
 17 29  1  0  0  0  0
 28 37  1  0  0  0  0
M  END
$$$$

  -OEChem-05262214473D

 53 53  0     1  0  0  0  0  0999 V2000
   -1.9298    0.2574    3.9747 C   0  0  0  0  0  0  0  0  0  0  0  0
   -0.9825   -0.3573    3.4990 O   0  0  0  0  0  0  0  0  0  0  0  0
   -2.3617   -0.0250    5.3754 C   0  0  0  0  0  0  0  0  0  0  0  0
   -3.1214   -0.8213    5.4288 H   0  0  0  0  0  0  0  0  0  0  0  0
   -1.5305   -0.3726    6.0097 H   0  0  0  0  0  0  0  0  0  0  0  0
   -2.7997    0.8299    5.9150 H   0  0  0  0  0  0  0  0  0  0  0  0
   -2.6795    1.2298    3.3336 N   0  0  0  0  0  0  0  0  0  0  0  0
   -2.4327    1.6559    1.9812 C   0  0  2  0  0  0  0  0  0  0  0  0
   -1.0977    1.0705    1.5400 C   0  0  0  0  0  0  0  0  0  0  0  0
   -0.2256    0.7177    2.3313 O   0  0  0  0  0  0  0  0  0  0  0  0
   -2.4239    3.1726    1.8718 C   0  0  0  0  0  0  0  0  0  0  0  0
   -3.4446    1.6657    3.8454 H   0  0  0  0  0  0  0  0  0  0  0  0
   -3.2368    1.2374    1.3661 H   0  0  0  0  0  0  0  0  0  0  0  0
   -1.6248    3.6099    2.4815 H   0  0  0  0  0  0  0  0  0  0  0  0
   -2.2644    3.4949    0.8375 H   0  0  0  0  0  0  0  0  0  0  0  0
   -3.3741    3.5939    2.2175 H   0  0  0  0  0  0  0  0  0  0  0  0
   -0.9750    1.0274    0.1566 N   0  0  0  0  0  0  0  0  0  0  0  0
    0.2023    0.5266   -0.5070 C   0  0  2  0  0  0  0  0  0  0  0  0
   -0.0423    0.6419   -2.0074 C   0  0  0  0  0  0  0  0  0  0  0  0
   -0.9915    0.1042   -2.5739 O   0  0  0  0  0  0  0  0  0  0  0  0
    0.5070   -0.9270   -0.1270 C   0  0  0  0  0  0  0  0  0  0  0  0
    0.9107   -1.0797    1.3192 C   0  0  0  0  0  0  0  0  0  0  0  0
    2.2207   -0.8034    1.7108 C   0  0  0  0  0  0  0  0  0  0  0  0
   -0.0262   -1.4979    2.2642 C   0  0  0  0  0  0  0  0  0  0  0  0
    2.5937   -0.9451    3.0473 C   0  0  0  0  0  0  0  0  0  0  0  0
    0.3469   -1.6397    3.6008 C   0  0  0  0  0  0  0  0  0  0  0  0
    1.6569   -1.3633    3.9923 C   0  0  0  0  0  0  0  0  0  0  0  0
    2.0214   -1.5028    5.2962 O   0  0  0  0  0  0  0  0  0  0  0  0
   -1.7582    1.3241   -0.4207 H   0  0  0  0  0  0  0  0  0  0  0  0
    1.0266    1.1924   -0.2256 H   0  0  0  0  0  0  0  0  0  0  0  0
    1.2956   -1.3324   -0.7754 H   0  0  0  0  0  0  0  0  0  0  0  0
   -0.3698   -1.5627   -0.3081 H   0  0  0  0  0  0  0  0  0  0  0  0
    2.9571   -0.4770    0.9813 H   0  0  0  0  0  0  0  0  0  0  0  0
   -1.0492   -1.7153    1.9682 H   0  0  0  0  0  0  0  0  0  0  0  0
    3.6160   -0.7286    3.3461 H   0  0  0  0  0  0  0  0  0  0  0  0
   -0.3874   -1.9661    4.3319 H   0  0  0  0  0  0  0  0  0  0  0  0
    1.2648   -1.7986    5.8272 H   0  0  0  0  0  0  0  0  0  0  0  0
    0.8962    1.4563   -2.6257 N   0  0  0  0  0  0  0  0  0  0  0  0
    0.8810    1.7523   -4.0403 C   0  0  2  0  0  0  0  0  0  0  0  0
    0.7586    0.4351   -4.7950 C   0  0  0  0  0  0  0  0  0  0  0  0
    1.0825   -0.6476   -4.3115 O   0  0  0  0  0  0  0  0  0  0  0  0
    2.1330    2.5058   -4.4614 C   0  0  0  0  0  0  0  0  0  0  0  0
    1.6307    1.8649   -2.0554 H   0  0  0  0  0  0  0  0  0  0  0  0
   -0.0085    2.3642   -4.2258 H   0  0  0  0  0  0  0  0  0  0  0  0
    3.0346    1.9084   -4.2830 H   0  0  0  0  0  0  0  0  0  0  0  0
    2.1068    2.7542   -5.5276 H   0  0  0  0  0  0  0  0  0  0  0  0
    2.2351    3.4385   -3.8963 H   0  0  0  0  0  0  0  0  0  0  0  0
    0.2858    0.6161   -6.0873 N   0  0  0  0  0  0  0  0  0  0  0  0
    0.0942   -0.4801   -7.0080 C   0  0  0  0  0  0  0  0  0  0  0  0
    0.0242    1.5471   -6.3978 H   0  0  0  0  0  0  0  0  0  0  0  0
    1.0026   -0.6138   -7.6137 H   0  0  0  0  0  0  0  0  0  0  0  0
   -0.1088   -1.4019   -6.4432 H   0  0  0  0  0  0  0  0  0  0  0  0
   -0.7574   -0.2595   -7.6683 H   0  0  0  0  0  0  0  0  0  0  0  0
 23 25  2  0  0  0  0
 22 23  1  0  0  0  0
 24 26  1  0  0  0  0
 22 24  2  0  0  0  0
 25 27  1  0  0  0  0
 26 27  2  0  0  0  0
 21 22  1  0  0  0  0
 27 28  1  0  0  0  0
  1  3  1  0  0  0  0
  1  7  1  0  0  0  0
  1  2  2  0  0  0  0
 39 40  1  0  0  0  0
 40 48  1  0  0  0  0
 40 41  2  0  0  0  0
  8  9  1  0  0  0  0
  9 17  1  0  0  0  0
  9 10  2  0  0  0  0
 18 19  1  0  0  0  0
 19 38  1  0  0  0  0
 19 20  2  0  0  0  0
 39 42  1  0  0  0  0
  8 11  1  0  0  0  0
 48 49  1  0  0  0  0
 18 21  1  0  0  0  0
 38 39  1  0  0  0  0
  7  8  1  0  0  0  0
 17 18  1  0  0  0  0
 23 33  1  0  0  0  0
 24 34  1  0  0  0  0
 25 35  1  0  0  0  0
 26 36  1  0  0  0  0
  3  4  1  0  0  0  0
  3  5  1  0  0  0  0
  3  6  1  0  0  0  0
 42 45  1  0  0  0  0
 42 46  1  0  0  0  0
 42 47  1  0  0  0  0
 11 14  1  0  0  0  0
 11 15  1  0  0  0  0
 11 16  1  0  0  0  0
 49 51  1  0  0  0  0
 49 52  1  0  0  0  0
 49 53  1  0  0  0  0
 21 31  1  0  0  0  0
 21 32  1  0  0  0  0
 39 44  1  0  0  0  0
  8 13  1  0  0  0  0
 18 30  1  0  0  0  0
 48 50  1  0  0  0  0
  7 12  1  0  0  0  0
 38 43  1  0  0  0  0
 17 29  1  0  0  0  0
 28 37  1  0  0  0  0
M  END
$$$$

  -OEChem-05262214473D

 53 53  0     1  0  0  0  0  0999 V2000
   -1.9298    0.2574    3.9747 C   0  0  0  0  0  0  0  0  0  0  0  0
   -0.9825   -0.3573    3.4990 O   0  0  0  0  0  0  0  0  0  0  0  0
   -2.3617   -0.0250    5.3754 C   0  0  0  0  0  0  0  0  0  0  0  0
   -3.1214   -0.8213    5.4288 H   0  0  0  0  0  0  0  0  0  0  0  0
   -1.5305   -0.3726    6.0097 H   0  0  0  0  0  0  0  0  0  0  0  0
   -2.7997    0.8299    5.9150 H   0  0  0  0  0  0  0  0  0  0  0  0
   -2.6795    1.2298    3.3336 N   0  0  0  0  0  0  0  0  0  0  0  0
   -2.4327    1.6559    1.9812 C   0  0  2  0  0  0  0  0  0  0  0  0
   -1.0977    1.0705    1.5400 C   0  0  0  0  0  0  0  0  0  0  0  0
   -0.2256    0.7177    2.3313 O   0  0  0  0  0  0  0  0  0  0  0  0
   -2.4239    3.1726    1.8718 C   0  0  0  0  0  0  0  0  0  0  0  0
   -3.4446    1.6657    3.8454 H   0  0  0  0  0  0  0  0  0  0  0  0
   -3.2368    1.2374    1.3661 H   0  0  0  0  0  0  0  0  0  0  0  0
   -1.6248    3.6099    2.4815 H   0  0  0  0  0  0  0  0  0  0  0  0
   -2.2644    3.4949    0.8375 H   0  0  0  0  0  0  0  0  0  0  0  0
   -3.3741    3.5939    2.2175 H   0  0  0  0  0  0  0  0  0  0  0  0
   -0.9750    1.0274    0.1566 N   0  0  0  0  0  0  0  0  0  0  0  0
    0.2023    0.5266   -0.5070 C   0  0  2  0  0  0  0  0  0  0  0  0
   -0.0423    0.6419   -2.0074 C   0  0  0  0  0  0  0  0  0  0  0  0
   -1.1108    0.3425   -2.5361 O   0  0  0  0  0  0  0  0  0  0  0  0
    0.5070   -0.9270   -0.1270 C   0  0  0  0  0  0  0  0  0  0  0  0
    0.9107   -1.0797    1.3192 C   0  0  0  0  0  0  0  0  0  0  0  0
    2.2207   -0.8034    1.7108 C   0  0  0  0  0  0  0  0  0  0  0  0
   -0.0262   -1.4979    2.2642 C   0  0  0  0  0  0  0  0  0  0  0  0
    2.5937   -0.9451    3.0473 C   0  0  0  0  0  0  0  0  0  0  0  0
    0.3469   -1.6397    3.6008 C   0  0  0  0  0  0  0  0  0  0  0  0
    1.6569   -1.3633    3.9923 C   0  0  0  0  0  0  0  0  0  0  0  0
    2.0214   -1.5028    5.2962 O   0  0  0  0  0  0  0  0  0  0  0  0
   -1.7582    1.3241   -0.4207 H   0  0  0  0  0  0  0  0  0  0  0  0
    1.0266    1.1924   -0.2256 H   0  0  0  0  0  0  0  0  0  0  0  0
    1.2956   -1.3324   -0.7754 H   0  0  0  0  0  0  0  0  0  0  0  0
   -0.3698   -1.5627   -0.3081 H   0  0  0  0  0  0  0  0  0  0  0  0
    2.9571   -0.4770    0.9813 H   0  0  0  0  0  0  0  0  0  0  0  0
   -1.0492   -1.7153    1.9682 H   0  0  0  0  0  0  0  0  0  0  0  0
    3.6160   -0.7286    3.3461 H   0  0  0  0  0  0  0  0  0  0  0  0
   -0.3874   -1.9661    4.3319 H   0  0  0  0  0  0  0  0  0  0  0  0
    1.2648   -1.7986    5.8272 H   0  0  0  0  0  0  0  0  0  0  0  0
    1.0567    1.1652   -2.6743 N   0  0  0  0  0  0  0  0  0  0  0  0
    1.0820    1.3998   -4.1001 C   0  0  2  0  0  0  0  0  0  0  0  0
    0.6099    0.1291   -4.7943 C   0  0  0  0  0  0  0  0  0  0  0  0
    0.6597   -0.9808   -4.2682 O   0  0  0  0  0  0  0  0  0  0  0  0
    2.4735    1.7920   -4.5718 C   0  0  0  0  0  0  0  0  0  0  0  0
    1.8850    1.3947   -2.1330 H   0  0  0  0  0  0  0  0  0  0  0  0
    0.3730    2.2107   -4.2998 H   0  0  0  0  0  0  0  0  0  0  0  0
    3.1977    0.9918   -4.3801 H   0  0  0  0  0  0  0  0  0  0  0  0
    2.4847    1.9971   -5.6474 H   0  0  0  0  0  0  0  0  0  0  0  0
    2.8235    2.6891   -4.0499 H   0  0  0  0  0  0  0  0  0  0  0  0
    0.1665    0.3742   -6.0864 N   0  0  0  0  0  0  0  0  0  0  0  0
   -0.3205   -0.6719   -6.9551 C   0  0  0  0  0  0  0  0  0  0  0  0
    0.1426    1.3283   -6.4340 H   0  0  0  0  0  0  0  0  0  0  0  0
    0.5087   -1.0565   -7.5672 H   0  0  0  0  0  0  0  0  0  0  0  0
   -0.7371   -1.4887   -6.3475 H   0  0  0  0  0  0  0  0  0  0  0  0
   -1.1042   -0.2673   -7.6124 H   0  0  0  0  0  0  0  0  0  0  0  0
 23 25  2  0  0  0  0
 22 23  1  0  0  0  0
 24 26  1  0  0  0  0
 22 24  2  0  0  0  0
 25 27  1  0  0  0  0
 26 27  2  0  0  0  0
 21 22  1  0  0  0  0
 27 28  1  0  0  0  0
  1  3  1  0  0  0  0
  1  7  1  0  0  0  0
  1  2  2  0  0  0  0
 39 40  1  0  0  0  0
 40 48  1  0  0  0  0
 40 41  2  0  0  0  0
  8  9  1  0  0  0  0
  9 17  1  0  0  0  0
  9 10  2  0  0  0  0
 18 19  1  0  0  0  0
 19 38  1  0  0  0  0
 19 20  2  0  0  0  0
 39 42  1  0  0  0  0
  8 11  1  0  0  0  0
 48 49  1  0  0  0  0
 18 21  1  0  0  0  0
 38 39  1  0  0  0  0
  7  8  1  0  0  0  0
 17 18  1  0  0  0  0
 23 33  1  0  0  0  0
 24 34  1  0  0  0  0
 25 35  1  0  0  0  0
 26 36  1  0  0  0  0
  3  4  1  0  0  0  0
  3  5  1  0  0  0  0
  3  6  1  0  0  0  0
 42 45  1  0  0  0  0
 42 46  1  0  0  0  0
 42 47  1  0  0  0  0
 11 14  1  0  0  0  0
 11 15  1  0  0  0  0
 11 16  1  0  0  0  0
 49 51  1  0  0  0  0
 49 52  1  0  0  0  0
 49 53  1  0  0  0  0
 21 31  1  0  0  0  0
 21 32  1  0  0  0  0
 39 44  1  0  0  0  0
  8 13  1  0  0  0  0
 18 30  1  0  0  0  0
 48 50  1  0  0  0  0
  7 12  1  0  0  0  0
 38 43  1  0  0  0  0
 17 29  1  0  0  0  0
 28 37  1  0  0  0  0
M  END
$$$$

  -OEChem-05262214473D

 53 53  0     1  0  0  0  0  0999 V2000
   -1.9298    0.2574    3.9747 C   0  0  0  0  0  0  0  0  0  0  0  0
   -0.9825   -0.3573    3.4990 O   0  0  0  0  0  0  0  0  0  0  0  0
   -2.3617   -0.0250    5.3754 C   0  0  0  0  0  0  0  0  0  0  0  0
   -3.1214   -0.8213    5.4288 H   0  0  0  0  0  0  0  0  0  0  0  0
   -1.5305   -0.3726    6.0097 H   0  0  0  0  0  0  0  0  0  0  0  0
   -2.7997    0.8299    5.9150 H   0  0  0  0  0  0  0  0  0  0  0  0
   -2.6795    1.2298    3.3336 N   0  0  0  0  0  0  0  0  0  0  0  0
   -2.4327    1.6559    1.9812 C   0  0  2  0  0  0  0  0  0  0  0  0
   -1.0977    1.0705    1.5400 C   0  0  0  0  0  0  0  0  0  0  0  0
   -0.2256    0.7177    2.3313 O   0  0  0  0  0  0  0  0  0  0  0  0
   -2.4239    3.1726    1.8718 C   0  0  0  0  0  0  0  0  0  0  0  0
   -3.4446    1.6657    3.8454 H   0  0  0  0  0  0  0  0  0  0  0  0
   -3.2368    1.2374    1.3661 H   0  0  0  0  0  0  0  0  0  0  0  0
   -1.6248    3.6099    2.4815 H   0  0  0  0  0  0  0  0  0  0  0  0
   -2.2644    3.4949    0.8375 H   0  0  0  0  0  0  0  0  0  0  0  0
   -3.3741    3.5939    2.2175 H   0  0  0  0  0  0  0  0  0  0  0  0
   -0.9750    1.0274    0.1566 N   0  0  0  0  0  0  0  0  0  0  0  0
    0.2023    0.5266   -0.5070 C   0  0  2  0  0  0  0  0  0  0  0  0
   -0.0423    0.6419   -2.0074 C   0  0  0  0  0  0  0  0  0  0  0  0
   -1.1647    0.6046   -2.5072 O   0  0  0  0  0  0  0  0  0  0  0  0
    0.5070   -0.9270   -0.1270 C   0  0  0  0  0  0  0  0  0  0  0  0
    0.9107   -1.0797    1.3192 C   0  0  0  0  0  0  0  0  0  0  0  0
    2.2207   -0.8034    1.7108 C   0  0  0  0  0  0  0  0  0  0  0  0
   -0.0262   -1.4979    2.2642 C   0  0  0  0  0  0  0  0  0  0  0  0
    2.5937   -0.9451    3.0473 C   0  0  0  0  0  0  0  0  0  0  0  0
    0.3469   -1.6397    3.6008 C   0  0  0  0  0  0  0  0  0  0  0  0
    1.6569   -1.3633    3.9923 C   0  0  0  0  0  0  0  0  0  0  0  0
    2.0214   -1.5028    5.2962 O   0  0  0  0  0  0  0  0  0  0  0  0
   -1.7582    1.3241   -0.4207 H   0  0  0  0  0  0  0  0  0  0  0  0
    1.0266    1.1924   -0.2256 H   0  0  0  0  0  0  0  0  0  0  0  0
    1.2956   -1.3324   -0.7754 H   0  0  0  0  0  0  0  0  0  0  0  0
   -0.3698   -1.5627   -0.3081 H   0  0  0  0  0  0  0  0  0  0  0  0
    2.9571   -0.4770    0.9813 H   0  0  0  0  0  0  0  0  0  0  0  0
   -1.0492   -1.7153    1.9682 H   0  0  0  0  0  0  0  0  0  0  0  0
    3.6160   -0.7286    3.3461 H   0  0  0  0  0  0  0  0  0  0  0  0
   -0.3874   -1.9661    4.3319 H   0  0  0  0  0  0  0  0  0  0  0  0
    1.2648   -1.7986    5.8272 H   0  0  0  0  0  0  0  0  0  0  0  0
    1.1366    0.8410   -2.7122 N   0  0  0  0  0  0  0  0  0  0  0  0
    1.1851    1.0057   -4.1473 C   0  0  2  0  0  0  0  0  0  0  0  0
    0.3882   -0.1286   -4.7780 C   0  0  0  0  0  0  0  0  0  0  0  0
    0.1673   -1.1931   -4.2043 O   0  0  0  0  0  0  0  0  0  0  0  0
    2.6184    1.0111   -4.6555 C   0  0  0  0  0  0  0  0  0  0  0  0
    2.0093    0.8726   -2.1934 H   0  0  0  0  0  0  0  0  0  0  0  0
    0.7009    1.9622   -4.3724 H   0  0  0  0  0  0  0  0  0  0  0  0
    3.1199    0.0608   -4.4390 H   0  0  0  0  0  0  0  0  0  0  0  0
    2.6546    1.1646   -5.7391 H   0  0  0  0  0  0  0  0  0  0  0  0
    3.1980    1.8089   -4.1786 H   0  0  0  0  0  0  0  0  0  0  0  0
   -0.0104    0.1709   -6.0732 N   0  0  0  0  0  0  0  0  0  0  0  0
   -0.7688   -0.7493   -6.8880 C   0  0  0  0  0  0  0  0  0  0  0  0
    0.2005    1.0853   -6.4621 H   0  0  0  0  0  0  0  0  0  0  0  0
   -0.0803   -1.3563   -7.4942 H   0  0  0  0  0  0  0  0  0  0  0  0
   -1.3642   -1.4085   -6.2391 H   0  0  0  0  0  0  0  0  0  0  0  0
   -1.4401   -0.1841   -7.5512 H   0  0  0  0  0  0  0  0  0  0  0  0
 23 25  2  0  0  0  0
 22 23  1  0  0  0  0
 24 26  1  0  0  0  0
 22 24  2  0  0  0  0
 25 27  1  0  0  0  0
 26 27  2  0  0  0  0
 21 22  1  0  0  0  0
 27 28  1  0  0  0  0
  1  3  1  0  0  0  0
  1  7  1  0  0  0  0
  1  2  2  0  0  0  0
 39 40  1  0  0  0  0
 40 48  1  0  0  0  0
 40 41  2  0  0  0  0
  8  9  1  0  0  0  0
  9 17  1  0  0  0  0
  9 10  2  0  0  0  0
 18 19  1  0  0  0  0
 19 38  1  0  0  0  0
 19 20  2  0  0  0  0
 39 42  1  0  0  0  0
  8 11  1  0  0  0  0
 48 49  1  0  0  0  0
 18 21  1  0  0  0  0
 38 39  1  0  0  0  0
  7  8  1  0  0  0  0
 17 18  1  0  0  0  0
 23 33  1  0  0  0  0
 24 34  1  0  0  0  0
 25 35  1  0  0  0  0
 26 36  1  0  0  0  0
  3  4  1  0  0  0  0
  3  5  1  0  0  0  0
  3  6  1  0  0  0  0
 42 45  1  0  0  0  0
 42 46  1  0  0  0  0
 42 47  1  0  0  0  0
 11 14  1  0  0  0  0
 11 15  1  0  0  0  0
 11 16  1  0  0  0  0
 49 51  1  0  0  0  0
 49 52  1  0  0  0  0
 49 53  1  0  0  0  0
 21 31  1  0  0  0  0
 21 32  1  0  0  0  0
 39 44  1  0  0  0  0
  8 13  1  0  0  0  0
 18 30  1  0  0  0  0
 48 50  1  0  0  0  0
  7 12  1  0  0  0  0
 38 43  1  0  0  0  0
 17 29  1  0  0  0  0
 28 37  1  0  0  0  0
M  END
$$$$

  -OEChem-05262214473D

 53 53  0     1  0  0  0  0  0999 V2000
   -1.9298    0.2574    3.9747 C   0  0  0  0  0  0  0  0  0  0  0  0
   -0.9825   -0.3573    3.4990 O   0  0  0  0  0  0  0  0  0  0  0  0
   -2.3617   -0.0250    5.3754 C   0  0  0  0  0  0  0  0  0  0  0  0
   -3.1214   -0.8213    5.4288 H   0  0  0  0  0  0  0  0  0  0  0  0
   -1.5305   -0.3726    6.0097 H   0  0  0  0  0  0  0  0  0  0  0  0
   -2.7997    0.8299    5.9150 H   0  0  0  0  0  0  0  0  0  0  0  0
   -2.6795    1.2298    3.3336 N   0  0  0  0  0  0  0  0  0  0  0  0
   -2.4327    1.6559    1.9812 C   0  0  2  0  0  0  0  0  0  0  0  0
   -1.0977    1.0705    1.5400 C   0  0  0  0  0  0  0  0  0  0  0  0
   -0.2256    0.7177    2.3313 O   0  0  0  0  0  0  0  0  0  0  0  0
   -2.4239    3.1726    1.8718 C   0  0  0  0  0  0  0  0  0  0  0  0
   -3.4446    1.6657    3.8454 H   0  0  0  0  0  0  0  0  0  0  0  0
   -3.2368    1.2374    1.3661 H   0  0  0  0  0  0  0  0  0  0  0  0
   -1.6248    3.6099    2.4815 H   0  0  0  0  0  0  0  0  0  0  0  0
   -2.2644    3.4949    0.8375 H   0  0  0  0  0  0  0  0  0  0  0  0
   -3.3741    3.5939    2.2175 H   0  0  0  0  0  0  0  0  0  0  0  0
   -0.9750    1.0274    0.1566 N   0  0  0  0  0  0  0  0  0  0  0  0
    0.2023    0.5266   -0.5070 C   0  0  2  0  0  0  0  0  0  0  0  0
   -0.0423    0.6419   -2.0074 C   0  0  0  0  0  0  0  0  0  0  0  0
   -1.1494    0.8728   -2.4890 O   0  0  0  0  0  0  0  0  0  0  0  0
    0.5070   -0.9270   -0.1270 C   0  0  0  0  0  0  0  0  0  0  0  0
    0.9107   -1.0797    1.3192 C   0  0  0  0  0  0  0  0  0  0  0  0
    2.2207   -0.8034    1.7108 C   0  0  0  0  0  0  0  0  0  0  0  0
   -0.0262   -1.4979    2.2642 C   0  0  0  0  0  0  0  0  0  0  0  0
    2.5937   -0.9451    3.0473 C   0  0  0  0  0  0  0  0  0  0  0  0
    0.3469   -1.6397    3.6008 C   0  0  0  0  0  0  0  0  0  0  0  0
    1.6569   -1.3633    3.9923 C   0  0  0  0  0  0  0  0  0  0  0  0
    2.0214   -1.5028    5.2962 O   0  0  0  0  0  0  0  0  0  0  0  0
   -1.7582    1.3241   -0.4207 H   0  0  0  0  0  0  0  0  0  0  0  0
    1.0266    1.1924   -0.2256 H   0  0  0  0  0  0  0  0  0  0  0  0
    1.2956   -1.3324   -0.7754 H   0  0  0  0  0  0  0  0  0  0  0  0
   -0.3698   -1.5627   -0.3081 H   0  0  0  0  0  0  0  0  0  0  0  0
    2.9571   -0.4770    0.9813 H   0  0  0  0  0  0  0  0  0  0  0  0
   -1.0492   -1.7153    1.9682 H   0  0  0  0  0  0  0  0  0  0  0  0
    3.6160   -0.7286    3.3461 H   0  0  0  0  0  0  0  0  0  0  0  0
   -0.3874   -1.9661    4.3319 H   0  0  0  0  0  0  0  0  0  0  0  0
    1.2648   -1.7986    5.8272 H   0  0  0  0  0  0  0  0  0  0  0  0
    1.1305    0.5060   -2.7370 N   0  0  0  0  0  0  0  0  0  0  0  0
    1.1835    0.5968   -4.1784 C   0  0  2  0  0  0  0  0  0  0  0  0
    0.1088   -0.3204   -4.7472 C   0  0  0  0  0  0  0  0  0  0  0  0
   -0.3611   -1.2701   -4.1240 O   0  0  0  0  0  0  0  0  0  0  0  0
    2.5579    0.2166   -4.7067 C   0  0  0  0  0  0  0  0  0  0  0  0
    1.9952    0.3341   -2.2325 H   0  0  0  0  0  0  0  0  0  0  0  0
    0.9529    1.6356   -4.4386 H   0  0  0  0  0  0  0  0  0  0  0  0
    2.8064   -0.8211   -4.4557 H   0  0  0  0  0  0  0  0  0  0  0  0
    2.6048    0.3133   -5.7964 H   0  0  0  0  0  0  0  0  0  0  0  0
    3.3330    0.8580   -4.2737 H   0  0  0  0  0  0  0  0  0  0  0  0
   -0.2327    0.0202   -6.0485 N   0  0  0  0  0  0  0  0  0  0  0  0
   -1.2204   -0.7071   -6.8111 C   0  0  0  0  0  0  0  0  0  0  0  0
    0.1940    0.8346   -6.4803 H   0  0  0  0  0  0  0  0  0  0  0  0
   -0.7242   -1.4928   -7.3997 H   0  0  0  0  0  0  0  0  0  0  0  0
   -1.9474   -1.1668   -6.1254 H   0  0  0  0  0  0  0  0  0  0  0  0
   -1.7422   -0.0156   -7.4891 H   0  0  0  0  0  0  0  0  0  0  0  0
 23 25  2  0  0  0  0
 22 23  1  0  0  0  0
 24 26  1  0  0  0  0
 22 24  2  0  0  0  0
 25 27  1  0  0  0  0
 26 27  2  0  0  0  0
 21 22  1  0  0  0  0
 27 28  1  0  0  0  0
  1  3  1  0  0  0  0
  1  7  1  0  0  0  0
  1  2  2  0  0  0  0
 39 40  1  0  0  0  0
 40 48  1  0  0  0  0
 40 41  2  0  0  0  0
  8  9  1  0  0  0  0
  9 17  1  0  0  0  0
  9 10  2  0  0  0  0
 18 19  1  0  0  0  0
 19 38  1  0  0  0  0
 19 20  2  0  0  0  0
 39 42  1  0  0  0  0
  8 11  1  0  0  0  0
 48 49  1  0  0  0  0
 18 21  1  0  0  0  0
 38 39  1  0  0  0  0
  7  8  1  0  0  0  0
 17 18  1  0  0  0  0
 23 33  1  0  0  0  0
 24 34  1  0  0  0  0
 25 35  1  0  0  0  0
 26 36  1  0  0  0  0
  3  4  1  0  0  0  0
  3  5  1  0  0  0  0
  3  6  1  0  0  0  0
 42 45  1  0  0  0  0
 42 46  1  0  0  0  0
 42 47  1  0  0  0  0
 11 14  1  0  0  0  0
 11 15  1  0  0  0  0
 11 16  1  0  0  0  0
 49 51  1  0  0  0  0
 49 52  1  0  0  0  0
 49 53  1  0  0  0  0
 21 31  1  0  0  0  0
 21 32  1  0  0  0  0
 39 44  1  0  0  0  0
  8 13  1  0  0  0  0
 18 30  1  0  0  0  0
 48 50  1  0  0  0  0
  7 12  1  0  0  0  0
 38 43  1  0  0  0  0
 17 29  1  0  0  0  0
 28 37  1  0  0  0  0
M  END
$$$$

  -OEChem-05262214473D

 53 53  0     1  0  0  0  0  0999 V2000
   -1.9298    0.2574    3.9747 C   0  0  0  0  0  0  0  0  0  0  0  0
   -0.9825   -0.3573    3.4990 O   0  0  0  0  0  0  0  0  0  0  0  0
   -2.3617   -0.0250    5.3754 C   0  0  0  0  0  0  0  0  0  0  0  0
   -3.1214   -0.8213    5.4288 H   0  0  0  0  0  0  0  0  0  0  0  0
   -1.5305   -0.3726    6.0097 H   0  0  0  0  0  0  0  0  0  0  0  0
   -2.7997    0.8299    5.9150 H   0  0  0  0  0  0  0  0  0  0  0  0
   -2.6795    1.2298    3.3336 N   0  0  0  0  0  0  0  0  0  0  0  0
   -2.4327    1.6559    1.9812 C   0  0  2  0  0  0  0  0  0  0  0  0
   -1.0977    1.0705    1.5400 C   0  0  0  0  0  0  0  0  0  0  0  0
   -0.2256    0.7177    2.3313 O   0  0  0  0  0  0  0  0  0  0  0  0
   -2.4239    3.1726    1.8718 C   0  0  0  0  0  0  0  0  0  0  0  0
   -3.4446    1.6657    3.8454 H   0  0  0  0  0  0  0  0  0  0  0  0
   -3.2368    1.2374    1.3661 H   0  0  0  0  0  0  0  0  0  0  0  0
   -1.6248    3.6099    2.4815 H   0  0  0  0  0  0  0  0  0  0  0  0
   -2.2644    3.4949    0.8375 H   0  0  0  0  0  0  0  0  0  0  0  0
   -3.3741    3.5939    2.2175 H   0  0  0  0  0  0  0  0  0  0  0  0
   -0.9750    1.0274    0.1566 N   0  0  0  0  0  0  0  0  0  0  0  0
    0.2023    0.5266   -0.5070 C   0  0  2  0  0  0  0  0  0  0  0  0
    0.1272    0.9790   -1.9609 C   0  0  0  0  0  0  0  0  0  0  0  0
   -0.7827    1.6810   -2.3972 O   0  0  0  0  0  0  0  0  0  0  0  0
    0.3053   -1.0010   -0.4289 C   0  0  0  0  0  0  0  0  0  0  0  0
    0.5391   -1.4990    0.9765 C   0  0  0  0  0  0  0  0  0  0  0  0
    1.8243   -1.4804    1.5184 C   0  0  0  0  0  0  0  0  0  0  0  0
   -0.5300   -1.9786    1.7332 C   0  0  0  0  0  0  0  0  0  0  0  0
    2.0403   -1.9412    2.8171 C   0  0  0  0  0  0  0  0  0  0  0  0
   -0.3140   -2.4395    3.0318 C   0  0  0  0  0  0  0  0  0  0  0  0
    0.9711   -2.4208    3.5738 C   0  0  0  0  0  0  0  0  0  0  0  0
    1.1823   -2.8717    4.8406 O   0  0  0  0  0  0  0  0  0  0  0  0
   -1.7582    1.3241   -0.4207 H   0  0  0  0  0  0  0  0  0  0  0  0
    1.0612    1.0083   -0.0252 H   0  0  0  0  0  0  0  0  0  0  0  0
    1.1072   -1.3623   -1.0870 H   0  0  0  0  0  0  0  0  0  0  0  0
   -0.6125   -1.4673   -0.8107 H   0  0  0  0  0  0  0  0  0  0  0  0
    2.6630   -1.1084    0.9361 H   0  0  0  0  0  0  0  0  0  0  0  0
   -1.5349   -1.9967    1.3190 H   0  0  0  0  0  0  0  0  0  0  0  0
    3.0439   -1.9244    3.2337 H   0  0  0  0  0  0  0  0  0  0  0  0
   -1.1508   -2.8121    3.6159 H   0  0  0  0  0  0  0  0  0  0  0  0
    0.3473   -3.1704    5.2348 H   0  0  0  0  0  0  0  0  0  0  0  0
    1.2218    0.5468   -2.6968 N   0  0  0  0  0  0  0  0  0  0  0  0
    1.4101    0.8568   -4.0958 C   0  0  2  0  0  0  0  0  0  0  0  0
    0.1215    0.5130   -4.8312 C   0  0  0  0  0  0  0  0  0  0  0  0
   -0.7047   -0.2876   -4.3983 O   0  0  0  0  0  0  0  0  0  0  0  0
    2.5888    0.0926   -4.6782 C   0  0  0  0  0  0  0  0  0  0  0  0
    1.9261   -0.0158   -2.2284 H   0  0  0  0  0  0  0  0  0  0  0  0
    1.5908    1.9354   -4.1591 H   0  0  0  0  0  0  0  0  0  0  0  0
    2.4259   -0.9900   -4.6235 H   0  0  0  0  0  0  0  0  0  0  0  0
    2.7477    0.3501   -5.7305 H   0  0  0  0  0  0  0  0  0  0  0  0
    3.5093    0.3183   -4.1291 H   0  0  0  0  0  0  0  0  0  0  0  0
    0.0232    1.1729   -6.0482 N   0  0  0  0  0  0  0  0  0  0  0  0
   -1.1016    1.0036   -6.9382 C   0  0  0  0  0  0  0  0  0  0  0  0
    0.7462    1.8333   -6.3184 H   0  0  0  0  0  0  0  0  0  0  0  0
   -0.8814    0.2035   -7.6602 H   0  0  0  0  0  0  0  0  0  0  0  0
   -1.9941    0.7348   -6.3540 H   0  0  0  0  0  0  0  0  0  0  0  0
   -1.2865    1.9439   -7.4783 H   0  0  0  0  0  0  0  0  0  0  0  0
 23 25  2  0  0  0  0
 22 23  1  0  0  0  0
 24 26  1  0  0  0  0
 22 24  2  0  0  0  0
 25 27  1  0  0  0  0
 26 27  2  0  0  0  0
 21 22  1  0  0  0  0
 27 28  1  0  0  0  0
  1  3  1  0  0  0  0
  1  7  1  0  0  0  0
  1  2  2  0  0  0  0
 39 40  1  0  0  0  0
 40 48  1  0  0  0  0
 40 41  2  0  0  0  0
  8  9  1  0  0  0  0
  9 17  1  0  0  0  0
  9 10  2  0  0  0  0
 18 19  1  0  0  0  0
 19 38  1  0  0  0  0
 19 20  2  0  0  0  0
 39 42  1  0  0  0  0
  8 11  1  0  0  0  0
 48 49  1  0  0  0  0
 18 21  1  0  0  0  0
 38 39  1  0  0  0  0
  7  8  1  0  0  0  0
 17 18  1  0  0  0  0
 23 33  1  0  0  0  0
 24 34  1  0  0  0  0
 25 35  1  0  0  0  0
 26 36  1  0  0  0  0
  3  4  1  0  0  0  0
  3  5  1  0  0  0  0
  3  6  1  0  0  0  0
 42 45  1  0  0  0  0
 42 46  1  0  0  0  0
 42 47  1  0  0  0  0
 11 14  1  0  0  0  0
 11 15  1  0  0  0  0
 11 16  1  0  0  0  0
 49 51  1  0  0  0  0
 49 52  1  0  0  0  0
 49 53  1  0  0  0  0
 21 31  1  0  0  0  0
 21 32  1  0  0  0  0
 39 44  1  0  0  0  0
  8 13  1  0  0  0  0
 18 30  1  0  0  0  0
 48 50  1  0  0  0  0
  7 12  1  0  0  0  0
 38 43  1  0  0  0  0
 17 29  1  0  0  0  0
 28 37  1  0  0  0  0
M  END
$$$$

  -OEChem-05262214473D

 53 53  0     1  0  0  0  0  0999 V2000
   -1.9298    0.2574    3.9747 C   0  0  0  0  0  0  0  0  0  0  0  0
   -0.9825   -0.3573    3.4990 O   0  0  0  0  0  0  0  0  0  0  0  0
   -2.3617   -0.0250    5.3754 C   0  0  0  0  0  0  0  0  0  0  0  0
   -3.1214   -0.8213    5.4288 H   0  0  0  0  0  0  0  0  0  0  0  0
   -1.5305   -0.3726    6.0097 H   0  0  0  0  0  0  0  0  0  0  0  0
   -2.7997    0.8299    5.9150 H   0  0  0  0  0  0  0  0  0  0  0  0
   -2.6795    1.2298    3.3336 N   0  0  0  0  0  0  0  0  0  0  0  0
   -2.4327    1.6559    1.9812 C   0  0  2  0  0  0  0  0  0  0  0  0
   -1.0977    1.0705    1.5400 C   0  0  0  0  0  0  0  0  0  0  0  0
   -0.2256    0.7177    2.3313 O   0  0  0  0  0  0  0  0  0  0  0  0
   -2.4239    3.1726    1.8718 C   0  0  0  0  0  0  0  0  0  0  0  0
   -3.4446    1.6657    3.8454 H   0  0  0  0  0  0  0  0  0  0  0  0
   -3.2368    1.2374    1.3661 H   0  0  0  0  0  0  0  0  0  0  0  0
   -1.6248    3.6099    2.4815 H   0  0  0  0  0  0  0  0  0  0  0  0
   -2.2644    3.4949    0.8375 H   0  0  0  0  0  0  0  0  0  0  0  0
   -3.3741    3.5939    2.2175 H   0  0  0  0  0  0  0  0  0  0  0  0
   -0.9750    1.0274    0.1566 N   0  0  0  0  0  0  0  0  0  0  0  0
    0.2023    0.5266   -0.5070 C   0  0  2  0  0  0  0  0  0  0  0  0
    0.1272    0.9790   -1.9609 C   0  0  0  0  0  0  0  0  0  0  0  0
   -0.6130    1.8828   -2.3431 O   0  0  0  0  0  0  0  0  0  0  0  0
    0.3053   -1.0010   -0.4289 C   0  0  0  0  0  0  0  0  0  0  0  0
    0.5391   -1.4990    0.9765 C   0  0  0  0  0  0  0  0  0  0  0  0
    1.8243   -1.4804    1.5184 C   0  0  0  0  0  0  0  0  0  0  0  0
   -0.5300   -1.9786    1.7332 C   0  0  0  0  0  0  0  0  0  0  0  0
    2.0403   -1.9412    2.8171 C   0  0  0  0  0  0  0  0  0  0  0  0
   -0.3140   -2.4395    3.0318 C   0  0  0  0  0  0  0  0  0  0  0  0
    0.9711   -2.4208    3.5738 C   0  0  0  0  0  0  0  0  0  0  0  0
    1.1823   -2.8717    4.8406 O   0  0  0  0  0  0  0  0  0  0  0  0
   -1.7582    1.3241   -0.4207 H   0  0  0  0  0  0  0  0  0  0  0  0
    1.0612    1.0083   -0.0252 H   0  0  0  0  0  0  0  0  0  0  0  0
    1.1072   -1.3623   -1.0870 H   0  0  0  0  0  0  0  0  0  0  0  0
   -0.6125   -1.4673   -0.8107 H   0  0  0  0  0  0  0  0  0  0  0  0
    2.6630   -1.1084    0.9361 H   0  0  0  0  0  0  0  0  0  0  0  0
   -1.5349   -1.9967    1.3190 H   0  0  0  0  0  0  0  0  0  0  0  0
    3.0439   -1.9244    3.2337 H   0  0  0  0  0  0  0  0  0  0  0  0
   -1.1508   -2.8121    3.6159 H   0  0  0  0  0  0  0  0  0  0  0  0
    0.3473   -3.1704    5.2348 H   0  0  0  0  0  0  0  0  0  0  0  0
    1.0205    0.2872   -2.7671 N   0  0  0  0  0  0  0  0  0  0  0  0
    1.1690    0.5367   -4.1829 C   0  0  2  0  0  0  0  0  0  0  0  0
   -0.2182    0.5200   -4.8115 C   0  0  0  0  0  0  0  0  0  0  0  0
   -1.1796   -0.0501   -4.2999 O   0  0  0  0  0  0  0  0  0  0  0  0
    2.0737   -0.4971   -4.8351 C   0  0  0  0  0  0  0  0  0  0  0  0
    1.5989   -0.4306   -2.3406 H   0  0  0  0  0  0  0  0  0  0  0  0
    1.6043    1.5369   -4.2838 H   0  0  0  0  0  0  0  0  0  0  0  0
    1.6540   -1.5056   -4.7441 H   0  0  0  0  0  0  0  0  0  0  0  0
    2.2081   -0.2902   -5.9019 H   0  0  0  0  0  0  0  0  0  0  0  0
    3.0616   -0.5044   -4.3620 H   0  0  0  0  0  0  0  0  0  0  0  0
   -0.2460    1.1800   -6.0321 N   0  0  0  0  0  0  0  0  0  0  0  0
   -1.4440    1.2914   -6.8310 C   0  0  0  0  0  0  0  0  0  0  0  0
    0.5939    1.6401   -6.3706 H   0  0  0  0  0  0  0  0  0  0  0  0
   -1.4850    0.4594   -7.5494 H   0  0  0  0  0  0  0  0  0  0  0  0
   -2.3266    1.2534   -6.1755 H   0  0  0  0  0  0  0  0  0  0  0  0
   -1.4333    2.2465   -7.3765 H   0  0  0  0  0  0  0  0  0  0  0  0
 23 25  2  0  0  0  0
 22 23  1  0  0  0  0
 24 26  1  0  0  0  0
 22 24  2  0  0  0  0
 25 27  1  0  0  0  0
 26 27  2  0  0  0  0
 21 22  1  0  0  0  0
 27 28  1  0  0  0  0
  1  3  1  0  0  0  0
  1  7  1  0  0  0  0
  1  2  2  0  0  0  0
 39 40  1  0  0  0  0
 40 48  1  0  0  0  0
 40 41  2  0  0  0  0
  8  9  1  0  0  0  0
  9 17  1  0  0  0  0
  9 10  2  0  0  0  0
 18 19  1  0  0  0  0
 19 38  1  0  0  0  0
 19 20  2  0  0  0  0
 39 42  1  0  0  0  0
  8 11  1  0  0  0  0
 48 49  1  0  0  0  0
 18 21  1  0  0  0  0
 38 39  1  0  0  0  0
  7  8  1  0  0  0  0
 17 18  1  0  0  0  0
 23 33  1  0  0  0  0
 24 34  1  0  0  0  0
 25 35  1  0  0  0  0
 26 36  1  0  0  0  0
  3  4  1  0  0  0  0
  3  5  1  0  0  0  0
  3  6  1  0  0  0  0
 42 45  1  0  0  0  0
 42 46  1  0  0  0  0
 42 47  1  0  0  0  0
 11 14  1  0  0  0  0
 11 15  1  0  0  0  0
 11 16  1  0  0  0  0
 49 51  1  0  0  0  0
 49 52  1  0  0  0  0
 49 53  1  0  0  0  0
 21 31  1  0  0  0  0
 21 32  1  0  0  0  0
 39 44  1  0  0  0  0
  8 13  1  0  0  0  0
 18 30  1  0  0  0  0
 48 50  1  0  0  0  0
  7 12  1  0  0  0  0
 38 43  1  0  0  0  0
 17 29  1  0  0  0  0
 28 37  1  0  0  0  0
M  END
$$$$

  -OEChem-05262214473D

 53 53  0     1  0  0  0  0  0999 V2000
   -1.9298    0.2574    3.9747 C   0  0  0  0  0  0  0  0  0  0  0  0
   -0.9825   -0.3573    3.4990 O   0  0  0  0  0  0  0  0  0  0  0  0
   -2.3617   -0.0250    5.3754 C   0  0  0  0  0  0  0  0  0  0  0  0
   -3.1214   -0.8213    5.4288 H   0  0  0  0  0  0  0  0  0  0  0  0
   -1.5305   -0.3726    6.0097 H   0  0  0  0  0  0  0  0  0  0  0  0
   -2.7997    0.8299    5.9150 H   0  0  0  0  0  0  0  0  0  0  0  0
   -2.6795    1.2298    3.3336 N   0  0  0  0  0  0  0  0  0  0  0  0
   -2.4327    1.6559    1.9812 C   0  0  2  0  0  0  0  0  0  0  0  0
   -1.0977    1.0705    1.5400 C   0  0  0  0  0  0  0  0  0  0  0  0
   -0.2256    0.7177    2.3313 O   0  0  0  0  0  0  0  0  0  0  0  0
   -2.4239    3.1726    1.8718 C   0  0  0  0  0  0  0  0  0  0  0  0
   -3.4446    1.6657    3.8454 H   0  0  0  0  0  0  0  0  0  0  0  0
   -3.2368    1.2374    1.3661 H   0  0  0  0  0  0  0  0  0  0  0  0
   -1.6248    3.6099    2.4815 H   0  0  0  0  0  0  0  0  0  0  0  0
   -2.2644    3.4949    0.8375 H   0  0  0  0  0  0  0  0  0  0  0  0
   -3.3741    3.5939    2.2175 H   0  0  0  0  0  0  0  0  0  0  0  0
   -0.9750    1.0274    0.1566 N   0  0  0  0  0  0  0  0  0  0  0  0
    0.2023    0.5266   -0.5070 C   0  0  2  0  0  0  0  0  0  0  0  0
    0.1272    0.9790   -1.9609 C   0  0  0  0  0  0  0  0  0  0  0  0
   -0.3952    2.0367   -2.3065 O   0  0  0  0  0  0  0  0  0  0  0  0
    0.3053   -1.0010   -0.4289 C   0  0  0  0  0  0  0  0  0  0  0  0
    0.5391   -1.4990    0.9765 C   0  0  0  0  0  0  0  0  0  0  0  0
    1.8243   -1.4804    1.5184 C   0  0  0  0  0  0  0  0  0  0  0  0
   -0.5300   -1.9786    1.7332 C   0  0  0  0  0  0  0  0  0  0  0  0
    2.0403   -1.9412    2.8171 C   0  0  0  0  0  0  0  0  0  0  0  0
   -0.3140   -2.4395    3.0318 C   0  0  0  0  0  0  0  0  0  0  0  0
    0.9711   -2.4208    3.5738 C   0  0  0  0  0  0  0  0  0  0  0  0
    1.1823   -2.8717    4.8406 O   0  0  0  0  0  0  0  0  0  0  0  0
   -1.7582    1.3241   -0.4207 H   0  0  0  0  0  0  0  0  0  0  0  0
    1.0612    1.0083   -0.0252 H   0  0  0  0  0  0  0  0  0  0  0  0
    1.1072   -1.3623   -1.0870 H   0  0  0  0  0  0  0  0  0  0  0  0
   -0.6125   -1.4673   -0.8107 H   0  0  0  0  0  0  0  0  0  0  0  0
    2.6630   -1.1084    0.9361 H   0  0  0  0  0  0  0  0  0  0  0  0
   -1.5349   -1.9967    1.3190 H   0  0  0  0  0  0  0  0  0  0  0  0
    3.0439   -1.9244    3.2337 H   0  0  0  0  0  0  0  0  0  0  0  0
   -1.1508   -2.8121    3.6159 H   0  0  0  0  0  0  0  0  0  0  0  0
    0.3473   -3.1704    5.2348 H   0  0  0  0  0  0  0  0  0  0  0  0
    0.7565    0.0853   -2.8163 N   0  0  0  0  0  0  0  0  0  0  0  0
    0.8504    0.2859   -4.2445 C   0  0  2  0  0  0  0  0  0  0  0  0
   -0.5430    0.6109   -4.7664 C   0  0  0  0  0  0  0  0  0  0  0  0
   -1.5720    0.2979   -4.1714 O   0  0  0  0  0  0  0  0  0  0  0  0
    1.4186   -0.9416   -4.9396 C   0  0  0  0  0  0  0  0  0  0  0  0
    1.1719   -0.7520   -2.4186 H   0  0  0  0  0  0  0  0  0  0  0  0
    1.5094    1.1471   -4.4002 H   0  0  0  0  0  0  0  0  0  0  0  0
    0.7718   -1.8146   -4.7947 H   0  0  0  0  0  0  0  0  0  0  0  0
    1.5158   -0.7776   -6.0178 H   0  0  0  0  0  0  0  0  0  0  0  0
    2.4082   -1.1915   -4.5420 H   0  0  0  0  0  0  0  0  0  0  0  0
   -0.5030    1.2534   -5.9959 N   0  0  0  0  0  0  0  0  0  0  0  0
   -1.6955    1.6552   -6.7048 C   0  0  0  0  0  0  0  0  0  0  0  0
    0.3951    1.4905   -6.4069 H   0  0  0  0  0  0  0  0  0  0  0  0
   -1.9964    0.8569   -7.3993 H   0  0  0  0  0  0  0  0  0  0  0  0
   -2.5060    1.8387   -5.9841 H   0  0  0  0  0  0  0  0  0  0  0  0
   -1.4927    2.5763   -7.2709 H   0  0  0  0  0  0  0  0  0  0  0  0
 23 25  2  0  0  0  0
 22 23  1  0  0  0  0
 24 26  1  0  0  0  0
 22 24  2  0  0  0  0
 25 27  1  0  0  0  0
 26 27  2  0  0  0  0
 21 22  1  0  0  0  0
 27 28  1  0  0  0  0
  1  3  1  0  0  0  0
  1  7  1  0  0  0  0
  1  2  2  0  0  0  0
 39 40  1  0  0  0  0
 40 48  1  0  0  0  0
 40 41  2  0  0  0  0
  8  9  1  0  0  0  0
  9 17  1  0  0  0  0
  9 10  2  0  0  0  0
 18 19  1  0  0  0  0
 19 38  1  0  0  0  0
 19 20  2  0  0  0  0
 39 42  1  0  0  0  0
  8 11  1  0  0  0  0
 48 49  1  0  0  0  0
 18 21  1  0  0  0  0
 38 39  1  0  0  0  0
  7  8  1  0  0  0  0
 17 18  1  0  0  0  0
 23 33  1  0  0  0  0
 24 34  1  0  0  0  0
 25 35  1  0  0  0  0
 26 36  1  0  0  0  0
  3  4  1  0  0  0  0
  3  5  1  0  0  0  0
  3  6  1  0  0  0  0
 42 45  1  0  0  0  0
 42 46  1  0  0  0  0
 42 47  1  0  0  0  0
 11 14  1  0  0  0  0
 11 15  1  0  0  0  0
 11 16  1  0  0  0  0
 49 51  1  0  0  0  0
 49 52  1  0  0  0  0
 49 53  1  0  0  0  0
 21 31  1  0  0  0  0
 21 32  1  0  0  0  0
 39 44  1  0  0  0  0
  8 13  1  0  0  0  0
 18 30  1  0  0  0  0
 48 50  1  0  0  0  0
  7 12  1  0  0  0  0
 38 43  1  0  0  0  0
 17 29  1  0  0  0  0
 28 37  1  0  0  0  0
M  END
$$$$

  -OEChem-05262214473D

 53 53  0     1  0  0  0  0  0999 V2000
   -1.9298    0.2574    3.9747 C   0  0  0  0  0  0  0  0  0  0  0  0
   -0.9825   -0.3573    3.4990 O   0  0  0  0  0  0  0  0  0  0  0  0
   -2.3617   -0.0250    5.3754 C   0  0  0  0  0  0  0  0  0  0  0  0
   -3.1214   -0.8213    5.4288 H   0  0  0  0  0  0  0  0  0  0  0  0
   -1.5305   -0.3726    6.0097 H   0  0  0  0  0  0  0  0  0  0  0  0
   -2.7997    0.8299    5.9150 H   0  0  0  0  0  0  0  0  0  0  0  0
   -2.6795    1.2298    3.3336 N   0  0  0  0  0  0  0  0  0  0  0  0
   -2.4327    1.6559    1.9812 C   0  0  2  0  0  0  0  0  0  0  0  0
   -1.0977    1.0705    1.5400 C   0  0  0  0  0  0  0  0  0  0  0  0
   -0.2256    0.7177    2.3313 O   0  0  0  0  0  0  0  0  0  0  0  0
   -2.4239    3.1726    1.8718 C   0  0  0  0  0  0  0  0  0  0  0  0
   -3.4446    1.6657    3.8454 H   0  0  0  0  0  0  0  0  0  0  0  0
   -3.2368    1.2374    1.3661 H   0  0  0  0  0  0  0  0  0  0  0  0
   -1.6248    3.6099    2.4815 H   0  0  0  0  0  0  0  0  0  0  0  0
   -2.2644    3.4949    0.8375 H   0  0  0  0  0  0  0  0  0  0  0  0
   -3.3741    3.5939    2.2175 H   0  0  0  0  0  0  0  0  0  0  0  0
   -0.9750    1.0274    0.1566 N   0  0  0  0  0  0  0  0  0  0  0  0
    0.2023    0.5266   -0.5070 C   0  0  2  0  0  0  0  0  0  0  0  0
    0.1272    0.9790   -1.9609 C   0  0  0  0  0  0  0  0  0  0  0  0
   -0.1440    2.1319   -2.2898 O   0  0  0  0  0  0  0  0  0  0  0  0
    0.3053   -1.0010   -0.4289 C   0  0  0  0  0  0  0  0  0  0  0  0
    0.5391   -1.4990    0.9765 C   0  0  0  0  0  0  0  0  0  0  0  0
    1.8243   -1.4804    1.5184 C   0  0  0  0  0  0  0  0  0  0  0  0
   -0.5300   -1.9786    1.7332 C   0  0  0  0  0  0  0  0  0  0  0  0
    2.0403   -1.9412    2.8171 C   0  0  0  0  0  0  0  0  0  0  0  0
   -0.3140   -2.4395    3.0318 C   0  0  0  0  0  0  0  0  0  0  0  0
    0.9711   -2.4208    3.5738 C   0  0  0  0  0  0  0  0  0  0  0  0
    1.1823   -2.8717    4.8406 O   0  0  0  0  0  0  0  0  0  0  0  0
   -1.7582    1.3241   -0.4207 H   0  0  0  0  0  0  0  0  0  0  0  0
    1.0612    1.0083   -0.0252 H   0  0  0  0  0  0  0  0  0  0  0  0
    1.1072   -1.3623   -1.0870 H   0  0  0  0  0  0  0  0  0  0  0  0
   -0.6125   -1.4673   -0.8107 H   0  0  0  0  0  0  0  0  0  0  0  0
    2.6630   -1.1084    0.9361 H   0  0  0  0  0  0  0  0  0  0  0  0
   -1.5349   -1.9967    1.3190 H   0  0  0  0  0  0  0  0  0  0  0  0
    3.0439   -1.9244    3.2337 H   0  0  0  0  0  0  0  0  0  0  0  0
   -1.1508   -2.8121    3.6159 H   0  0  0  0  0  0  0  0  0  0  0  0
    0.3473   -3.1704    5.2348 H   0  0  0  0  0  0  0  0  0  0  0  0
    0.4478   -0.0452   -2.8410 N   0  0  0  0  0  0  0  0  0  0  0  0
    0.4760    0.1215   -4.2764 C   0  0  2  0  0  0  0  0  0  0  0  0
   -0.8308    0.7794   -4.6991 C   0  0  0  0  0  0  0  0  0  0  0  0
   -1.8554    0.7325   -4.0215 O   0  0  0  0  0  0  0  0  0  0  0  0
    0.6680   -1.2105   -4.9845 C   0  0  0  0  0  0  0  0  0  0  0  0
    0.6741   -0.9580   -2.4570 H   0  0  0  0  0  0  0  0  0  0  0  0
    1.3125    0.7924   -4.5004 H   0  0  0  0  0  0  0  0  0  0  0  0
   -0.1604   -1.8960   -4.7719 H   0  0  0  0  0  0  0  0  0  0  0  0
    0.7178   -1.0790   -6.0705 H   0  0  0  0  0  0  0  0  0  0  0  0
    1.5936   -1.6962   -4.6570 H   0  0  0  0  0  0  0  0  0  0  0  0
   -0.7304    1.3883   -5.9423 N   0  0  0  0  0  0  0  0  0  0  0  0
   -1.8390    2.0703   -6.5682 C   0  0  0  0  0  0  0  0  0  0  0  0
    0.1634    1.3946   -6.4248 H   0  0  0  0  0  0  0  0  0  0  0  0
   -2.3807    1.3691   -7.2201 H   0  0  0  0  0  0  0  0  0  0  0  0
   -2.5202    2.4508   -5.7929 H   0  0  0  0  0  0  0  0  0  0  0  0
   -1.4605    2.9109   -7.1684 H   0  0  0  0  0  0  0  0  0  0  0  0
 23 25  2  0  0  0  0
 22 23  1  0  0  0  0
 24 26  1  0  0  0  0
 22 24  2  0  0  0  0
 25 27  1  0  0  0  0
 26 27  2  0  0  0  0
 21 22  1  0  0  0  0
 27 28  1  0  0  0  0
  1  3  1  0  0  0  0
  1  7  1  0  0  0  0
  1  2  2  0  0  0  0
 39 40  1  0  0  0  0
 40 48  1  0  0  0  0
 40 41  2  0  0  0  0
  8  9  1  0  0  0  0
  9 17  1  0  0  0  0
  9 10  2  0  0  0  0
 18 19  1  0  0  0  0
 19 38  1  0  0  0  0
 19 20  2  0  0  0  0
 39 42  1  0  0  0  0
  8 11  1  0  0  0  0
 48 49  1  0  0  0  0
 18 21  1  0  0  0  0
 38 39  1  0  0  0  0
  7  8  1  0  0  0  0
 17 18  1  0  0  0  0
 23 33  1  0  0  0  0
 24 34  1  0  0  0  0
 25 35  1  0  0  0  0
 26 36  1  0  0  0  0
  3  4  1  0  0  0  0
  3  5  1  0  0  0  0
  3  6  1  0  0  0  0
 42 45  1  0  0  0  0
 42 46  1  0  0  0  0
 42 47  1  0  0  0  0
 11 14  1  0  0  0  0
 11 15  1  0  0  0  0
 11 16  1  0  0  0  0
 49 51  1  0  0  0  0
 49 52  1  0  0  0  0
 49 53  1  0  0  0  0
 21 31  1  0  0  0  0
 21 32  1  0  0  0  0
 39 44  1  0  0  0  0
  8 13  1  0  0  0  0
 18 30  1  0  0  0  0
 48 50  1  0  0  0  0
  7 12  1  0  0  0  0
 38 43  1  0  0  0  0
 17 29  1  0  0  0  0
 28 37  1  0  0  0  0
M  END
$$$$

  -OEChem-05262214473D

 53 53  0     1  0  0  0  0  0999 V2000
   -1.9298    0.2574    3.9747 C   0  0  0  0  0  0  0  0  0  0  0  0
   -0.9825   -0.3573    3.4990 O   0  0  0  0  0  0  0  0  0  0  0  0
   -2.3617   -0.0250    5.3754 C   0  0  0  0  0  0  0  0  0  0  0  0
   -3.1214   -0.8213    5.4288 H   0  0  0  0  0  0  0  0  0  0  0  0
   -1.5305   -0.3726    6.0097 H   0  0  0  0  0  0  0  0  0  0  0  0
   -2.7997    0.8299    5.9150 H   0  0  0  0  0  0  0  0  0  0  0  0
   -2.6795    1.2298    3.3336 N   0  0  0  0  0  0  0  0  0  0  0  0
   -2.4327    1.6559    1.9812 C   0  0  2  0  0  0  0  0  0  0  0  0
   -1.0977    1.0705    1.5400 C   0  0  0  0  0  0  0  0  0  0  0  0
   -0.2256    0.7177    2.3313 O   0  0  0  0  0  0  0  0  0  0  0  0
   -2.4239    3.1726    1.8718 C   0  0  0  0  0  0  0  0  0  0  0  0
   -3.4446    1.6657    3.8454 H   0  0  0  0  0  0  0  0  0  0  0  0
   -3.2368    1.2374    1.3661 H   0  0  0  0  0  0  0  0  0  0  0  0
   -1.6248    3.6099    2.4815 H   0  0  0  0  0  0  0  0  0  0  0  0
   -2.2644    3.4949    0.8375 H   0  0  0  0  0  0  0  0  0  0  0  0
   -3.3741    3.5939    2.2175 H   0  0  0  0  0  0  0  0  0  0  0  0
   -0.9750    1.0274    0.1566 N   0  0  0  0  0  0  0  0  0  0  0  0
    0.2023    0.5266   -0.5070 C   0  0  2  0  0  0  0  0  0  0  0  0
    0.1272    0.9790   -1.9609 C   0  0  0  0  0  0  0  0  0  0  0  0
    0.1234    2.1622   -2.2942 O   0  0  0  0  0  0  0  0  0  0  0  0
    0.3053   -1.0010   -0.4289 C   0  0  0  0  0  0  0  0  0  0  0  0
    0.5391   -1.4990    0.9765 C   0  0  0  0  0  0  0  0  0  0  0  0
    1.8243   -1.4804    1.5184 C   0  0  0  0  0  0  0  0  0  0  0  0
   -0.5300   -1.9786    1.7332 C   0  0  0  0  0  0  0  0  0  0  0  0
    2.0403   -1.9412    2.8171 C   0  0  0  0  0  0  0  0  0  0  0  0
   -0.3140   -2.4395    3.0318 C   0  0  0  0  0  0  0  0  0  0  0  0
    0.9711   -2.4208    3.5738 C   0  0  0  0  0  0  0  0  0  0  0  0
    1.1823   -2.8717    4.8406 O   0  0  0  0  0  0  0  0  0  0  0  0
   -1.7582    1.3241   -0.4207 H   0  0  0  0  0  0  0  0  0  0  0  0
    1.0612    1.0083   -0.0252 H   0  0  0  0  0  0  0  0  0  0  0  0
    1.1072   -1.3623   -1.0870 H   0  0  0  0  0  0  0  0  0  0  0  0
   -0.6125   -1.4673   -0.8107 H   0  0  0  0  0  0  0  0  0  0  0  0
    2.6630   -1.1084    0.9361 H   0  0  0  0  0  0  0  0  0  0  0  0
   -1.5349   -1.9967    1.3190 H   0  0  0  0  0  0  0  0  0  0  0  0
    3.0439   -1.9244    3.2337 H   0  0  0  0  0  0  0  0  0  0  0  0
   -1.1508   -2.8121    3.6159 H   0  0  0  0  0  0  0  0  0  0  0  0
    0.3473   -3.1704    5.2348 H   0  0  0  0  0  0  0  0  0  0  0  0
    0.1156   -0.0954   -2.8395 N   0  0  0  0  0  0  0  0  0  0  0  0
    0.0714    0.0547   -4.2763 C   0  0  2  0  0  0  0  0  0  0  0  0
   -1.0621    1.0141   -4.6142 C   0  0  0  0  0  0  0  0  0  0  0  0
   -2.0103    1.2241   -3.8605 O   0  0  0  0  0  0  0  0  0  0  0  0
   -0.1268   -1.2856   -4.9668 C   0  0  0  0  0  0  0  0  0  0  0  0
    0.1394   -1.0346   -2.4532 H   0  0  0  0  0  0  0  0  0  0  0  0
    1.0272    0.4972   -4.5776 H   0  0  0  0  0  0  0  0  0  0  0  0
   -1.0793   -1.7442   -4.6772 H   0  0  0  0  0  0  0  0  0  0  0  0
   -0.1315   -1.1739   -6.0561 H   0  0  0  0  0  0  0  0  0  0  0  0
    0.6734   -1.9841   -4.6991 H   0  0  0  0  0  0  0  0  0  0  0  0
   -0.9126    1.5754   -5.8746 N   0  0  0  0  0  0  0  0  0  0  0  0
   -1.8646    2.5084   -6.4306 C   0  0  0  0  0  0  0  0  0  0  0  0
   -0.0854    1.3589   -6.4231 H   0  0  0  0  0  0  0  0  0  0  0  0
   -2.6117    1.9610   -7.0240 H   0  0  0  0  0  0  0  0  0  0  0  0
   -2.3681    3.0480   -5.6149 H   0  0  0  0  0  0  0  0  0  0  0  0
   -1.3390    3.2274   -7.0762 H   0  0  0  0  0  0  0  0  0  0  0  0
 23 25  2  0  0  0  0
 22 23  1  0  0  0  0
 24 26  1  0  0  0  0
 22 24  2  0  0  0  0
 25 27  1  0  0  0  0
 26 27  2  0  0  0  0
 21 22  1  0  0  0  0
 27 28  1  0  0  0  0
  1  3  1  0  0  0  0
  1  7  1  0  0  0  0
  1  2  2  0  0  0  0
 39 40  1  0  0  0  0
 40 48  1  0  0  0  0
 40 41  2  0  0  0  0
  8  9  1  0  0  0  0
  9 17  1  0  0  0  0
  9 10  2  0  0  0  0
 18 19  1  0  0  0  0
 19 38  1  0  0  0  0
 19 20  2  0  0  0  0
 39 42  1  0  0  0  0
  8 11  1  0  0  0  0
 48 49  1  0  0  0  0
 18 21  1  0  0  0  0
 38 39  1  0  0  0  0
  7  8  1  0  0  0  0
 17 18  1  0  0  0  0
 23 33  1  0  0  0  0
 24 34  1  0  0  0  0
 25 35  1  0  0  0  0
 26 36  1  0  0  0  0
  3  4  1  0  0  0  0
  3  5  1  0  0  0  0
  3  6  1  0  0  0  0
 42 45  1  0  0  0  0
 42 46  1  0  0  0  0
 42 47  1  0  0  0  0
 11 14  1  0  0  0  0
 11 15  1  0  0  0  0
 11 16  1  0  0  0  0
 49 51  1  0  0  0  0
 49 52  1  0  0  0  0
 49 53  1  0  0  0  0
 21 31  1  0  0  0  0
 21 32  1  0  0  0  0
 39 44  1  0  0  0  0
  8 13  1  0  0  0  0
 18 30  1  0  0  0  0
 48 50  1  0  0  0  0
  7 12  1  0  0  0  0
 38 43  1  0  0  0  0
 17 29  1  0  0  0  0
 28 37  1  0  0  0  0
M  END
$$$$

  -OEChem-05262214473D

 53 53  0     1  0  0  0  0  0999 V2000
   -1.9298    0.2574    3.9747 C   0  0  0  0  0  0  0  0  0  0  0  0
   -0.9825   -0.3573    3.4990 O   0  0  0  0  0  0  0  0  0  0  0  0
   -2.3617   -0.0250    5.3754 C   0  0  0  0  0  0  0  0  0  0  0  0
   -3.1214   -0.8213    5.4288 H   0  0  0  0  0  0  0  0  0  0  0  0
   -1.5305   -0.3726    6.0097 H   0  0  0  0  0  0  0  0  0  0  0  0
   -2.7997    0.8299    5.9150 H   0  0  0  0  0  0  0  0  0  0  0  0
   -2.6795    1.2298    3.3336 N   0  0  0  0  0  0  0  0  0  0  0  0
   -2.4327    1.6559    1.9812 C   0  0  2  0  0  0  0  0  0  0  0  0
   -1.0977    1.0705    1.5400 C   0  0  0  0  0  0  0  0  0  0  0  0
   -0.2256    0.7177    2.3313 O   0  0  0  0  0  0  0  0  0  0  0  0
   -2.4239    3.1726    1.8718 C   0  0  0  0  0  0  0  0  0  0  0  0
   -3.4446    1.6657    3.8454 H   0  0  0  0  0  0  0  0  0  0  0  0
   -3.2368    1.2374    1.3661 H   0  0  0  0  0  0  0  0  0  0  0  0
   -1.6248    3.6099    2.4815 H   0  0  0  0  0  0  0  0  0  0  0  0
   -2.2644    3.4949    0.8375 H   0  0  0  0  0  0  0  0  0  0  0  0
   -3.3741    3.5939    2.2175 H   0  0  0  0  0  0  0  0  0  0  0  0
   -0.9750    1.0274    0.1566 N   0  0  0  0  0  0  0  0  0  0  0  0
    0.2023    0.5266   -0.5070 C   0  0  2  0  0  0  0  0  0  0  0  0
    0.1272    0.9790   -1.9609 C   0  0  0  0  0  0  0  0  0  0  0  0
    0.3889    2.1253   -2.3194 O   0  0  0  0  0  0  0  0  0  0  0  0
    0.3053   -1.0010   -0.4289 C   0  0  0  0  0  0  0  0  0  0  0  0
    0.5391   -1.4990    0.9765 C   0  0  0  0  0  0  0  0  0  0  0  0
    1.8243   -1.4804    1.5184 C   0  0  0  0  0  0  0  0  0  0  0  0
   -0.5300   -1.9786    1.7332 C   0  0  0  0  0  0  0  0  0  0  0  0
    2.0403   -1.9412    2.8171 C   0  0  0  0  0  0  0  0  0  0  0  0
   -0.3140   -2.4395    3.0318 C   0  0  0  0  0  0  0  0  0  0  0  0
    0.9711   -2.4208    3.5738 C   0  0  0  0  0  0  0  0  0  0  0  0
    1.1823   -2.8717    4.8406 O   0  0  0  0  0  0  0  0  0  0  0  0
   -1.7582    1.3241   -0.4207 H   0  0  0  0  0  0  0  0  0  0  0  0
    1.0612    1.0083   -0.0252 H   0  0  0  0  0  0  0  0  0  0  0  0
    1.1072   -1.3623   -1.0870 H   0  0  0  0  0  0  0  0  0  0  0  0
   -0.6125   -1.4673   -0.8107 H   0  0  0  0  0  0  0  0  0  0  0  0
    2.6630   -1.1084    0.9361 H   0  0  0  0  0  0  0  0  0  0  0  0
   -1.5349   -1.9967    1.3190 H   0  0  0  0  0  0  0  0  0  0  0  0
    3.0439   -1.9244    3.2337 H   0  0  0  0  0  0  0  0  0  0  0  0
   -1.1508   -2.8121    3.6159 H   0  0  0  0  0  0  0  0  0  0  0  0
    0.3473   -3.1704    5.2348 H   0  0  0  0  0  0  0  0  0  0  0  0
   -0.2175   -0.0619   -2.8119 N   0  0  0  0  0  0  0  0  0  0  0  0
   -0.3359    0.0901   -4.2442 C   0  0  2  0  0  0  0  0  0  0  0  0
   -1.2211    1.2989   -4.5173 C   0  0  0  0  0  0  0  0  0  0  0  0
   -2.0262    1.7393   -3.6994 O   0  0  0  0  0  0  0  0  0  0  0  0
   -0.9117   -1.1617   -4.8878 C   0  0  0  0  0  0  0  0  0  0  0  0
   -0.3956   -0.9766   -2.4076 H   0  0  0  0  0  0  0  0  0  0  0  0
    0.6727    0.2815   -4.6264 H   0  0  0  0  0  0  0  0  0  0  0  0
   -1.9221   -1.3696   -4.5172 H   0  0  0  0  0  0  0  0  0  0  0  0
   -0.9741   -1.0557   -5.9759 H   0  0  0  0  0  0  0  0  0  0  0  0
   -0.2898   -2.0356   -4.6654 H   0  0  0  0  0  0  0  0  0  0  0  0
   -1.0372    1.8019   -5.7977 N   0  0  0  0  0  0  0  0  0  0  0  0
   -1.7706    2.9397   -6.3012 C   0  0  0  0  0  0  0  0  0  0  0  0
   -0.3345    1.3859   -6.4018 H   0  0  0  0  0  0  0  0  0  0  0  0
   -2.6737    2.5922   -6.8243 H   0  0  0  0  0  0  0  0  0  0  0  0
   -2.0601    3.5896   -5.4623 H   0  0  0  0  0  0  0  0  0  0  0  0
   -1.1363    3.5043   -7.0005 H   0  0  0  0  0  0  0  0  0  0  0  0
 23 25  2  0  0  0  0
 22 23  1  0  0  0  0
 24 26  1  0  0  0  0
 22 24  2  0  0  0  0
 25 27  1  0  0  0  0
 26 27  2  0  0  0  0
 21 22  1  0  0  0  0
 27 28  1  0  0  0  0
  1  3  1  0  0  0  0
  1  7  1  0  0  0  0
  1  2  2  0  0  0  0
 39 40  1  0  0  0  0
 40 48  1  0  0  0  0
 40 41  2  0  0  0  0
  8  9  1  0  0  0  0
  9 17  1  0  0  0  0
  9 10  2  0  0  0  0
 18 19  1  0  0  0  0
 19 38  1  0  0  0  0
 19 20  2  0  0  0  0
 39 42  1  0  0  0  0
  8 11  1  0  0  0  0
 48 49  1  0  0  0  0
 18 21  1  0  0  0  0
 38 39  1  0  0  0  0
  7  8  1  0  0  0  0
 17 18  1  0  0  0  0
 23 33  1  0  0  0  0
 24 34  1  0  0  0  0
 25 35  1  0  0  0  0
 26 36  1  0  0  0  0
  3  4  1  0  0  0  0
  3  5  1  0  0  0  0
  3  6  1  0  0  0  0
 42 45  1  0  0  0  0
 42 46  1  0  0  0  0
 42 47  1  0  0  0  0
 11 14  1  0  0  0  0
 11 15  1  0  0  0  0
 11 16  1  0  0  0  0
 49 51  1  0  0  0  0
 49 52  1  0  0  0  0
 49 53  1  0  0  0  0
 21 31  1  0  0  0  0
 21 32  1  0  0  0  0
 39 44  1  0  0  0  0
  8 13  1  0  0  0  0
 18 30  1  0  0  0  0
 48 50  1  0  0  0  0
  7 12  1  0  0  0  0
 38 43  1  0  0  0  0
 17 29  1  0  0  0  0
 28 37  1  0  0  0  0
M  END
$$$$

  -OEChem-05262214473D

 53 53  0     1  0  0  0  0  0999 V2000
   -1.9298    0.2574    3.9747 C   0  0  0  0  0  0  0  0  0  0  0  0
   -0.9825   -0.3573    3.4990 O   0  0  0  0  0  0  0  0  0  0  0  0
   -2.3617   -0.0250    5.3754 C   0  0  0  0  0  0  0  0  0  0  0  0
   -3.1214   -0.8213    5.4288 H   0  0  0  0  0  0  0  0  0  0  0  0
   -1.5305   -0.3726    6.0097 H   0  0  0  0  0  0  0  0  0  0  0  0
   -2.7997    0.8299    5.9150 H   0  0  0  0  0  0  0  0  0  0  0  0
   -2.6795    1.2298    3.3336 N   0  0  0  0  0  0  0  0  0  0  0  0
   -2.4327    1.6559    1.9812 C   0  0  2  0  0  0  0  0  0  0  0  0
   -1.0977    1.0705    1.5400 C   0  0  0  0  0  0  0  0  0  0  0  0
   -0.2256    0.7177    2.3313 O   0  0  0  0  0  0  0  0  0  0  0  0
   -2.4239    3.1726    1.8718 C   0  0  0  0  0  0  0  0  0  0  0  0
   -3.4446    1.6657    3.8454 H   0  0  0  0  0  0  0  0  0  0  0  0
   -3.2368    1.2374    1.3661 H   0  0  0  0  0  0  0  0  0  0  0  0
   -1.6248    3.6099    2.4815 H   0  0  0  0  0  0  0  0  0  0  0  0
   -2.2644    3.4949    0.8375 H   0  0  0  0  0  0  0  0  0  0  0  0
   -3.3741    3.5939    2.2175 H   0  0  0  0  0  0  0  0  0  0  0  0
   -0.9750    1.0274    0.1566 N   0  0  0  0  0  0  0  0  0  0  0  0
    0.2023    0.5266   -0.5070 C   0  0  2  0  0  0  0  0  0  0  0  0
    0.1272    0.9790   -1.9609 C   0  0  0  0  0  0  0  0  0  0  0  0
    0.6343    2.0238   -2.3636 O   0  0  0  0  0  0  0  0  0  0  0  0
    0.3053   -1.0010   -0.4289 C   0  0  0  0  0  0  0  0  0  0  0  0
    0.5391   -1.4990    0.9765 C   0  0  0  0  0  0  0  0  0  0  0  0
    1.8243   -1.4804    1.5184 C   0  0  0  0  0  0  0  0  0  0  0  0
   -0.5300   -1.9786    1.7332 C   0  0  0  0  0  0  0  0  0  0  0  0
    2.0403   -1.9412    2.8171 C   0  0  0  0  0  0  0  0  0  0  0  0
   -0.3140   -2.4395    3.0318 C   0  0  0  0  0  0  0  0  0  0  0  0
    0.9711   -2.4208    3.5738 C   0  0  0  0  0  0  0  0  0  0  0  0
    1.1823   -2.8717    4.8406 O   0  0  0  0  0  0  0  0  0  0  0  0
   -1.7582    1.3241   -0.4207 H   0  0  0  0  0  0  0  0  0  0  0  0
    1.0612    1.0083   -0.0252 H   0  0  0  0  0  0  0  0  0  0  0  0
    1.1072   -1.3623   -1.0870 H   0  0  0  0  0  0  0  0  0  0  0  0
   -0.6125   -1.4673   -0.8107 H   0  0  0  0  0  0  0  0  0  0  0  0
    2.6630   -1.1084    0.9361 H   0  0  0  0  0  0  0  0  0  0  0  0
   -1.5349   -1.9967    1.3190 H   0  0  0  0  0  0  0  0  0  0  0  0
    3.0439   -1.9244    3.2337 H   0  0  0  0  0  0  0  0  0  0  0  0
   -1.1508   -2.8121    3.6159 H   0  0  0  0  0  0  0  0  0  0  0  0
    0.3473   -3.1704    5.2348 H   0  0  0  0  0  0  0  0  0  0  0  0
   -0.5290    0.0531   -2.7600 N   0  0  0  0  0  0  0  0  0  0  0  0
   -0.7182    0.2252   -4.1825 C   0  0  2  0  0  0  0  0  0  0  0  0
   -1.2969    1.6146   -4.4152 C   0  0  0  0  0  0  0  0  0  0  0  0
   -1.9021    2.2429   -3.5491 O   0  0  0  0  0  0  0  0  0  0  0  0
   -1.6332   -0.8473   -4.7527 C   0  0  0  0  0  0  0  0  0  0  0  0
   -0.8946   -0.7879   -2.3231 H   0  0  0  0  0  0  0  0  0  0  0  0
    0.2734    0.1600   -4.6436 H   0  0  0  0  0  0  0  0  0  0  0  0
   -2.6314   -0.7977   -4.3026 H   0  0  0  0  0  0  0  0  0  0  0  0
   -1.7527   -0.7325   -5.8351 H   0  0  0  0  0  0  0  0  0  0  0  0
   -1.2303   -1.8471   -4.5583 H   0  0  0  0  0  0  0  0  0  0  0  0
   -1.0957    2.0524   -5.7167 N   0  0  0  0  0  0  0  0  0  0  0  0
   -1.5634    3.3347   -6.1890 C   0  0  0  0  0  0  0  0  0  0  0  0
   -0.5668    1.4737   -6.3625 H   0  0  0  0  0  0  0  0  0  0  0  0
   -2.5624    3.2197   -6.6348 H   0  0  0  0  0  0  0  0  0  0  0  0
   -1.6172    4.0386   -5.3454 H   0  0  0  0  0  0  0  0  0  0  0  0
   -0.8665    3.7228   -6.9464 H   0  0  0  0  0  0  0  0  0  0  0  0
 23 25  2  0  0  0  0
 22 23  1  0  0  0  0
 24 26  1  0  0  0  0
 22 24  2  0  0  0  0
 25 27  1  0  0  0  0
 26 27  2  0  0  0  0
 21 22  1  0  0  0  0
 27 28  1  0  0  0  0
  1  3  1  0  0  0  0
  1  7  1  0  0  0  0
  1  2  2  0  0  0  0
 39 40  1  0  0  0  0
 40 48  1  0  0  0  0
 40 41  2  0  0  0  0
  8  9  1  0  0  0  0
  9 17  1  0  0  0  0
  9 10  2  0  0  0  0
 18 19  1  0  0  0  0
 19 38  1  0  0  0  0
 19 20  2  0  0  0  0
 39 42  1  0  0  0  0
  8 11  1  0  0  0  0
 48 49  1  0  0  0  0
 18 21  1  0  0  0  0
 38 39  1  0  0  0  0
  7  8  1  0  0  0  0
 17 18  1  0  0  0  0
 23 33  1  0  0  0  0
 24 34  1  0  0  0  0
 25 35  1  0  0  0  0
 26 36  1  0  0  0  0
  3  4  1  0  0  0  0
  3  5  1  0  0  0  0
  3  6  1  0  0  0  0
 42 45  1  0  0  0  0
 42 46  1  0  0  0  0
 42 47  1  0  0  0  0
 11 14  1  0  0  0  0
 11 15  1  0  0  0  0
 11 16  1  0  0  0  0
 49 51  1  0  0  0  0
 49 52  1  0  0  0  0
 49 53  1  0  0  0  0
 21 31  1  0  0  0  0
 21 32  1  0  0  0  0
 39 44  1  0  0  0  0
  8 13  1  0  0  0  0
 18 30  1  0  0  0  0
 48 50  1  0  0  0  0
  7 12  1  0  0  0  0
 38 43  1  0  0  0  0
 17 29  1  0  0  0  0
 28 37  1  0  0  0  0
M  END
$$$$

  -OEChem-05262214473D

 53 53  0     1  0  0  0  0  0999 V2000
   -1.9298    0.2574    3.9747 C   0  0  0  0  0  0  0  0  0  0  0  0
   -0.9825   -0.3573    3.4990 O   0  0  0  0  0  0  0  0  0  0  0  0
   -2.3617   -0.0250    5.3754 C   0  0  0  0  0  0  0  0  0  0  0  0
   -3.1214   -0.8213    5.4288 H   0  0  0  0  0  0  0  0  0  0  0  0
   -1.5305   -0.3726    6.0097 H   0  0  0  0  0  0  0  0  0  0  0  0
   -2.7997    0.8299    5.9150 H   0  0  0  0  0  0  0  0  0  0  0  0
   -2.6795    1.2298    3.3336 N   0  0  0  0  0  0  0  0  0  0  0  0
   -2.4327    1.6559    1.9812 C   0  0  2  0  0  0  0  0  0  0  0  0
   -1.0977    1.0705    1.5400 C   0  0  0  0  0  0  0  0  0  0  0  0
   -0.2256    0.7177    2.3313 O   0  0  0  0  0  0  0  0  0  0  0  0
   -2.4239    3.1726    1.8718 C   0  0  0  0  0  0  0  0  0  0  0  0
   -3.4446    1.6657    3.8454 H   0  0  0  0  0  0  0  0  0  0  0  0
   -3.2368    1.2374    1.3661 H   0  0  0  0  0  0  0  0  0  0  0  0
   -1.6248    3.6099    2.4815 H   0  0  0  0  0  0  0  0  0  0  0  0
   -2.2644    3.4949    0.8375 H   0  0  0  0  0  0  0  0  0  0  0  0
   -3.3741    3.5939    2.2175 H   0  0  0  0  0  0  0  0  0  0  0  0
   -0.9750    1.0274    0.1566 N   0  0  0  0  0  0  0  0  0  0  0  0
    0.2023    0.5266   -0.5070 C   0  0  2  0  0  0  0  0  0  0  0  0
    0.1272    0.9790   -1.9609 C   0  0  0  0  0  0  0  0  0  0  0  0
    0.8428    1.8647   -2.4239 O   0  0  0  0  0  0  0  0  0  0  0  0
    0.3053   -1.0010   -0.4289 C   0  0  0  0  0  0  0  0  0  0  0  0
    0.5391   -1.4990    0.9765 C   0  0  0  0  0  0  0  0  0  0  0  0
    1.8243   -1.4804    1.5184 C   0  0  0  0  0  0  0  0  0  0  0  0
   -0.5300   -1.9786    1.7332 C   0  0  0  0  0  0  0  0  0  0  0  0
    2.0403   -1.9412    2.8171 C   0  0  0  0  0  0  0  0  0  0  0  0
   -0.3140   -2.4395    3.0318 C   0  0  0  0  0  0  0  0  0  0  0  0
    0.9711   -2.4208    3.5738 C   0  0  0  0  0  0  0  0  0  0  0  0
    1.1823   -2.8717    4.8406 O   0  0  0  0  0  0  0  0  0  0  0  0
   -1.7582    1.3241   -0.4207 H   0  0  0  0  0  0  0  0  0  0  0  0
    1.0612    1.0083   -0.0252 H   0  0  0  0  0  0  0  0  0  0  0  0
    1.1072   -1.3623   -1.0870 H   0  0  0  0  0  0  0  0  0  0  0  0
   -0.6125   -1.4673   -0.8107 H   0  0  0  0  0  0  0  0  0  0  0  0
    2.6630   -1.1084    0.9361 H   0  0  0  0  0  0  0  0  0  0  0  0
   -1.5349   -1.9967    1.3190 H   0  0  0  0  0  0  0  0  0  0  0  0
    3.0439   -1.9244    3.2337 H   0  0  0  0  0  0  0  0  0  0  0  0
   -1.1508   -2.8121    3.6159 H   0  0  0  0  0  0  0  0  0  0  0  0
    0.3473   -3.1704    5.2348 H   0  0  0  0  0  0  0  0  0  0  0  0
   -0.7974    0.2417   -2.6875 N   0  0  0  0  0  0  0  0  0  0  0  0
   -1.0493    0.4508   -4.0952 C   0  0  2  0  0  0  0  0  0  0  0  0
   -1.2844    1.9394   -4.3148 C   0  0  0  0  0  0  0  0  0  0  0  0
   -1.6463    2.7006   -3.4199 O   0  0  0  0  0  0  0  0  0  0  0  0
   -2.2421   -0.3638   -4.5708 C   0  0  0  0  0  0  0  0  0  0  0  0
   -1.3235   -0.4814   -2.2056 H   0  0  0  0  0  0  0  0  0  0  0  0
   -0.1437    0.1410   -4.6280 H   0  0  0  0  0  0  0  0  0  0  0  0
   -3.1589   -0.0675   -4.0481 H   0  0  0  0  0  0  0  0  0  0  0  0
   -2.4141   -0.2263   -5.6435 H   0  0  0  0  0  0  0  0  0  0  0  0
   -2.0839   -1.4316   -4.3849 H   0  0  0  0  0  0  0  0  0  0  0  0
   -1.0842    2.3099   -5.6372 N   0  0  0  0  0  0  0  0  0  0  0  0
   -1.2572    3.6665   -6.1015 C   0  0  0  0  0  0  0  0  0  0  0  0
   -0.7665    1.6163   -6.3078 H   0  0  0  0  0  0  0  0  0  0  0  0
   -2.2855    3.8009   -6.4683 H   0  0  0  0  0  0  0  0  0  0  0  0
   -1.0696    4.3645   -5.2723 H   0  0  0  0  0  0  0  0  0  0  0  0
   -0.5477    3.8678   -6.9177 H   0  0  0  0  0  0  0  0  0  0  0  0
 23 25  2  0  0  0  0
 22 23  1  0  0  0  0
 24 26  1  0  0  0  0
 22 24  2  0  0  0  0
 25 27  1  0  0  0  0
 26 27  2  0  0  0  0
 21 22  1  0  0  0  0
 27 28  1  0  0  0  0
  1  3  1  0  0  0  0
  1  7  1  0  0  0  0
  1  2  2  0  0  0  0
 39 40  1  0  0  0  0
 40 48  1  0  0  0  0
 40 41  2  0  0  0  0
  8  9  1  0  0  0  0
  9 17  1  0  0  0  0
  9 10  2  0  0  0  0
 18 19  1  0  0  0  0
 19 38  1  0  0  0  0
 19 20  2  0  0  0  0
 39 42  1  0  0  0  0
  8 11  1  0  0  0  0
 48 49  1  0  0  0  0
 18 21  1  0  0  0  0
 38 39  1  0  0  0  0
  7  8  1  0  0  0  0
 17 18  1  0  0  0  0
 23 33  1  0  0  0  0
 24 34  1  0  0  0  0
 25 35  1  0  0  0  0
 26 36  1  0  0  0  0
  3  4  1  0  0  0  0
  3  5  1  0  0  0  0
  3  6  1  0  0  0  0
 42 45  1  0  0  0  0
 42 46  1  0  0  0  0
 42 47  1  0  0  0  0
 11 14  1  0  0  0  0
 11 15  1  0  0  0  0
 11 16  1  0  0  0  0
 49 51  1  0  0  0  0
 49 52  1  0  0  0  0
 49 53  1  0  0  0  0
 21 31  1  0  0  0  0
 21 32  1  0  0  0  0
 39 44  1  0  0  0  0
  8 13  1  0  0  0  0
 18 30  1  0  0  0  0
 48 50  1  0  0  0  0
  7 12  1  0  0  0  0
 38 43  1  0  0  0  0
 17 29  1  0  0  0  0
 28 37  1  0  0  0  0
M  END
$$$$

  -OEChem-05262214473D

 53 53  0     1  0  0  0  0  0999 V2000
   -1.9298    0.2574    3.9747 C   0  0  0  0  0  0  0  0  0  0  0  0
   -0.9825   -0.3573    3.4990 O   0  0  0  0  0  0  0  0  0  0  0  0
   -2.3617   -0.0250    5.3754 C   0  0  0  0  0  0  0  0  0  0  0  0
   -3.1214   -0.8213    5.4288 H   0  0  0  0  0  0  0  0  0  0  0  0
   -1.5305   -0.3726    6.0097 H   0  0  0  0  0  0  0  0  0  0  0  0
   -2.7997    0.8299    5.9150 H   0  0  0  0  0  0  0  0  0  0  0  0
   -2.6795    1.2298    3.3336 N   0  0  0  0  0  0  0  0  0  0  0  0
   -2.4327    1.6559    1.9812 C   0  0  2  0  0  0  0  0  0  0  0  0
   -1.0977    1.0705    1.5400 C   0  0  0  0  0  0  0  0  0  0  0  0
   -0.2256    0.7177    2.3313 O   0  0  0  0  0  0  0  0  0  0  0  0
   -2.4239    3.1726    1.8718 C   0  0  0  0  0  0  0  0  0  0  0  0
   -3.4446    1.6657    3.8454 H   0  0  0  0  0  0  0  0  0  0  0  0
   -3.2368    1.2374    1.3661 H   0  0  0  0  0  0  0  0  0  0  0  0
   -1.6248    3.6099    2.4815 H   0  0  0  0  0  0  0  0  0  0  0  0
   -2.2644    3.4949    0.8375 H   0  0  0  0  0  0  0  0  0  0  0  0
   -3.3741    3.5939    2.2175 H   0  0  0  0  0  0  0  0  0  0  0  0
   -0.9750    1.0274    0.1566 N   0  0  0  0  0  0  0  0  0  0  0  0
    0.2023    0.5266   -0.5070 C   0  0  2  0  0  0  0  0  0  0  0  0
    0.1272    0.9790   -1.9609 C   0  0  0  0  0  0  0  0  0  0  0  0
    1.0004    1.6588   -2.4961 O   0  0  0  0  0  0  0  0  0  0  0  0
    0.3053   -1.0010   -0.4289 C   0  0  0  0  0  0  0  0  0  0  0  0
    0.5391   -1.4990    0.9765 C   0  0  0  0  0  0  0  0  0  0  0  0
    1.8243   -1.4804    1.5184 C   0  0  0  0  0  0  0  0  0  0  0  0
   -0.5300   -1.9786    1.7332 C   0  0  0  0  0  0  0  0  0  0  0  0
    2.0403   -1.9412    2.8171 C   0  0  0  0  0  0  0  0  0  0  0  0
   -0.3140   -2.4395    3.0318 C   0  0  0  0  0  0  0  0  0  0  0  0
    0.9711   -2.4208    3.5738 C   0  0  0  0  0  0  0  0  0  0  0  0
    1.1823   -2.8717    4.8406 O   0  0  0  0  0  0  0  0  0  0  0  0
   -1.7582    1.3241   -0.4207 H   0  0  0  0  0  0  0  0  0  0  0  0
    1.0612    1.0083   -0.0252 H   0  0  0  0  0  0  0  0  0  0  0  0
    1.1072   -1.3623   -1.0870 H   0  0  0  0  0  0  0  0  0  0  0  0
   -0.6125   -1.4673   -0.8107 H   0  0  0  0  0  0  0  0  0  0  0  0
    2.6630   -1.1084    0.9361 H   0  0  0  0  0  0  0  0  0  0  0  0
   -1.5349   -1.9967    1.3190 H   0  0  0  0  0  0  0  0  0  0  0  0
    3.0439   -1.9244    3.2337 H   0  0  0  0  0  0  0  0  0  0  0  0
   -1.1508   -2.8121    3.6159 H   0  0  0  0  0  0  0  0  0  0  0  0
    0.3473   -3.1704    5.2348 H   0  0  0  0  0  0  0  0  0  0  0  0
   -1.0046    0.4910   -2.5992 N   0  0  0  0  0  0  0  0  0  0  0  0
   -1.3068    0.7516   -3.9883 C   0  0  2  0  0  0  0  0  0  0  0  0
   -1.1844    2.2514   -4.2228 C   0  0  0  0  0  0  0  0  0  0  0  0
   -1.2763    3.0812   -3.3205 O   0  0  0  0  0  0  0  0  0  0  0  0
   -2.6970    0.2558   -4.3545 C   0  0  0  0  0  0  0  0  0  0  0  0
   -1.6531   -0.0779   -2.0630 H   0  0  0  0  0  0  0  0  0  0  0  0
   -0.5500    0.2258   -4.5806 H   0  0  0  0  0  0  0  0  0  0  0  0
   -3.4686    0.7713   -3.7711 H   0  0  0  0  0  0  0  0  0  0  0  0
   -2.9134    0.4283   -5.4140 H   0  0  0  0  0  0  0  0  0  0  0  0
   -2.7926   -0.8173   -4.1572 H   0  0  0  0  0  0  0  0  0  0  0  0
   -1.0035    2.5568   -5.5646 N   0  0  0  0  0  0  0  0  0  0  0  0
   -0.8727    3.9126   -6.0448 C   0  0  0  0  0  0  0  0  0  0  0  0
   -0.9199    1.8041   -6.2415 H   0  0  0  0  0  0  0  0  0  0  0  0
   -1.8618    4.2959   -6.3361 H   0  0  0  0  0  0  0  0  0  0  0  0
   -0.4546    4.5451   -5.2478 H   0  0  0  0  0  0  0  0  0  0  0  0
   -0.2018    3.9296   -6.9164 H   0  0  0  0  0  0  0  0  0  0  0  0
 23 25  2  0  0  0  0
 22 23  1  0  0  0  0
 24 26  1  0  0  0  0
 22 24  2  0  0  0  0
 25 27  1  0  0  0  0
 26 27  2  0  0  0  0
 21 22  1  0  0  0  0
 27 28  1  0  0  0  0
  1  3  1  0  0  0  0
  1  7  1  0  0  0  0
  1  2  2  0  0  0  0
 39 40  1  0  0  0  0
 40 48  1  0  0  0  0
 40 41  2  0  0  0  0
  8  9  1  0  0  0  0
  9 17  1  0  0  0  0
  9 10  2  0  0  0  0
 18 19  1  0  0  0  0
 19 38  1  0  0  0  0
 19 20  2  0  0  0  0
 39 42  1  0  0  0  0
  8 11  1  0  0  0  0
 48 49  1  0  0  0  0
 18 21  1  0  0  0  0
 38 39  1  0  0  0  0
  7  8  1  0  0  0  0
 17 18  1  0  0  0  0
 23 33  1  0  0  0  0
 24 34  1  0  0  0  0
 25 35  1  0  0  0  0
 26 36  1  0  0  0  0
  3  4  1  0  0  0  0
  3  5  1  0  0  0  0
  3  6  1  0  0  0  0
 42 45  1  0  0  0  0
 42 46  1  0  0  0  0
 42 47  1  0  0  0  0
 11 14  1  0  0  0  0
 11 15  1  0  0  0  0
 11 16  1  0  0  0  0
 49 51  1  0  0  0  0
 49 52  1  0  0  0  0
 49 53  1  0  0  0  0
 21 31  1  0  0  0  0
 21 32  1  0  0  0  0
 39 44  1  0  0  0  0
  8 13  1  0  0  0  0
 18 30  1  0  0  0  0
 48 50  1  0  0  0  0
  7 12  1  0  0  0  0
 38 43  1  0  0  0  0
 17 29  1  0  0  0  0
 28 37  1  0  0  0  0
M  END
$$$$

  -OEChem-05262214473D

 53 53  0     1  0  0  0  0  0999 V2000
   -1.9298    0.2574    3.9747 C   0  0  0  0  0  0  0  0  0  0  0  0
   -0.9825   -0.3573    3.4990 O   0  0  0  0  0  0  0  0  0  0  0  0
   -2.3617   -0.0250    5.3754 C   0  0  0  0  0  0  0  0  0  0  0  0
   -3.1214   -0.8213    5.4288 H   0  0  0  0  0  0  0  0  0  0  0  0
   -1.5305   -0.3726    6.0097 H   0  0  0  0  0  0  0  0  0  0  0  0
   -2.7997    0.8299    5.9150 H   0  0  0  0  0  0  0  0  0  0  0  0
   -2.6795    1.2298    3.3336 N   0  0  0  0  0  0  0  0  0  0  0  0
   -2.4327    1.6559    1.9812 C   0  0  2  0  0  0  0  0  0  0  0  0
   -1.0977    1.0705    1.5400 C   0  0  0  0  0  0  0  0  0  0  0  0
   -0.2256    0.7177    2.3313 O   0  0  0  0  0  0  0  0  0  0  0  0
   -2.4239    3.1726    1.8718 C   0  0  0  0  0  0  0  0  0  0  0  0
   -3.4446    1.6657    3.8454 H   0  0  0  0  0  0  0  0  0  0  0  0
   -3.2368    1.2374    1.3661 H   0  0  0  0  0  0  0  0  0  0  0  0
   -1.6248    3.6099    2.4815 H   0  0  0  0  0  0  0  0  0  0  0  0
   -2.2644    3.4949    0.8375 H   0  0  0  0  0  0  0  0  0  0  0  0
   -3.3741    3.5939    2.2175 H   0  0  0  0  0  0  0  0  0  0  0  0
   -0.9750    1.0274    0.1566 N   0  0  0  0  0  0  0  0  0  0  0  0
    0.2023    0.5266   -0.5070 C   0  0  2  0  0  0  0  0  0  0  0  0
    0.1272    0.9790   -1.9609 C   0  0  0  0  0  0  0  0  0  0  0  0
    1.0962    1.4200   -2.5753 O   0  0  0  0  0  0  0  0  0  0  0  0
    0.3053   -1.0010   -0.4289 C   0  0  0  0  0  0  0  0  0  0  0  0
    0.5391   -1.4990    0.9765 C   0  0  0  0  0  0  0  0  0  0  0  0
    1.8243   -1.4804    1.5184 C   0  0  0  0  0  0  0  0  0  0  0  0
   -0.5300   -1.9786    1.7332 C   0  0  0  0  0  0  0  0  0  0  0  0
    2.0403   -1.9412    2.8171 C   0  0  0  0  0  0  0  0  0  0  0  0
   -0.3140   -2.4395    3.0318 C   0  0  0  0  0  0  0  0  0  0  0  0
    0.9711   -2.4208    3.5738 C   0  0  0  0  0  0  0  0  0  0  0  0
    1.1823   -2.8717    4.8406 O   0  0  0  0  0  0  0  0  0  0  0  0
   -1.7582    1.3241   -0.4207 H   0  0  0  0  0  0  0  0  0  0  0  0
    1.0612    1.0083   -0.0252 H   0  0  0  0  0  0  0  0  0  0  0  0
    1.1072   -1.3623   -1.0870 H   0  0  0  0  0  0  0  0  0  0  0  0
   -0.6125   -1.4673   -0.8107 H   0  0  0  0  0  0  0  0  0  0  0  0
    2.6630   -1.1084    0.9361 H   0  0  0  0  0  0  0  0  0  0  0  0
   -1.5349   -1.9967    1.3190 H   0  0  0  0  0  0  0  0  0  0  0  0
    3.0439   -1.9244    3.2337 H   0  0  0  0  0  0  0  0  0  0  0  0
   -1.1508   -2.8121    3.6159 H   0  0  0  0  0  0  0  0  0  0  0  0
    0.3473   -3.1704    5.2348 H   0  0  0  0  0  0  0  0  0  0  0  0
   -1.1364    0.7841   -2.5012 N   0  0  0  0  0  0  0  0  0  0  0  0
   -1.4730    1.1071   -3.8691 C   0  0  2  0  0  0  0  0  0  0  0  0
   -1.0037    2.5293   -4.1457 C   0  0  0  0  0  0  0  0  0  0  0  0
   -0.8174    3.3588   -3.2579 O   0  0  0  0  0  0  0  0  0  0  0  0
   -2.9668    0.9694   -4.1186 C   0  0  0  0  0  0  0  0  0  0  0  0
   -1.8609    0.3949   -1.9052 H   0  0  0  0  0  0  0  0  0  0  0  0
   -0.9180    0.4086   -4.5047 H   0  0  0  0  0  0  0  0  0  0  0  0
   -3.5395    1.6615   -3.4905 H   0  0  0  0  0  0  0  0  0  0  0  0
   -3.2165    1.1867   -5.1623 H   0  0  0  0  0  0  0  0  0  0  0  0
   -3.3081   -0.0461   -3.8906 H   0  0  0  0  0  0  0  0  0  0  0  0
   -0.8589    2.7762   -5.5037 N   0  0  0  0  0  0  0  0  0  0  0  0
   -0.4363    4.0561   -6.0227 C   0  0  0  0  0  0  0  0  0  0  0  0
   -1.0167    2.0242   -6.1680 H   0  0  0  0  0  0  0  0  0  0  0  0
   -1.3201    4.6713   -6.2473 H   0  0  0  0  0  0  0  0  0  0  0  0
    0.1859    4.5680   -5.2738 H   0  0  0  0  0  0  0  0  0  0  0  0
    0.1477    3.9040   -6.9424 H   0  0  0  0  0  0  0  0  0  0  0  0
 23 25  2  0  0  0  0
 22 23  1  0  0  0  0
 24 26  1  0  0  0  0
 22 24  2  0  0  0  0
 25 27  1  0  0  0  0
 26 27  2  0  0  0  0
 21 22  1  0  0  0  0
 27 28  1  0  0  0  0
  1  3  1  0  0  0  0
  1  7  1  0  0  0  0
  1  2  2  0  0  0  0
 39 40  1  0  0  0  0
 40 48  1  0  0  0  0
 40 41  2  0  0  0  0
  8  9  1  0  0  0  0
  9 17  1  0  0  0  0
  9 10  2  0  0  0  0
 18 19  1  0  0  0  0
 19 38  1  0  0  0  0
 19 20  2  0  0  0  0
 39 42  1  0  0  0  0
  8 11  1  0  0  0  0
 48 49  1  0  0  0  0
 18 21  1  0  0  0  0
 38 39  1  0  0  0  0
  7  8  1  0  0  0  0
 17 18  1  0  0  0  0
 23 33  1  0  0  0  0
 24 34  1  0  0  0  0
 25 35  1  0  0  0  0
 26 36  1  0  0  0  0
  3  4  1  0  0  0  0
  3  5  1  0  0  0  0
  3  6  1  0  0  0  0
 42 45  1  0  0  0  0
 42 46  1  0  0  0  0
 42 47  1  0  0  0  0
 11 14  1  0  0  0  0
 11 15  1  0  0  0  0
 11 16  1  0  0  0  0
 49 51  1  0  0  0  0
 49 52  1  0  0  0  0
 49 53  1  0  0  0  0
 21 31  1  0  0  0  0
 21 32  1  0  0  0  0
 39 44  1  0  0  0  0
  8 13  1  0  0  0  0
 18 30  1  0  0  0  0
 48 50  1  0  0  0  0
  7 12  1  0  0  0  0
 38 43  1  0  0  0  0
 17 29  1  0  0  0  0
 28 37  1  0  0  0  0
M  END
$$$$

  -OEChem-05262214473D

 53 53  0     1  0  0  0  0  0999 V2000
   -1.9298    0.2574    3.9747 C   0  0  0  0  0  0  0  0  0  0  0  0
   -0.9825   -0.3573    3.4990 O   0  0  0  0  0  0  0  0  0  0  0  0
   -2.3617   -0.0250    5.3754 C   0  0  0  0  0  0  0  0  0  0  0  0
   -3.1214   -0.8213    5.4288 H   0  0  0  0  0  0  0  0  0  0  0  0
   -1.5305   -0.3726    6.0097 H   0  0  0  0  0  0  0  0  0  0  0  0
   -2.7997    0.8299    5.9150 H   0  0  0  0  0  0  0  0  0  0  0  0
   -2.6795    1.2298    3.3336 N   0  0  0  0  0  0  0  0  0  0  0  0
   -2.4327    1.6559    1.9812 C   0  0  2  0  0  0  0  0  0  0  0  0
   -1.0977    1.0705    1.5400 C   0  0  0  0  0  0  0  0  0  0  0  0
   -0.2256    0.7177    2.3313 O   0  0  0  0  0  0  0  0  0  0  0  0
   -2.4239    3.1726    1.8718 C   0  0  0  0  0  0  0  0  0  0  0  0
   -3.4446    1.6657    3.8454 H   0  0  0  0  0  0  0  0  0  0  0  0
   -3.2368    1.2374    1.3661 H   0  0  0  0  0  0  0  0  0  0  0  0
   -1.6248    3.6099    2.4815 H   0  0  0  0  0  0  0  0  0  0  0  0
   -2.2644    3.4949    0.8375 H   0  0  0  0  0  0  0  0  0  0  0  0
   -3.3741    3.5939    2.2175 H   0  0  0  0  0  0  0  0  0  0  0  0
   -0.9750    1.0274    0.1566 N   0  0  0  0  0  0  0  0  0  0  0  0
    0.2023    0.5266   -0.5070 C   0  0  2  0  0  0  0  0  0  0  0  0
    0.1272    0.9790   -1.9609 C   0  0  0  0  0  0  0  0  0  0  0  0
    1.1237    1.1648   -2.6562 O   0  0  0  0  0  0  0  0  0  0  0  0
    0.3053   -1.0010   -0.4289 C   0  0  0  0  0  0  0  0  0  0  0  0
    0.5391   -1.4990    0.9765 C   0  0  0  0  0  0  0  0  0  0  0  0
    1.8243   -1.4804    1.5184 C   0  0  0  0  0  0  0  0  0  0  0  0
   -0.5300   -1.9786    1.7332 C   0  0  0  0  0  0  0  0  0  0  0  0
    2.0403   -1.9412    2.8171 C   0  0  0  0  0  0  0  0  0  0  0  0
   -0.3140   -2.4395    3.0318 C   0  0  0  0  0  0  0  0  0  0  0  0
    0.9711   -2.4208    3.5738 C   0  0  0  0  0  0  0  0  0  0  0  0
    1.1823   -2.8717    4.8406 O   0  0  0  0  0  0  0  0  0  0  0  0
   -1.7582    1.3241   -0.4207 H   0  0  0  0  0  0  0  0  0  0  0  0
    1.0612    1.0083   -0.0252 H   0  0  0  0  0  0  0  0  0  0  0  0
    1.1072   -1.3623   -1.0870 H   0  0  0  0  0  0  0  0  0  0  0  0
   -0.6125   -1.4673   -0.8107 H   0  0  0  0  0  0  0  0  0  0  0  0
    2.6630   -1.1084    0.9361 H   0  0  0  0  0  0  0  0  0  0  0  0
   -1.5349   -1.9967    1.3190 H   0  0  0  0  0  0  0  0  0  0  0  0
    3.0439   -1.9244    3.2337 H   0  0  0  0  0  0  0  0  0  0  0  0
   -1.1508   -2.8121    3.6159 H   0  0  0  0  0  0  0  0  0  0  0  0
    0.3473   -3.1704    5.2348 H   0  0  0  0  0  0  0  0  0  0  0  0
   -1.1838    1.1010   -2.4001 N   0  0  0  0  0  0  0  0  0  0  0  0
   -1.5367    1.4930   -3.7457 C   0  0  2  0  0  0  0  0  0  0  0  0
   -0.7547    2.7541   -4.0886 C   0  0  0  0  0  0  0  0  0  0  0  0
   -0.3007    3.5144   -3.2361 O   0  0  0  0  0  0  0  0  0  0  0  0
   -3.0332    1.7283   -3.8790 C   0  0  0  0  0  0  0  0  0  0  0  0
   -1.9329    0.9050   -1.7427 H   0  0  0  0  0  0  0  0  0  0  0  0
   -1.2224    0.6769   -4.4055 H   0  0  0  0  0  0  0  0  0  0  0  0
   -3.3667    2.5425   -3.2253 H   0  0  0  0  0  0  0  0  0  0  0  0
   -3.3027    1.9973   -4.9056 H   0  0  0  0  0  0  0  0  0  0  0  0
   -3.5952    0.8294   -3.6033 H   0  0  0  0  0  0  0  0  0  0  0  0
   -0.6605    2.9533   -5.4589 N   0  0  0  0  0  0  0  0  0  0  0  0
    0.0224    4.0873   -6.0367 C   0  0  0  0  0  0  0  0  0  0  0  0
   -1.0502    2.2616   -6.0924 H   0  0  0  0  0  0  0  0  0  0  0  0
   -0.6975    4.9012   -6.2078 H   0  0  0  0  0  0  0  0  0  0  0  0
    0.8082    4.4317   -5.3483 H   0  0  0  0  0  0  0  0  0  0  0  0
    0.4769    3.7926   -6.9940 H   0  0  0  0  0  0  0  0  0  0  0  0
 23 25  2  0  0  0  0
 22 23  1  0  0  0  0
 24 26  1  0  0  0  0
 22 24  2  0  0  0  0
 25 27  1  0  0  0  0
 26 27  2  0  0  0  0
 21 22  1  0  0  0  0
 27 28  1  0  0  0  0
  1  3  1  0  0  0  0
  1  7  1  0  0  0  0
  1  2  2  0  0  0  0
 39 40  1  0  0  0  0
 40 48  1  0  0  0  0
 40 41  2  0  0  0  0
  8  9  1  0  0  0  0
  9 17  1  0  0  0  0
  9 10  2  0  0  0  0
 18 19  1  0  0  0  0
 19 38  1  0  0  0  0
 19 20  2  0  0  0  0
 39 42  1  0  0  0  0
  8 11  1  0  0  0  0
 48 49  1  0  0  0  0
 18 21  1  0  0  0  0
 38 39  1  0  0  0  0
  7  8  1  0  0  0  0
 17 18  1  0  0  0  0
 23 33  1  0  0  0  0
 24 34  1  0  0  0  0
 25 35  1  0  0  0  0
 26 36  1  0  0  0  0
  3  4  1  0  0  0  0
  3  5  1  0  0  0  0
  3  6  1  0  0  0  0
 42 45  1  0  0  0  0
 42 46  1  0  0  0  0
 42 47  1  0  0  0  0
 11 14  1  0  0  0  0
 11 15  1  0  0  0  0
 11 16  1  0  0  0  0
 49 51  1  0  0  0  0
 49 52  1  0  0  0  0
 49 53  1  0  0  0  0
 21 31  1  0  0  0  0
 21 32  1  0  0  0  0
 39 44  1  0  0  0  0
  8 13  1  0  0  0  0
 18 30  1  0  0  0  0
 48 50  1  0  0  0  0
  7 12  1  0  0  0  0
 38 43  1  0  0  0  0
 17 29  1  0  0  0  0
 28 37  1  0  0  0  0
M  END
$$$$

  -OEChem-05262214473D

 53 53  0     1  0  0  0  0  0999 V2000
   -1.9298    0.2574    3.9747 C   0  0  0  0  0  0  0  0  0  0  0  0
   -0.9825   -0.3573    3.4990 O   0  0  0  0  0  0  0  0  0  0  0  0
   -2.3617   -0.0250    5.3754 C   0  0  0  0  0  0  0  0  0  0  0  0
   -3.1214   -0.8213    5.4288 H   0  0  0  0  0  0  0  0  0  0  0  0
   -1.5305   -0.3726    6.0097 H   0  0  0  0  0  0  0  0  0  0  0  0
   -2.7997    0.8299    5.9150 H   0  0  0  0  0  0  0  0  0  0  0  0
   -2.6795    1.2298    3.3336 N   0  0  0  0  0  0  0  0  0  0  0  0
   -2.4327    1.6559    1.9812 C   0  0  2  0  0  0  0  0  0  0  0  0
   -1.0977    1.0705    1.5400 C   0  0  0  0  0  0  0  0  0  0  0  0
   -0.2256    0.7177    2.3313 O   0  0  0  0  0  0  0  0  0  0  0  0
   -2.4239    3.1726    1.8718 C   0  0  0  0  0  0  0  0  0  0  0  0
   -3.4446    1.6657    3.8454 H   0  0  0  0  0  0  0  0  0  0  0  0
   -3.2368    1.2374    1.3661 H   0  0  0  0  0  0  0  0  0  0  0  0
   -1.6248    3.6099    2.4815 H   0  0  0  0  0  0  0  0  0  0  0  0
   -2.2644    3.4949    0.8375 H   0  0  0  0  0  0  0  0  0  0  0  0
   -3.3741    3.5939    2.2175 H   0  0  0  0  0  0  0  0  0  0  0  0
   -0.9750    1.0274    0.1566 N   0  0  0  0  0  0  0  0  0  0  0  0
    0.2023    0.5266   -0.5070 C   0  0  2  0  0  0  0  0  0  0  0  0
    0.1272    0.9790   -1.9609 C   0  0  0  0  0  0  0  0  0  0  0  0
    1.0811    0.9104   -2.7331 O   0  0  0  0  0  0  0  0  0  0  0  0
    0.3053   -1.0010   -0.4289 C   0  0  0  0  0  0  0  0  0  0  0  0
    0.5391   -1.4990    0.9765 C   0  0  0  0  0  0  0  0  0  0  0  0
    1.8243   -1.4804    1.5184 C   0  0  0  0  0  0  0  0  0  0  0  0
   -0.5300   -1.9786    1.7332 C   0  0  0  0  0  0  0  0  0  0  0  0
    2.0403   -1.9412    2.8171 C   0  0  0  0  0  0  0  0  0  0  0  0
   -0.3140   -2.4395    3.0318 C   0  0  0  0  0  0  0  0  0  0  0  0
    0.9711   -2.4208    3.5738 C   0  0  0  0  0  0  0  0  0  0  0  0
    1.1823   -2.8717    4.8406 O   0  0  0  0  0  0  0  0  0  0  0  0
   -1.7582    1.3241   -0.4207 H   0  0  0  0  0  0  0  0  0  0  0  0
    1.0612    1.0083   -0.0252 H   0  0  0  0  0  0  0  0  0  0  0  0
    1.1072   -1.3623   -1.0870 H   0  0  0  0  0  0  0  0  0  0  0  0
   -0.6125   -1.4673   -0.8107 H   0  0  0  0  0  0  0  0  0  0  0  0
    2.6630   -1.1084    0.9361 H   0  0  0  0  0  0  0  0  0  0  0  0
   -1.5349   -1.9967    1.3190 H   0  0  0  0  0  0  0  0  0  0  0  0
    3.0439   -1.9244    3.2337 H   0  0  0  0  0  0  0  0  0  0  0  0
   -1.1508   -2.8121    3.6159 H   0  0  0  0  0  0  0  0  0  0  0  0
    0.3473   -3.1704    5.2348 H   0  0  0  0  0  0  0  0  0  0  0  0
   -1.1436    1.4201   -2.3029 N   0  0  0  0  0  0  0  0  0  0  0  0
   -1.4935    1.8830   -3.6266 C   0  0  2  0  0  0  0  0  0  0  0  0
   -0.4543    2.9104   -4.0555 C   0  0  0  0  0  0  0  0  0  0  0  0
    0.2384    3.5376   -3.2567 O   0  0  0  0  0  0  0  0  0  0  0  0
   -2.8916    2.4807   -3.6522 C   0  0  0  0  0  0  0  0  0  0  0  0
   -1.8640    1.4174   -1.5868 H   0  0  0  0  0  0  0  0  0  0  0  0
   -1.4426    1.0125   -4.2897 H   0  0  0  0  0  0  0  0  0  0  0  0
   -2.9619    3.3541   -2.9936 H   0  0  0  0  0  0  0  0  0  0  0  0
   -3.1661    2.8049   -4.6614 H   0  0  0  0  0  0  0  0  0  0  0  0
   -3.6343    1.7496   -3.3150 H   0  0  0  0  0  0  0  0  0  0  0  0
   -0.4216    3.0760   -5.4330 N   0  0  0  0  0  0  0  0  0  0  0  0
    0.4720    4.0040   -6.0858 C   0  0  0  0  0  0  0  0  0  0  0  0
   -1.0182    2.5001   -6.0198 H   0  0  0  0  0  0  0  0  0  0  0  0
   -0.0363    4.9702   -6.2205 H   0  0  0  0  0  0  0  0  0  0  0  0
    1.3700    4.1455   -5.4663 H   0  0  0  0  0  0  0  0  0  0  0  0
    0.7635    3.6031   -7.0678 H   0  0  0  0  0  0  0  0  0  0  0  0
 23 25  2  0  0  0  0
 22 23  1  0  0  0  0
 24 26  1  0  0  0  0
 22 24  2  0  0  0  0
 25 27  1  0  0  0  0
 26 27  2  0  0  0  0
 21 22  1  0  0  0  0
 27 28  1  0  0  0  0
  1  3  1  0  0  0  0
  1  7  1  0  0  0  0
  1  2  2  0  0  0  0
 39 40  1  0  0  0  0
 40 48  1  0  0  0  0
 40 41  2  0  0  0  0
  8  9  1  0  0  0  0
  9 17  1  0  0  0  0
  9 10  2  0  0  0  0
 18 19  1  0  0  0  0
 19 38  1  0  0  0  0
 19 20  2  0  0  0  0
 39 42  1  0  0  0  0
  8 11  1  0  0  0  0
 48 49  1  0  0  0  0
 18 21  1  0  0  0  0
 38 39  1  0  0  0  0
  7  8  1  0  0  0  0
 17 18  1  0  0  0  0
 23 33  1  0  0  0  0
 24 34  1  0  0  0  0
 25 35  1  0  0  0  0
 26 36  1  0  0  0  0
  3  4  1  0  0  0  0
  3  5  1  0  0  0  0
  3  6  1  0  0  0  0
 42 45  1  0  0  0  0
 42 46  1  0  0  0  0
 42 47  1  0  0  0  0
 11 14  1  0  0  0  0
 11 15  1  0  0  0  0
 11 16  1  0  0  0  0
 49 51  1  0  0  0  0
 49 52  1  0  0  0  0
 49 53  1  0  0  0  0
 21 31  1  0  0  0  0
 21 32  1  0  0  0  0
 39 44  1  0  0  0  0
  8 13  1  0  0  0  0
 18 30  1  0  0  0  0
 48 50  1  0  0  0  0
  7 12  1  0  0  0  0
 38 43  1  0  0  0  0
 17 29  1  0  0  0  0
 28 37  1  0  0  0  0
M  END
$$$$

  -OEChem-05262214473D

 53 53  0     1  0  0  0  0  0999 V2000
   -1.9298    0.2574    3.9747 C   0  0  0  0  0  0  0  0  0  0  0  0
   -0.9825   -0.3573    3.4990 O   0  0  0  0  0  0  0  0  0  0  0  0
   -2.3617   -0.0250    5.3754 C   0  0  0  0  0  0  0  0  0  0  0  0
   -3.1214   -0.8213    5.4288 H   0  0  0  0  0  0  0  0  0  0  0  0
   -1.5305   -0.3726    6.0097 H   0  0  0  0  0  0  0  0  0  0  0  0
   -2.7997    0.8299    5.9150 H   0  0  0  0  0  0  0  0  0  0  0  0
   -2.6795    1.2298    3.3336 N   0  0  0  0  0  0  0  0  0  0  0  0
   -2.4327    1.6559    1.9812 C   0  0  2  0  0  0  0  0  0  0  0  0
   -1.0977    1.0705    1.5400 C   0  0  0  0  0  0  0  0  0  0  0  0
   -0.2256    0.7177    2.3313 O   0  0  0  0  0  0  0  0  0  0  0  0
   -2.4239    3.1726    1.8718 C   0  0  0  0  0  0  0  0  0  0  0  0
   -3.4446    1.6657    3.8454 H   0  0  0  0  0  0  0  0  0  0  0  0
   -3.2368    1.2374    1.3661 H   0  0  0  0  0  0  0  0  0  0  0  0
   -1.6248    3.6099    2.4815 H   0  0  0  0  0  0  0  0  0  0  0  0
   -2.2644    3.4949    0.8375 H   0  0  0  0  0  0  0  0  0  0  0  0
   -3.3741    3.5939    2.2175 H   0  0  0  0  0  0  0  0  0  0  0  0
   -0.9750    1.0274    0.1566 N   0  0  0  0  0  0  0  0  0  0  0  0
    0.2023    0.5266   -0.5070 C   0  0  2  0  0  0  0  0  0  0  0  0
    0.1272    0.9790   -1.9609 C   0  0  0  0  0  0  0  0  0  0  0  0
    0.9712    0.6742   -2.8010 O   0  0  0  0  0  0  0  0  0  0  0  0
    0.3053   -1.0010   -0.4289 C   0  0  0  0  0  0  0  0  0  0  0  0
    0.5391   -1.4990    0.9765 C   0  0  0  0  0  0  0  0  0  0  0  0
    1.8243   -1.4804    1.5184 C   0  0  0  0  0  0  0  0  0  0  0  0
   -0.5300   -1.9786    1.7332 C   0  0  0  0  0  0  0  0  0  0  0  0
    2.0403   -1.9412    2.8171 C   0  0  0  0  0  0  0  0  0  0  0  0
   -0.3140   -2.4395    3.0318 C   0  0  0  0  0  0  0  0  0  0  0  0
    0.9711   -2.4208    3.5738 C   0  0  0  0  0  0  0  0  0  0  0  0
    1.1823   -2.8717    4.8406 O   0  0  0  0  0  0  0  0  0  0  0  0
   -1.7582    1.3241   -0.4207 H   0  0  0  0  0  0  0  0  0  0  0  0
    1.0612    1.0083   -0.0252 H   0  0  0  0  0  0  0  0  0  0  0  0
    1.1072   -1.3623   -1.0870 H   0  0  0  0  0  0  0  0  0  0  0  0
   -0.6125   -1.4673   -0.8107 H   0  0  0  0  0  0  0  0  0  0  0  0
    2.6630   -1.1084    0.9361 H   0  0  0  0  0  0  0  0  0  0  0  0
   -1.5349   -1.9967    1.3190 H   0  0  0  0  0  0  0  0  0  0  0  0
    3.0439   -1.9244    3.2337 H   0  0  0  0  0  0  0  0  0  0  0  0
   -1.1508   -2.8121    3.6159 H   0  0  0  0  0  0  0  0  0  0  0  0
    0.3473   -3.1704    5.2348 H   0  0  0  0  0  0  0  0  0  0  0  0
   -1.0186    1.7196   -2.2162 N   0  0  0  0  0  0  0  0  0  0  0  0
   -1.3463    2.2506   -3.5198 C   0  0  2  0  0  0  0  0  0  0  0  0
   -0.1230    2.9877   -4.0485 C   0  0  0  0  0  0  0  0  0  0  0  0
    0.7633    3.4265   -3.3184 O   0  0  0  0  0  0  0  0  0  0  0  0
   -2.5517    3.1755   -3.4535 C   0  0  0  0  0  0  0  0  0  0  0  0
   -1.6590    1.8975   -1.4480 H   0  0  0  0  0  0  0  0  0  0  0  0
   -1.5636    1.3926   -4.1652 H   0  0  0  0  0  0  0  0  0  0  0  0
   -2.3528    4.0411   -2.8112 H   0  0  0  0  0  0  0  0  0  0  0  0
   -2.8161    3.5543   -4.4463 H   0  0  0  0  0  0  0  0  0  0  0  0
   -3.4228    2.6518   -3.0452 H   0  0  0  0  0  0  0  0  0  0  0  0
   -0.1587    3.1358   -5.4280 N   0  0  0  0  0  0  0  0  0  0  0  0
    0.8821    3.8120   -6.1667 C   0  0  0  0  0  0  0  0  0  0  0  0
   -0.9228    2.7236   -5.9552 H   0  0  0  0  0  0  0  0  0  0  0  0
    0.6185    4.8734   -6.2844 H   0  0  0  0  0  0  0  0  0  0  0  0
    1.8329    3.7289   -5.6199 H   0  0  0  0  0  0  0  0  0  0  0  0
    0.9878    3.3484   -7.1586 H   0  0  0  0  0  0  0  0  0  0  0  0
 23 25  2  0  0  0  0
 22 23  1  0  0  0  0
 24 26  1  0  0  0  0
 22 24  2  0  0  0  0
 25 27  1  0  0  0  0
 26 27  2  0  0  0  0
 21 22  1  0  0  0  0
 27 28  1  0  0  0  0
  1  3  1  0  0  0  0
  1  7  1  0  0  0  0
  1  2  2  0  0  0  0
 39 40  1  0  0  0  0
 40 48  1  0  0  0  0
 40 41  2  0  0  0  0
  8  9  1  0  0  0  0
  9 17  1  0  0  0  0
  9 10  2  0  0  0  0
 18 19  1  0  0  0  0
 19 38  1  0  0  0  0
 19 20  2  0  0  0  0
 39 42  1  0  0  0  0
  8 11  1  0  0  0  0
 48 49  1  0  0  0  0
 18 21  1  0  0  0  0
 38 39  1  0  0  0  0
  7  8  1  0  0  0  0
 17 18  1  0  0  0  0
 23 33  1  0  0  0  0
 24 34  1  0  0  0  0
 25 35  1  0  0  0  0
 26 36  1  0  0  0  0
  3  4  1  0  0  0  0
  3  5  1  0  0  0  0
  3  6  1  0  0  0  0
 42 45  1  0  0  0  0
 42 46  1  0  0  0  0
 42 47  1  0  0  0  0
 11 14  1  0  0  0  0
 11 15  1  0  0  0  0
 11 16  1  0  0  0  0
 49 51  1  0  0  0  0
 49 52  1  0  0  0  0
 49 53  1  0  0  0  0
 21 31  1  0  0  0  0
 21 32  1  0  0  0  0
 39 44  1  0  0  0  0
  8 13  1  0  0  0  0
 18 30  1  0  0  0  0
 48 50  1  0  0  0  0
  7 12  1  0  0  0  0
 38 43  1  0  0  0  0
 17 29  1  0  0  0  0
 28 37  1  0  0  0  0
M  END
$$$$

  -OEChem-05262214473D

 53 53  0     1  0  0  0  0  0999 V2000
   -1.9298    0.2574    3.9747 C   0  0  0  0  0  0  0  0  0  0  0  0
   -0.9825   -0.3573    3.4990 O   0  0  0  0  0  0  0  0  0  0  0  0
   -2.3617   -0.0250    5.3754 C   0  0  0  0  0  0  0  0  0  0  0  0
   -3.1214   -0.8213    5.4288 H   0  0  0  0  0  0  0  0  0  0  0  0
   -1.5305   -0.3726    6.0097 H   0  0  0  0  0  0  0  0  0  0  0  0
   -2.7997    0.8299    5.9150 H   0  0  0  0  0  0  0  0  0  0  0  0
   -2.6795    1.2298    3.3336 N   0  0  0  0  0  0  0  0  0  0  0  0
   -2.4327    1.6559    1.9812 C   0  0  2  0  0  0  0  0  0  0  0  0
   -1.0977    1.0705    1.5400 C   0  0  0  0  0  0  0  0  0  0  0  0
   -0.2256    0.7177    2.3313 O   0  0  0  0  0  0  0  0  0  0  0  0
   -2.4239    3.1726    1.8718 C   0  0  0  0  0  0  0  0  0  0  0  0
   -3.4446    1.6657    3.8454 H   0  0  0  0  0  0  0  0  0  0  0  0
   -3.2368    1.2374    1.3661 H   0  0  0  0  0  0  0  0  0  0  0  0
   -1.6248    3.6099    2.4815 H   0  0  0  0  0  0  0  0  0  0  0  0
   -2.2644    3.4949    0.8375 H   0  0  0  0  0  0  0  0  0  0  0  0
   -3.3741    3.5939    2.2175 H   0  0  0  0  0  0  0  0  0  0  0  0
   -0.9750    1.0274    0.1566 N   0  0  0  0  0  0  0  0  0  0  0  0
    0.2023    0.5266   -0.5070 C   0  0  2  0  0  0  0  0  0  0  0  0
    0.1272    0.9790   -1.9609 C   0  0  0  0  0  0  0  0  0  0  0  0
    0.8016    0.4723   -2.8550 O   0  0  0  0  0  0  0  0  0  0  0  0
    0.3053   -1.0010   -0.4289 C   0  0  0  0  0  0  0  0  0  0  0  0
    0.5391   -1.4990    0.9765 C   0  0  0  0  0  0  0  0  0  0  0  0
    1.8243   -1.4804    1.5184 C   0  0  0  0  0  0  0  0  0  0  0  0
   -0.5300   -1.9786    1.7332 C   0  0  0  0  0  0  0  0  0  0  0  0
    2.0403   -1.9412    2.8171 C   0  0  0  0  0  0  0  0  0  0  0  0
   -0.3140   -2.4395    3.0318 C   0  0  0  0  0  0  0  0  0  0  0  0
    0.9711   -2.4208    3.5738 C   0  0  0  0  0  0  0  0  0  0  0  0
    1.1823   -2.8717    4.8406 O   0  0  0  0  0  0  0  0  0  0  0  0
   -1.7582    1.3241   -0.4207 H   0  0  0  0  0  0  0  0  0  0  0  0
    1.0612    1.0083   -0.0252 H   0  0  0  0  0  0  0  0  0  0  0  0
    1.1072   -1.3623   -1.0870 H   0  0  0  0  0  0  0  0  0  0  0  0
   -0.6125   -1.4673   -0.8107 H   0  0  0  0  0  0  0  0  0  0  0  0
    2.6630   -1.1084    0.9361 H   0  0  0  0  0  0  0  0  0  0  0  0
   -1.5349   -1.9967    1.3190 H   0  0  0  0  0  0  0  0  0  0  0  0
    3.0439   -1.9244    3.2337 H   0  0  0  0  0  0  0  0  0  0  0  0
   -1.1508   -2.8121    3.6159 H   0  0  0  0  0  0  0  0  0  0  0  0
    0.3473   -3.1704    5.2348 H   0  0  0  0  0  0  0  0  0  0  0  0
   -0.8172    1.9792   -2.1458 N   0  0  0  0  0  0  0  0  0  0  0  0
   -1.1052    2.5707   -3.4326 C   0  0  2  0  0  0  0  0  0  0  0  0
    0.2167    2.9807   -4.0682 C   0  0  0  0  0  0  0  0  0  0  0  0
    1.2381    3.1890   -3.4168 O   0  0  0  0  0  0  0  0  0  0  0  0
   -2.0366    3.7652   -3.2966 C   0  0  0  0  0  0  0  0  0  0  0  0
   -1.3318    2.3123   -1.3358 H   0  0  0  0  0  0  0  0  0  0  0  0
   -1.5771    1.7911   -4.0405 H   0  0  0  0  0  0  0  0  0  0  0  0
   -1.5809    4.5567   -2.6906 H   0  0  0  0  0  0  0  0  0  0  0  0
   -2.2766    4.1946   -4.2749 H   0  0  0  0  0  0  0  0  0  0  0  0
   -2.9750    3.4745   -2.8123 H   0  0  0  0  0  0  0  0  0  0  0  0
    0.1105    3.1287   -5.4441 N   0  0  0  0  0  0  0  0  0  0  0  0
    1.2245    3.5242   -6.2739 C   0  0  0  0  0  0  0  0  0  0  0  0
   -0.7705    2.9167   -5.9029 H   0  0  0  0  0  0  0  0  0  0  0  0
    1.2221    4.6175   -6.3952 H   0  0  0  0  0  0  0  0  0  0  0  0
    2.1654    3.2102   -5.7984 H   0  0  0  0  0  0  0  0  0  0  0  0
    1.1347    3.0458   -7.2604 H   0  0  0  0  0  0  0  0  0  0  0  0
 23 25  2  0  0  0  0
 22 23  1  0  0  0  0
 24 26  1  0  0  0  0
 22 24  2  0  0  0  0
 25 27  1  0  0  0  0
 26 27  2  0  0  0  0
 21 22  1  0  0  0  0
 27 28  1  0  0  0  0
  1  3  1  0  0  0  0
  1  7  1  0  0  0  0
  1  2  2  0  0  0  0
 39 40  1  0  0  0  0
 40 48  1  0  0  0  0
 40 41  2  0  0  0  0
  8  9  1  0  0  0  0
  9 17  1  0  0  0  0
  9 10  2  0  0  0  0
 18 19  1  0  0  0  0
 19 38  1  0  0  0  0
 19 20  2  0  0  0  0
 39 42  1  0  0  0  0
  8 11  1  0  0  0  0
 48 49  1  0  0  0  0
 18 21  1  0  0  0  0
 38 39  1  0  0  0  0
  7  8  1  0  0  0  0
 17 18  1  0  0  0  0
 23 33  1  0  0  0  0
 24 34  1  0  0  0  0
 25 35  1  0  0  0  0
 26 36  1  0  0  0  0
  3  4  1  0  0  0  0
  3  5  1  0  0  0  0
  3  6  1  0  0  0  0
 42 45  1  0  0  0  0
 42 46  1  0  0  0  0
 42 47  1  0  0  0  0
 11 14  1  0  0  0  0
 11 15  1  0  0  0  0
 11 16  1  0  0  0  0
 49 51  1  0  0  0  0
 49 52  1  0  0  0  0
 49 53  1  0  0  0  0
 21 31  1  0  0  0  0
 21 32  1  0  0  0  0
 39 44  1  0  0  0  0
  8 13  1  0  0  0  0
 18 30  1  0  0  0  0
 48 50  1  0  0  0  0
  7 12  1  0  0  0  0
 38 43  1  0  0  0  0
 17 29  1  0  0  0  0
 28 37  1  0  0  0  0
M  END
$$$$

  -OEChem-05262214473D

 53 53  0     1  0  0  0  0  0999 V2000
   -1.9298    0.2574    3.9747 C   0  0  0  0  0  0  0  0  0  0  0  0
   -0.9825   -0.3573    3.4990 O   0  0  0  0  0  0  0  0  0  0  0  0
   -2.3617   -0.0250    5.3754 C   0  0  0  0  0  0  0  0  0  0  0  0
   -3.1214   -0.8213    5.4288 H   0  0  0  0  0  0  0  0  0  0  0  0
   -1.5305   -0.3726    6.0097 H   0  0  0  0  0  0  0  0  0  0  0  0
   -2.7997    0.8299    5.9150 H   0  0  0  0  0  0  0  0  0  0  0  0
   -2.6795    1.2298    3.3336 N   0  0  0  0  0  0  0  0  0  0  0  0
   -2.4327    1.6559    1.9812 C   0  0  2  0  0  0  0  0  0  0  0  0
   -1.0977    1.0705    1.5400 C   0  0  0  0  0  0  0  0  0  0  0  0
   -0.2256    0.7177    2.3313 O   0  0  0  0  0  0  0  0  0  0  0  0
   -2.4239    3.1726    1.8718 C   0  0  0  0  0  0  0  0  0  0  0  0
   -3.4446    1.6657    3.8454 H   0  0  0  0  0  0  0  0  0  0  0  0
   -3.2368    1.2374    1.3661 H   0  0  0  0  0  0  0  0  0  0  0  0
   -1.6248    3.6099    2.4815 H   0  0  0  0  0  0  0  0  0  0  0  0
   -2.2644    3.4949    0.8375 H   0  0  0  0  0  0  0  0  0  0  0  0
   -3.3741    3.5939    2.2175 H   0  0  0  0  0  0  0  0  0  0  0  0
   -0.9750    1.0274    0.1566 N   0  0  0  0  0  0  0  0  0  0  0  0
    0.2023    0.5266   -0.5070 C   0  0  2  0  0  0  0  0  0  0  0  0
    0.1272    0.9790   -1.9609 C   0  0  0  0  0  0  0  0  0  0  0  0
    0.5837    0.3185   -2.8917 O   0  0  0  0  0  0  0  0  0  0  0  0
    0.3053   -1.0010   -0.4289 C   0  0  0  0  0  0  0  0  0  0  0  0
    0.5391   -1.4990    0.9765 C   0  0  0  0  0  0  0  0  0  0  0  0
    1.8243   -1.4804    1.5184 C   0  0  0  0  0  0  0  0  0  0  0  0
   -0.5300   -1.9786    1.7332 C   0  0  0  0  0  0  0  0  0  0  0  0
    2.0403   -1.9412    2.8171 C   0  0  0  0  0  0  0  0  0  0  0  0
   -0.3140   -2.4395    3.0318 C   0  0  0  0  0  0  0  0  0  0  0  0
    0.9711   -2.4208    3.5738 C   0  0  0  0  0  0  0  0  0  0  0  0
    1.1823   -2.8717    4.8406 O   0  0  0  0  0  0  0  0  0  0  0  0
   -1.7582    1.3241   -0.4207 H   0  0  0  0  0  0  0  0  0  0  0  0
    1.0612    1.0083   -0.0252 H   0  0  0  0  0  0  0  0  0  0  0  0
    1.1072   -1.3623   -1.0870 H   0  0  0  0  0  0  0  0  0  0  0  0
   -0.6125   -1.4673   -0.8107 H   0  0  0  0  0  0  0  0  0  0  0  0
    2.6630   -1.1084    0.9361 H   0  0  0  0  0  0  0  0  0  0  0  0
   -1.5349   -1.9967    1.3190 H   0  0  0  0  0  0  0  0  0  0  0  0
    3.0439   -1.9244    3.2337 H   0  0  0  0  0  0  0  0  0  0  0  0
   -1.1508   -2.8121    3.6159 H   0  0  0  0  0  0  0  0  0  0  0  0
    0.3473   -3.1704    5.2348 H   0  0  0  0  0  0  0  0  0  0  0  0
   -0.5532    2.1812   -2.0966 N   0  0  0  0  0  0  0  0  0  0  0  0
   -0.7866    2.8215   -3.3710 C   0  0  2  0  0  0  0  0  0  0  0  0
    0.5415    2.8899   -4.1133 C   0  0  0  0  0  0  0  0  0  0  0  0
    1.6306    2.8410   -3.5453 O   0  0  0  0  0  0  0  0  0  0  0  0
   -1.3814    4.2096   -3.1921 C   0  0  0  0  0  0  0  0  0  0  0  0
   -0.9048    2.6337   -1.2579 H   0  0  0  0  0  0  0  0  0  0  0  0
   -1.4822    2.1809   -3.9241 H   0  0  0  0  0  0  0  0  0  0  0  0
   -0.6987    4.8658   -2.6400 H   0  0  0  0  0  0  0  0  0  0  0  0
   -1.5842    4.6820   -4.1589 H   0  0  0  0  0  0  0  0  0  0  0  0
   -2.3216    4.1616   -2.6322 H   0  0  0  0  0  0  0  0  0  0  0  0
    0.3675    3.0553   -5.4802 N   0  0  0  0  0  0  0  0  0  0  0  0
    1.4760    3.1604   -6.4001 C   0  0  0  0  0  0  0  0  0  0  0  0
   -0.5718    3.0664   -5.8666 H   0  0  0  0  0  0  0  0  0  0  0  0
    1.7335    4.2199   -6.5453 H   0  0  0  0  0  0  0  0  0  0  0  0
    2.3448    2.6249   -5.9898 H   0  0  0  0  0  0  0  0  0  0  0  0
    1.1940    2.7160   -7.3661 H   0  0  0  0  0  0  0  0  0  0  0  0
 23 25  2  0  0  0  0
 22 23  1  0  0  0  0
 24 26  1  0  0  0  0
 22 24  2  0  0  0  0
 25 27  1  0  0  0  0
 26 27  2  0  0  0  0
 21 22  1  0  0  0  0
 27 28  1  0  0  0  0
  1  3  1  0  0  0  0
  1  7  1  0  0  0  0
  1  2  2  0  0  0  0
 39 40  1  0  0  0  0
 40 48  1  0  0  0  0
 40 41  2  0  0  0  0
  8  9  1  0  0  0  0
  9 17  1  0  0  0  0
  9 10  2  0  0  0  0
 18 19  1  0  0  0  0
 19 38  1  0  0  0  0
 19 20  2  0  0  0  0
 39 42  1  0  0  0  0
  8 11  1  0  0  0  0
 48 49  1  0  0  0  0
 18 21  1  0  0  0  0
 38 39  1  0  0  0  0
  7  8  1  0  0  0  0
 17 18  1  0  0  0  0
 23 33  1  0  0  0  0
 24 34  1  0  0  0  0
 25 35  1  0  0  0  0
 26 36  1  0  0  0  0
  3  4  1  0  0  0  0
  3  5  1  0  0  0  0
  3  6  1  0  0  0  0
 42 45  1  0  0  0  0
 42 46  1  0  0  0  0
 42 47  1  0  0  0  0
 11 14  1  0  0  0  0
 11 15  1  0  0  0  0
 11 16  1  0  0  0  0
 49 51  1  0  0  0  0
 49 52  1  0  0  0  0
 49 53  1  0  0  0  0
 21 31  1  0  0  0  0
 21 32  1  0  0  0  0
 39 44  1  0  0  0  0
  8 13  1  0  0  0  0
 18 30  1  0  0  0  0
 48 50  1  0  0  0  0
  7 12  1  0  0  0  0
 38 43  1  0  0  0  0
 17 29  1  0  0  0  0
 28 37  1  0  0  0  0
M  END
$$$$

  -OEChem-05262214473D

 53 53  0     1  0  0  0  0  0999 V2000
   -1.9298    0.2574    3.9747 C   0  0  0  0  0  0  0  0  0  0  0  0
   -0.9825   -0.3573    3.4990 O   0  0  0  0  0  0  0  0  0  0  0  0
   -2.3617   -0.0250    5.3754 C   0  0  0  0  0  0  0  0  0  0  0  0
   -3.1214   -0.8213    5.4288 H   0  0  0  0  0  0  0  0  0  0  0  0
   -1.5305   -0.3726    6.0097 H   0  0  0  0  0  0  0  0  0  0  0  0
   -2.7997    0.8299    5.9150 H   0  0  0  0  0  0  0  0  0  0  0  0
   -2.6795    1.2298    3.3336 N   0  0  0  0  0  0  0  0  0  0  0  0
   -2.4327    1.6559    1.9812 C   0  0  2  0  0  0  0  0  0  0  0  0
   -1.0977    1.0705    1.5400 C   0  0  0  0  0  0  0  0  0  0  0  0
   -0.2256    0.7177    2.3313 O   0  0  0  0  0  0  0  0  0  0  0  0
   -2.4239    3.1726    1.8718 C   0  0  0  0  0  0  0  0  0  0  0  0
   -3.4446    1.6657    3.8454 H   0  0  0  0  0  0  0  0  0  0  0  0
   -3.2368    1.2374    1.3661 H   0  0  0  0  0  0  0  0  0  0  0  0
   -1.6248    3.6099    2.4815 H   0  0  0  0  0  0  0  0  0  0  0  0
   -2.2644    3.4949    0.8375 H   0  0  0  0  0  0  0  0  0  0  0  0
   -3.3741    3.5939    2.2175 H   0  0  0  0  0  0  0  0  0  0  0  0
   -0.9750    1.0274    0.1566 N   0  0  0  0  0  0  0  0  0  0  0  0
    0.2023    0.5266   -0.5070 C   0  0  2  0  0  0  0  0  0  0  0  0
    0.1272    0.9790   -1.9609 C   0  0  0  0  0  0  0  0  0  0  0  0
    0.3325    0.2233   -2.9083 O   0  0  0  0  0  0  0  0  0  0  0  0
    0.3053   -1.0010   -0.4289 C   0  0  0  0  0  0  0  0  0  0  0  0
    0.5391   -1.4990    0.9765 C   0  0  0  0  0  0  0  0  0  0  0  0
    1.8243   -1.4804    1.5184 C   0  0  0  0  0  0  0  0  0  0  0  0
   -0.5300   -1.9786    1.7332 C   0  0  0  0  0  0  0  0  0  0  0  0
    2.0403   -1.9412    2.8171 C   0  0  0  0  0  0  0  0  0  0  0  0
   -0.3140   -2.4395    3.0318 C   0  0  0  0  0  0  0  0  0  0  0  0
    0.9711   -2.4208    3.5738 C   0  0  0  0  0  0  0  0  0  0  0  0
    1.1823   -2.8717    4.8406 O   0  0  0  0  0  0  0  0  0  0  0  0
   -1.7582    1.3241   -0.4207 H   0  0  0  0  0  0  0  0  0  0  0  0
    1.0612    1.0083   -0.0252 H   0  0  0  0  0  0  0  0  0  0  0  0
    1.1072   -1.3623   -1.0870 H   0  0  0  0  0  0  0  0  0  0  0  0
   -0.6125   -1.4673   -0.8107 H   0  0  0  0  0  0  0  0  0  0  0  0
    2.6630   -1.1084    0.9361 H   0  0  0  0  0  0  0  0  0  0  0  0
   -1.5349   -1.9967    1.3190 H   0  0  0  0  0  0  0  0  0  0  0  0
    3.0439   -1.9244    3.2337 H   0  0  0  0  0  0  0  0  0  0  0  0
   -1.1508   -2.8121    3.6159 H   0  0  0  0  0  0  0  0  0  0  0  0
    0.3473   -3.1704    5.2348 H   0  0  0  0  0  0  0  0  0  0  0  0
   -0.2446    2.3117   -2.0719 N   0  0  0  0  0  0  0  0  0  0  0  0
   -0.4123    2.9859   -3.3392 C   0  0  2  0  0  0  0  0  0  0  0  0
    0.8294    2.7214   -4.1805 C   0  0  0  0  0  0  0  0  0  0  0  0
    1.9139    2.4064   -3.6952 O   0  0  0  0  0  0  0  0  0  0  0  0
   -0.6309    4.4785   -3.1472 C   0  0  0  0  0  0  0  0  0  0  0  0
   -0.4070    2.8397   -1.2195 H   0  0  0  0  0  0  0  0  0  0  0  0
   -1.2853    2.5355   -3.8239 H   0  0  0  0  0  0  0  0  0  0  0  0
    0.2336    4.9472   -2.6628 H   0  0  0  0  0  0  0  0  0  0  0  0
   -0.7862    4.9834   -4.1063 H   0  0  0  0  0  0  0  0  0  0  0  0
   -1.5071    4.6662   -2.5172 H   0  0  0  0  0  0  0  0  0  0  0  0
    0.5949    2.9204   -5.5339 N   0  0  0  0  0  0  0  0  0  0  0  0
    1.6194    2.7453   -6.5367 C   0  0  0  0  0  0  0  0  0  0  0  0
   -0.3401    3.1623   -5.8487 H   0  0  0  0  0  0  0  0  0  0  0  0
    2.1178    3.7077   -6.7245 H   0  0  0  0  0  0  0  0  0  0  0  0
    2.3590    2.0128   -6.1810 H   0  0  0  0  0  0  0  0  0  0  0  0
    1.1619    2.3814   -7.4685 H   0  0  0  0  0  0  0  0  0  0  0  0
 23 25  2  0  0  0  0
 22 23  1  0  0  0  0
 24 26  1  0  0  0  0
 22 24  2  0  0  0  0
 25 27  1  0  0  0  0
 26 27  2  0  0  0  0
 21 22  1  0  0  0  0
 27 28  1  0  0  0  0
  1  3  1  0  0  0  0
  1  7  1  0  0  0  0
  1  2  2  0  0  0  0
 39 40  1  0  0  0  0
 40 48  1  0  0  0  0
 40 41  2  0  0  0  0
  8  9  1  0  0  0  0
  9 17  1  0  0  0  0
  9 10  2  0  0  0  0
 18 19  1  0  0  0  0
 19 38  1  0  0  0  0
 19 20  2  0  0  0  0
 39 42  1  0  0  0  0
  8 11  1  0  0  0  0
 48 49  1  0  0  0  0
 18 21  1  0  0  0  0
 38 39  1  0  0  0  0
  7  8  1  0  0  0  0
 17 18  1  0  0  0  0
 23 33  1  0  0  0  0
 24 34  1  0  0  0  0
 25 35  1  0  0  0  0
 26 36  1  0  0  0  0
  3  4  1  0  0  0  0
  3  5  1  0  0  0  0
  3  6  1  0  0  0  0
 42 45  1  0  0  0  0
 42 46  1  0  0  0  0
 42 47  1  0  0  0  0
 11 14  1  0  0  0  0
 11 15  1  0  0  0  0
 11 16  1  0  0  0  0
 49 51  1  0  0  0  0
 49 52  1  0  0  0  0
 49 53  1  0  0  0  0
 21 31  1  0  0  0  0
 21 32  1  0  0  0  0
 39 44  1  0  0  0  0
  8 13  1  0  0  0  0
 18 30  1  0  0  0  0
 48 50  1  0  0  0  0
  7 12  1  0  0  0  0
 38 43  1  0  0  0  0
 17 29  1  0  0  0  0
 28 37  1  0  0  0  0
M  END
$$$$

  -OEChem-05262214473D

 53 53  0     1  0  0  0  0  0999 V2000
   -1.9298    0.2574    3.9747 C   0  0  0  0  0  0  0  0  0  0  0  0
   -0.9825   -0.3573    3.4990 O   0  0  0  0  0  0  0  0  0  0  0  0
   -2.3617   -0.0250    5.3754 C   0  0  0  0  0  0  0  0  0  0  0  0
   -3.1214   -0.8213    5.4288 H   0  0  0  0  0  0  0  0  0  0  0  0
   -1.5305   -0.3726    6.0097 H   0  0  0  0  0  0  0  0  0  0  0  0
   -2.7997    0.8299    5.9150 H   0  0  0  0  0  0  0  0  0  0  0  0
   -2.6795    1.2298    3.3336 N   0  0  0  0  0  0  0  0  0  0  0  0
   -2.4327    1.6559    1.9812 C   0  0  2  0  0  0  0  0  0  0  0  0
   -1.0977    1.0705    1.5400 C   0  0  0  0  0  0  0  0  0  0  0  0
   -0.2256    0.7177    2.3313 O   0  0  0  0  0  0  0  0  0  0  0  0
   -2.4239    3.1726    1.8718 C   0  0  0  0  0  0  0  0  0  0  0  0
   -3.4446    1.6657    3.8454 H   0  0  0  0  0  0  0  0  0  0  0  0
   -3.2368    1.2374    1.3661 H   0  0  0  0  0  0  0  0  0  0  0  0
   -1.6248    3.6099    2.4815 H   0  0  0  0  0  0  0  0  0  0  0  0
   -2.2644    3.4949    0.8375 H   0  0  0  0  0  0  0  0  0  0  0  0
   -3.3741    3.5939    2.2175 H   0  0  0  0  0  0  0  0  0  0  0  0
   -0.9750    1.0274    0.1566 N   0  0  0  0  0  0  0  0  0  0  0  0
    0.2023    0.5266   -0.5070 C   0  0  2  0  0  0  0  0  0  0  0  0
    0.1272    0.9790   -1.9609 C   0  0  0  0  0  0  0  0  0  0  0  0
    0.0651    0.1930   -2.9039 O   0  0  0  0  0  0  0  0  0  0  0  0
    0.3053   -1.0010   -0.4289 C   0  0  0  0  0  0  0  0  0  0  0  0
    0.5391   -1.4990    0.9765 C   0  0  0  0  0  0  0  0  0  0  0  0
    1.8243   -1.4804    1.5184 C   0  0  0  0  0  0  0  0  0  0  0  0
   -0.5300   -1.9786    1.7332 C   0  0  0  0  0  0  0  0  0  0  0  0
    2.0403   -1.9412    2.8171 C   0  0  0  0  0  0  0  0  0  0  0  0
   -0.3140   -2.4395    3.0318 C   0  0  0  0  0  0  0  0  0  0  0  0
    0.9711   -2.4208    3.5738 C   0  0  0  0  0  0  0  0  0  0  0  0
    1.1823   -2.8717    4.8406 O   0  0  0  0  0  0  0  0  0  0  0  0
   -1.7582    1.3241   -0.4207 H   0  0  0  0  0  0  0  0  0  0  0  0
    1.0612    1.0083   -0.0252 H   0  0  0  0  0  0  0  0  0  0  0  0
    1.1072   -1.3623   -1.0870 H   0  0  0  0  0  0  0  0  0  0  0  0
   -0.6125   -1.4673   -0.8107 H   0  0  0  0  0  0  0  0  0  0  0  0
    2.6630   -1.1084    0.9361 H   0  0  0  0  0  0  0  0  0  0  0  0
   -1.5349   -1.9967    1.3190 H   0  0  0  0  0  0  0  0  0  0  0  0
    3.0439   -1.9244    3.2337 H   0  0  0  0  0  0  0  0  0  0  0  0
   -1.1508   -2.8121    3.6159 H   0  0  0  0  0  0  0  0  0  0  0  0
    0.3473   -3.1704    5.2348 H   0  0  0  0  0  0  0  0  0  0  0  0
    0.0876    2.3619   -2.0734 N   0  0  0  0  0  0  0  0  0  0  0  0
   -0.0076    3.0527   -3.3393 C   0  0  2  0  0  0  0  0  0  0  0  0
    1.0607    2.4867   -4.2655 C   0  0  0  0  0  0  0  0  0  0  0  0
    2.0689    1.9148   -3.8562 O   0  0  0  0  0  0  0  0  0  0  0  0
    0.1639    4.5536   -3.1648 C   0  0  0  0  0  0  0  0  0  0  0  0
    0.1277    2.9162   -1.2232 H   0  0  0  0  0  0  0  0  0  0  0  0
   -1.0000    2.8308   -3.7468 H   0  0  0  0  0  0  0  0  0  0  0  0
    1.1524    4.7954   -2.7575 H   0  0  0  0  0  0  0  0  0  0  0  0
    0.0631    5.0783   -4.1207 H   0  0  0  0  0  0  0  0  0  0  0  0
   -0.5868    4.9542   -2.4751 H   0  0  0  0  0  0  0  0  0  0  0  0
    0.7771    2.7334   -5.6015 N   0  0  0  0  0  0  0  0  0  0  0  0
    1.6450    2.3071   -6.6744 C   0  0  0  0  0  0  0  0  0  0  0  0
   -0.0912    3.1980   -5.8505 H   0  0  0  0  0  0  0  0  0  0  0  0
    2.3488    3.1159   -6.9206 H   0  0  0  0  0  0  0  0  0  0  0  0
    2.2069    1.4156   -6.3590 H   0  0  0  0  0  0  0  0  0  0  0  0
    1.0403    2.0649   -7.5607 H   0  0  0  0  0  0  0  0  0  0  0  0
 23 25  2  0  0  0  0
 22 23  1  0  0  0  0
 24 26  1  0  0  0  0
 22 24  2  0  0  0  0
 25 27  1  0  0  0  0
 26 27  2  0  0  0  0
 21 22  1  0  0  0  0
 27 28  1  0  0  0  0
  1  3  1  0  0  0  0
  1  7  1  0  0  0  0
  1  2  2  0  0  0  0
 39 40  1  0  0  0  0
 40 48  1  0  0  0  0
 40 41  2  0  0  0  0
  8  9  1  0  0  0  0
  9 17  1  0  0  0  0
  9 10  2  0  0  0  0
 18 19  1  0  0  0  0
 19 38  1  0  0  0  0
 19 20  2  0  0  0  0
 39 42  1  0  0  0  0
  8 11  1  0  0  0  0
 48 49  1  0  0  0  0
 18 21  1  0  0  0  0
 38 39  1  0  0  0  0
  7  8  1  0  0  0  0
 17 18  1  0  0  0  0
 23 33  1  0  0  0  0
 24 34  1  0  0  0  0
 25 35  1  0  0  0  0
 26 36  1  0  0  0  0
  3  4  1  0  0  0  0
  3  5  1  0  0  0  0
  3  6  1  0  0  0  0
 42 45  1  0  0  0  0
 42 46  1  0  0  0  0
 42 47  1  0  0  0  0
 11 14  1  0  0  0  0
 11 15  1  0  0  0  0
 11 16  1  0  0  0  0
 49 51  1  0  0  0  0
 49 52  1  0  0  0  0
 49 53  1  0  0  0  0
 21 31  1  0  0  0  0
 21 32  1  0  0  0  0
 39 44  1  0  0  0  0
  8 13  1  0  0  0  0
 18 30  1  0  0  0  0
 48 50  1  0  0  0  0
  7 12  1  0  0  0  0
 38 43  1  0  0  0  0
 17 29  1  0  0  0  0
 28 37  1  0  0  0  0
M  END
$$$$

  -OEChem-05262214473D

 53 53  0     1  0  0  0  0  0999 V2000
   -1.9298    0.2574    3.9747 C   0  0  0  0  0  0  0  0  0  0  0  0
   -0.9825   -0.3573    3.4990 O   0  0  0  0  0  0  0  0  0  0  0  0
   -2.3617   -0.0250    5.3754 C   0  0  0  0  0  0  0  0  0  0  0  0
   -3.1214   -0.8213    5.4288 H   0  0  0  0  0  0  0  0  0  0  0  0
   -1.5305   -0.3726    6.0097 H   0  0  0  0  0  0  0  0  0  0  0  0
   -2.7997    0.8299    5.9150 H   0  0  0  0  0  0  0  0  0  0  0  0
   -2.6795    1.2298    3.3336 N   0  0  0  0  0  0  0  0  0  0  0  0
   -2.4327    1.6559    1.9812 C   0  0  2  0  0  0  0  0  0  0  0  0
   -1.0977    1.0705    1.5400 C   0  0  0  0  0  0  0  0  0  0  0  0
   -0.2256    0.7177    2.3313 O   0  0  0  0  0  0  0  0  0  0  0  0
   -2.4239    3.1726    1.8718 C   0  0  0  0  0  0  0  0  0  0  0  0
   -3.4446    1.6657    3.8454 H   0  0  0  0  0  0  0  0  0  0  0  0
   -3.2368    1.2374    1.3661 H   0  0  0  0  0  0  0  0  0  0  0  0
   -1.6248    3.6099    2.4815 H   0  0  0  0  0  0  0  0  0  0  0  0
   -2.2644    3.4949    0.8375 H   0  0  0  0  0  0  0  0  0  0  0  0
   -3.3741    3.5939    2.2175 H   0  0  0  0  0  0  0  0  0  0  0  0
   -0.9750    1.0274    0.1566 N   0  0  0  0  0  0  0  0  0  0  0  0
    0.2023    0.5266   -0.5070 C   0  0  2  0  0  0  0  0  0  0  0  0
    0.1272    0.9790   -1.9609 C   0  0  0  0  0  0  0  0  0  0  0  0
   -0.2003    0.2299   -2.8788 O   0  0  0  0  0  0  0  0  0  0  0  0
    0.3053   -1.0010   -0.4289 C   0  0  0  0  0  0  0  0  0  0  0  0
    0.5391   -1.4990    0.9765 C   0  0  0  0  0  0  0  0  0  0  0  0
    1.8243   -1.4804    1.5184 C   0  0  0  0  0  0  0  0  0  0  0  0
   -0.5300   -1.9786    1.7332 C   0  0  0  0  0  0  0  0  0  0  0  0
    2.0403   -1.9412    2.8171 C   0  0  0  0  0  0  0  0  0  0  0  0
   -0.3140   -2.4395    3.0318 C   0  0  0  0  0  0  0  0  0  0  0  0
    0.9711   -2.4208    3.5738 C   0  0  0  0  0  0  0  0  0  0  0  0
    1.1823   -2.8717    4.8406 O   0  0  0  0  0  0  0  0  0  0  0  0
   -1.7582    1.3241   -0.4207 H   0  0  0  0  0  0  0  0  0  0  0  0
    1.0612    1.0083   -0.0252 H   0  0  0  0  0  0  0  0  0  0  0  0
    1.1072   -1.3623   -1.0870 H   0  0  0  0  0  0  0  0  0  0  0  0
   -0.6125   -1.4673   -0.8107 H   0  0  0  0  0  0  0  0  0  0  0  0
    2.6630   -1.1084    0.9361 H   0  0  0  0  0  0  0  0  0  0  0  0
   -1.5349   -1.9967    1.3190 H   0  0  0  0  0  0  0  0  0  0  0  0
    3.0439   -1.9244    3.2337 H   0  0  0  0  0  0  0  0  0  0  0  0
   -1.1508   -2.8121    3.6159 H   0  0  0  0  0  0  0  0  0  0  0  0
    0.3473   -3.1704    5.2348 H   0  0  0  0  0  0  0  0  0  0  0  0
    0.4208    2.3283   -2.1010 N   0  0  0  0  0  0  0  0  0  0  0  0
    0.3997    3.0173   -3.3713 C   0  0  2  0  0  0  0  0  0  0  0  0
    1.2196    2.2018   -4.3624 C   0  0  0  0  0  0  0  0  0  0  0  0
    2.0848    1.3996   -4.0173 O   0  0  0  0  0  0  0  0  0  0  0  0
    0.9488    4.4297   -3.2439 C   0  0  0  0  0  0  0  0  0  0  0  0
    0.6627    2.8582   -1.2689 H   0  0  0  0  0  0  0  0  0  0  0  0
   -0.6455    3.0465   -3.6980 H   0  0  0  0  0  0  0  0  0  0  0  0
    1.9952    4.4208   -2.9175 H   0  0  0  0  0  0  0  0  0  0  0  0
    0.9057    4.9601   -4.2009 H   0  0  0  0  0  0  0  0  0  0  0  0
    0.3763    5.0056   -2.5088 H   0  0  0  0  0  0  0  0  0  0  0  0
    0.9017    2.5069   -5.6784 N   0  0  0  0  0  0  0  0  0  0  0  0
    1.5510    1.8759   -6.8037 C   0  0  0  0  0  0  0  0  0  0  0  0
    0.1578    3.1710   -5.8717 H   0  0  0  0  0  0  0  0  0  0  0  0
    2.4108    2.4847   -7.1202 H   0  0  0  0  0  0  0  0  0  0  0  0
    1.8989    0.8741   -6.5116 H   0  0  0  0  0  0  0  0  0  0  0  0
    0.8377    1.7880   -7.6364 H   0  0  0  0  0  0  0  0  0  0  0  0
 23 25  2  0  0  0  0
 22 23  1  0  0  0  0
 24 26  1  0  0  0  0
 22 24  2  0  0  0  0
 25 27  1  0  0  0  0
 26 27  2  0  0  0  0
 21 22  1  0  0  0  0
 27 28  1  0  0  0  0
  1  3  1  0  0  0  0
  1  7  1  0  0  0  0
  1  2  2  0  0  0  0
 39 40  1  0  0  0  0
 40 48  1  0  0  0  0
 40 41  2  0  0  0  0
  8  9  1  0  0  0  0
  9 17  1  0  0  0  0
  9 10  2  0  0  0  0
 18 19  1  0  0  0  0
 19 38  1  0  0  0  0
 19 20  2  0  0  0  0
 39 42  1  0  0  0  0
  8 11  1  0  0  0  0
 48 49  1  0  0  0  0
 18 21  1  0  0  0  0
 38 39  1  0  0  0  0
  7  8  1  0  0  0  0
 17 18  1  0  0  0  0
 23 33  1  0  0  0  0
 24 34  1  0  0  0  0
 25 35  1  0  0  0  0
 26 36  1  0  0  0  0
  3  4  1  0  0  0  0
  3  5  1  0  0  0  0
  3  6  1  0  0  0  0
 42 45  1  0  0  0  0
 42 46  1  0  0  0  0
 42 47  1  0  0  0  0
 11 14  1  0  0  0  0
 11 15  1  0  0  0  0
 11 16  1  0  0  0  0
 49 51  1  0  0  0  0
 49 52  1  0  0  0  0
 49 53  1  0  0  0  0
 21 31  1  0  0  0  0
 21 32  1  0  0  0  0
 39 44  1  0  0  0  0
  8 13  1  0  0  0  0
 18 30  1  0  0  0  0
 48 50  1  0  0  0  0
  7 12  1  0  0  0  0
 38 43  1  0  0  0  0
 17 29  1  0  0  0  0
 28 37  1  0  0  0  0
M  END
$$$$

  -OEChem-05262214473D

 53 53  0     1  0  0  0  0  0999 V2000
   -1.9298    0.2574    3.9747 C   0  0  0  0  0  0  0  0  0  0  0  0
   -0.9825   -0.3573    3.4990 O   0  0  0  0  0  0  0  0  0  0  0  0
   -2.3617   -0.0250    5.3754 C   0  0  0  0  0  0  0  0  0  0  0  0
   -3.1214   -0.8213    5.4288 H   0  0  0  0  0  0  0  0  0  0  0  0
   -1.5305   -0.3726    6.0097 H   0  0  0  0  0  0  0  0  0  0  0  0
   -2.7997    0.8299    5.9150 H   0  0  0  0  0  0  0  0  0  0  0  0
   -2.6795    1.2298    3.3336 N   0  0  0  0  0  0  0  0  0  0  0  0
   -2.4327    1.6559    1.9812 C   0  0  2  0  0  0  0  0  0  0  0  0
   -1.0977    1.0705    1.5400 C   0  0  0  0  0  0  0  0  0  0  0  0
   -0.2256    0.7177    2.3313 O   0  0  0  0  0  0  0  0  0  0  0  0
   -2.4239    3.1726    1.8718 C   0  0  0  0  0  0  0  0  0  0  0  0
   -3.4446    1.6657    3.8454 H   0  0  0  0  0  0  0  0  0  0  0  0
   -3.2368    1.2374    1.3661 H   0  0  0  0  0  0  0  0  0  0  0  0
   -1.6248    3.6099    2.4815 H   0  0  0  0  0  0  0  0  0  0  0  0
   -2.2644    3.4949    0.8375 H   0  0  0  0  0  0  0  0  0  0  0  0
   -3.3741    3.5939    2.2175 H   0  0  0  0  0  0  0  0  0  0  0  0
   -0.9750    1.0274    0.1566 N   0  0  0  0  0  0  0  0  0  0  0  0
    0.2023    0.5266   -0.5070 C   0  0  2  0  0  0  0  0  0  0  0  0
    0.1272    0.9790   -1.9609 C   0  0  0  0  0  0  0  0  0  0  0  0
   -0.4457    0.3313   -2.8345 O   0  0  0  0  0  0  0  0  0  0  0  0
    0.3053   -1.0010   -0.4289 C   0  0  0  0  0  0  0  0  0  0  0  0
    0.5391   -1.4990    0.9765 C   0  0  0  0  0  0  0  0  0  0  0  0
    1.8243   -1.4804    1.5184 C   0  0  0  0  0  0  0  0  0  0  0  0
   -0.5300   -1.9786    1.7332 C   0  0  0  0  0  0  0  0  0  0  0  0
    2.0403   -1.9412    2.8171 C   0  0  0  0  0  0  0  0  0  0  0  0
   -0.3140   -2.4395    3.0318 C   0  0  0  0  0  0  0  0  0  0  0  0
    0.9711   -2.4208    3.5738 C   0  0  0  0  0  0  0  0  0  0  0  0
    1.1823   -2.8717    4.8406 O   0  0  0  0  0  0  0  0  0  0  0  0
   -1.7582    1.3241   -0.4207 H   0  0  0  0  0  0  0  0  0  0  0  0
    1.0612    1.0083   -0.0252 H   0  0  0  0  0  0  0  0  0  0  0  0
    1.1072   -1.3623   -1.0870 H   0  0  0  0  0  0  0  0  0  0  0  0
   -0.6125   -1.4673   -0.8107 H   0  0  0  0  0  0  0  0  0  0  0  0
    2.6630   -1.1084    0.9361 H   0  0  0  0  0  0  0  0  0  0  0  0
   -1.5349   -1.9967    1.3190 H   0  0  0  0  0  0  0  0  0  0  0  0
    3.0439   -1.9244    3.2337 H   0  0  0  0  0  0  0  0  0  0  0  0
   -1.1508   -2.8121    3.6159 H   0  0  0  0  0  0  0  0  0  0  0  0
    0.3473   -3.1704    5.2348 H   0  0  0  0  0  0  0  0  0  0  0  0
    0.7322    2.2134   -2.1529 N   0  0  0  0  0  0  0  0  0  0  0  0
    0.7819    2.8822   -3.4331 C   0  0  2  0  0  0  0  0  0  0  0  0
    1.2954    1.8862   -4.4645 C   0  0  0  0  0  0  0  0  0  0  0  0
    1.9606    0.8960   -4.1676 O   0  0  0  0  0  0  0  0  0  0  0  0
    1.6703    4.1153   -3.3790 C   0  0  0  0  0  0  0  0  0  0  0  0
    1.1617    2.6695   -1.3534 H   0  0  0  0  0  0  0  0  0  0  0  0
   -0.2462    3.1680   -3.6808 H   0  0  0  0  0  0  0  0  0  0  0  0
    2.7045    3.8489   -3.1321 H   0  0  0  0  0  0  0  0  0  0  0  0
    1.6843    4.6369   -4.3417 H   0  0  0  0  0  0  0  0  0  0  0  0
    1.3168    4.8172   -2.6160 H   0  0  0  0  0  0  0  0  0  0  0  0
    0.9602    2.2563   -5.7594 N   0  0  0  0  0  0  0  0  0  0  0  0
    1.3438    1.4809   -6.9159 C   0  0  0  0  0  0  0  0  0  0  0  0
    0.3901    3.0832   -5.9110 H   0  0  0  0  0  0  0  0  0  0  0  0
    2.2995    1.8571   -7.3098 H   0  0  0  0  0  0  0  0  0  0  0  0
    1.4561    0.4250   -6.6285 H   0  0  0  0  0  0  0  0  0  0  0  0
    0.5678    1.5695   -7.6905 H   0  0  0  0  0  0  0  0  0  0  0  0
 23 25  2  0  0  0  0
 22 23  1  0  0  0  0
 24 26  1  0  0  0  0
 22 24  2  0  0  0  0
 25 27  1  0  0  0  0
 26 27  2  0  0  0  0
 21 22  1  0  0  0  0
 27 28  1  0  0  0  0
  1  3  1  0  0  0  0
  1  7  1  0  0  0  0
  1  2  2  0  0  0  0
 39 40  1  0  0  0  0
 40 48  1  0  0  0  0
 40 41  2  0  0  0  0
  8  9  1  0  0  0  0
  9 17  1  0  0  0  0
  9 10  2  0  0  0  0
 18 19  1  0  0  0  0
 19 38  1  0  0  0  0
 19 20  2  0  0  0  0
 39 42  1  0  0  0  0
  8 11  1  0  0  0  0
 48 49  1  0  0  0  0
 18 21  1  0  0  0  0
 38 39  1  0  0  0  0
  7  8  1  0  0  0  0
 17 18  1  0  0  0  0
 23 33  1  0  0  0  0
 24 34  1  0  0  0  0
 25 35  1  0  0  0  0
 26 36  1  0  0  0  0
  3  4  1  0  0  0  0
  3  5  1  0  0  0  0
  3  6  1  0  0  0  0
 42 45  1  0  0  0  0
 42 46  1  0  0  0  0
 42 47  1  0  0  0  0
 11 14  1  0  0  0  0
 11 15  1  0  0  0  0
 11 16  1  0  0  0  0
 49 51  1  0  0  0  0
 49 52  1  0  0  0  0
 49 53  1  0  0  0  0
 21 31  1  0  0  0  0
 21 32  1  0  0  0  0
 39 44  1  0  0  0  0
  8 13  1  0  0  0  0
 18 30  1  0  0  0  0
 48 50  1  0  0  0  0
  7 12  1  0  0  0  0
 38 43  1  0  0  0  0
 17 29  1  0  0  0  0
 28 37  1  0  0  0  0
M  END
$$$$

  -OEChem-05262214473D

 53 53  0     1  0  0  0  0  0999 V2000
   -1.9298    0.2574    3.9747 C   0  0  0  0  0  0  0  0  0  0  0  0
   -0.9825   -0.3573    3.4990 O   0  0  0  0  0  0  0  0  0  0  0  0
   -2.3617   -0.0250    5.3754 C   0  0  0  0  0  0  0  0  0  0  0  0
   -3.1214   -0.8213    5.4288 H   0  0  0  0  0  0  0  0  0  0  0  0
   -1.5305   -0.3726    6.0097 H   0  0  0  0  0  0  0  0  0  0  0  0
   -2.7997    0.8299    5.9150 H   0  0  0  0  0  0  0  0  0  0  0  0
   -2.6795    1.2298    3.3336 N   0  0  0  0  0  0  0  0  0  0  0  0
   -2.4327    1.6559    1.9812 C   0  0  2  0  0  0  0  0  0  0  0  0
   -1.0977    1.0705    1.5400 C   0  0  0  0  0  0  0  0  0  0  0  0
   -0.2256    0.7177    2.3313 O   0  0  0  0  0  0  0  0  0  0  0  0
   -2.4239    3.1726    1.8718 C   0  0  0  0  0  0  0  0  0  0  0  0
   -3.4446    1.6657    3.8454 H   0  0  0  0  0  0  0  0  0  0  0  0
   -3.2368    1.2374    1.3661 H   0  0  0  0  0  0  0  0  0  0  0  0
   -1.6248    3.6099    2.4815 H   0  0  0  0  0  0  0  0  0  0  0  0
   -2.2644    3.4949    0.8375 H   0  0  0  0  0  0  0  0  0  0  0  0
   -3.3741    3.5939    2.2175 H   0  0  0  0  0  0  0  0  0  0  0  0
   -0.9750    1.0274    0.1566 N   0  0  0  0  0  0  0  0  0  0  0  0
    0.2023    0.5266   -0.5070 C   0  0  2  0  0  0  0  0  0  0  0  0
    0.1272    0.9790   -1.9609 C   0  0  0  0  0  0  0  0  0  0  0  0
   -0.6543    0.4904   -2.7742 O   0  0  0  0  0  0  0  0  0  0  0  0
    0.3053   -1.0010   -0.4289 C   0  0  0  0  0  0  0  0  0  0  0  0
    0.5391   -1.4990    0.9765 C   0  0  0  0  0  0  0  0  0  0  0  0
    1.8243   -1.4804    1.5184 C   0  0  0  0  0  0  0  0  0  0  0  0
   -0.5300   -1.9786    1.7332 C   0  0  0  0  0  0  0  0  0  0  0  0
    2.0403   -1.9412    2.8171 C   0  0  0  0  0  0  0  0  0  0  0  0
   -0.3140   -2.4395    3.0318 C   0  0  0  0  0  0  0  0  0  0  0  0
    0.9711   -2.4208    3.5738 C   0  0  0  0  0  0  0  0  0  0  0  0
    1.1823   -2.8717    4.8406 O   0  0  0  0  0  0  0  0  0  0  0  0
   -1.7582    1.3241   -0.4207 H   0  0  0  0  0  0  0  0  0  0  0  0
    1.0612    1.0083   -0.0252 H   0  0  0  0  0  0  0  0  0  0  0  0
    1.1072   -1.3623   -1.0870 H   0  0  0  0  0  0  0  0  0  0  0  0
   -0.6125   -1.4673   -0.8107 H   0  0  0  0  0  0  0  0  0  0  0  0
    2.6630   -1.1084    0.9361 H   0  0  0  0  0  0  0  0  0  0  0  0
   -1.5349   -1.9967    1.3190 H   0  0  0  0  0  0  0  0  0  0  0  0
    3.0439   -1.9244    3.2337 H   0  0  0  0  0  0  0  0  0  0  0  0
   -1.1508   -2.8121    3.6159 H   0  0  0  0  0  0  0  0  0  0  0  0
    0.3473   -3.1704    5.2348 H   0  0  0  0  0  0  0  0  0  0  0  0
    1.0007    2.0248   -2.2254 N   0  0  0  0  0  0  0  0  0  0  0  0
    1.1131    2.6566   -3.5204 C   0  0  2  0  0  0  0  0  0  0  0  0
    1.2829    1.5613   -4.5649 C   0  0  0  0  0  0  0  0  0  0  0  0
    1.7048    0.4383   -4.2968 O   0  0  0  0  0  0  0  0  0  0  0  0
    2.2793    3.6318   -3.5609 C   0  0  0  0  0  0  0  0  0  0  0  0
    1.5906    2.3630   -1.4709 H   0  0  0  0  0  0  0  0  0  0  0  0
    0.1709    3.1870   -3.6964 H   0  0  0  0  0  0  0  0  0  0  0  0
    3.2320    3.1186   -3.3866 H   0  0  0  0  0  0  0  0  0  0  0  0
    2.3457    4.1308   -4.5333 H   0  0  0  0  0  0  0  0  0  0  0  0
    2.1705    4.4017   -2.7893 H   0  0  0  0  0  0  0  0  0  0  0  0
    0.9487    1.9988   -5.8389 N   0  0  0  0  0  0  0  0  0  0  0  0
    1.0376    1.1490   -7.0034 C   0  0  0  0  0  0  0  0  0  0  0  0
    0.5898    2.9406   -5.9657 H   0  0  0  0  0  0  0  0  0  0  0  0
    2.0226    1.2760   -7.4763 H   0  0  0  0  0  0  0  0  0  0  0  0
    0.9085    0.0991   -6.7016 H   0  0  0  0  0  0  0  0  0  0  0  0
    0.2491    1.4245   -7.7192 H   0  0  0  0  0  0  0  0  0  0  0  0
 23 25  2  0  0  0  0
 22 23  1  0  0  0  0
 24 26  1  0  0  0  0
 22 24  2  0  0  0  0
 25 27  1  0  0  0  0
 26 27  2  0  0  0  0
 21 22  1  0  0  0  0
 27 28  1  0  0  0  0
  1  3  1  0  0  0  0
  1  7  1  0  0  0  0
  1  2  2  0  0  0  0
 39 40  1  0  0  0  0
 40 48  1  0  0  0  0
 40 41  2  0  0  0  0
  8  9  1  0  0  0  0
  9 17  1  0  0  0  0
  9 10  2  0  0  0  0
 18 19  1  0  0  0  0
 19 38  1  0  0  0  0
 19 20  2  0  0  0  0
 39 42  1  0  0  0  0
  8 11  1  0  0  0  0
 48 49  1  0  0  0  0
 18 21  1  0  0  0  0
 38 39  1  0  0  0  0
  7  8  1  0  0  0  0
 17 18  1  0  0  0  0
 23 33  1  0  0  0  0
 24 34  1  0  0  0  0
 25 35  1  0  0  0  0
 26 36  1  0  0  0  0
  3  4  1  0  0  0  0
  3  5  1  0  0  0  0
  3  6  1  0  0  0  0
 42 45  1  0  0  0  0
 42 46  1  0  0  0  0
 42 47  1  0  0  0  0
 11 14  1  0  0  0  0
 11 15  1  0  0  0  0
 11 16  1  0  0  0  0
 49 51  1  0  0  0  0
 49 52  1  0  0  0  0
 49 53  1  0  0  0  0
 21 31  1  0  0  0  0
 21 32  1  0  0  0  0
 39 44  1  0  0  0  0
  8 13  1  0  0  0  0
 18 30  1  0  0  0  0
 48 50  1  0  0  0  0
  7 12  1  0  0  0  0
 38 43  1  0  0  0  0
 17 29  1  0  0  0  0
 28 37  1  0  0  0  0
M  END
$$$$

  -OEChem-05262214473D

 53 53  0     1  0  0  0  0  0999 V2000
   -1.9298    0.2574    3.9747 C   0  0  0  0  0  0  0  0  0  0  0  0
   -0.9825   -0.3573    3.4990 O   0  0  0  0  0  0  0  0  0  0  0  0
   -2.3617   -0.0250    5.3754 C   0  0  0  0  0  0  0  0  0  0  0  0
   -3.1214   -0.8213    5.4288 H   0  0  0  0  0  0  0  0  0  0  0  0
   -1.5305   -0.3726    6.0097 H   0  0  0  0  0  0  0  0  0  0  0  0
   -2.7997    0.8299    5.9150 H   0  0  0  0  0  0  0  0  0  0  0  0
   -2.6795    1.2298    3.3336 N   0  0  0  0  0  0  0  0  0  0  0  0
   -2.4327    1.6559    1.9812 C   0  0  2  0  0  0  0  0  0  0  0  0
   -1.0977    1.0705    1.5400 C   0  0  0  0  0  0  0  0  0  0  0  0
   -0.2256    0.7177    2.3313 O   0  0  0  0  0  0  0  0  0  0  0  0
   -2.4239    3.1726    1.8718 C   0  0  0  0  0  0  0  0  0  0  0  0
   -3.4446    1.6657    3.8454 H   0  0  0  0  0  0  0  0  0  0  0  0
   -3.2368    1.2374    1.3661 H   0  0  0  0  0  0  0  0  0  0  0  0
   -1.6248    3.6099    2.4815 H   0  0  0  0  0  0  0  0  0  0  0  0
   -2.2644    3.4949    0.8375 H   0  0  0  0  0  0  0  0  0  0  0  0
   -3.3741    3.5939    2.2175 H   0  0  0  0  0  0  0  0  0  0  0  0
   -0.9750    1.0274    0.1566 N   0  0  0  0  0  0  0  0  0  0  0  0
    0.2023    0.5266   -0.5070 C   0  0  2  0  0  0  0  0  0  0  0  0
    0.1272    0.9790   -1.9609 C   0  0  0  0  0  0  0  0  0  0  0  0
   -0.8118    0.6964   -2.7020 O   0  0  0  0  0  0  0  0  0  0  0  0
    0.3053   -1.0010   -0.4289 C   0  0  0  0  0  0  0  0  0  0  0  0
    0.5391   -1.4990    0.9765 C   0  0  0  0  0  0  0  0  0  0  0  0
    1.8243   -1.4804    1.5184 C   0  0  0  0  0  0  0  0  0  0  0  0
   -0.5300   -1.9786    1.7332 C   0  0  0  0  0  0  0  0  0  0  0  0
    2.0403   -1.9412    2.8171 C   0  0  0  0  0  0  0  0  0  0  0  0
   -0.3140   -2.4395    3.0318 C   0  0  0  0  0  0  0  0  0  0  0  0
    0.9711   -2.4208    3.5738 C   0  0  0  0  0  0  0  0  0  0  0  0
    1.1823   -2.8717    4.8406 O   0  0  0  0  0  0  0  0  0  0  0  0
   -1.7582    1.3241   -0.4207 H   0  0  0  0  0  0  0  0  0  0  0  0
    1.0612    1.0083   -0.0252 H   0  0  0  0  0  0  0  0  0  0  0  0
    1.1072   -1.3623   -1.0870 H   0  0  0  0  0  0  0  0  0  0  0  0
   -0.6125   -1.4673   -0.8107 H   0  0  0  0  0  0  0  0  0  0  0  0
    2.6630   -1.1084    0.9361 H   0  0  0  0  0  0  0  0  0  0  0  0
   -1.5349   -1.9967    1.3190 H   0  0  0  0  0  0  0  0  0  0  0  0
    3.0439   -1.9244    3.2337 H   0  0  0  0  0  0  0  0  0  0  0  0
   -1.1508   -2.8121    3.6159 H   0  0  0  0  0  0  0  0  0  0  0  0
    0.3473   -3.1704    5.2348 H   0  0  0  0  0  0  0  0  0  0  0  0
    1.2078    1.7754   -2.3137 N   0  0  0  0  0  0  0  0  0  0  0  0
    1.3706    2.3558   -3.6273 C   0  0  2  0  0  0  0  0  0  0  0  0
    1.1829    1.2493   -4.6569 C   0  0  0  0  0  0  0  0  0  0  0  0
    1.3349    0.0577   -4.3962 O   0  0  0  0  0  0  0  0  0  0  0  0
    2.7342    3.0122   -3.7772 C   0  0  0  0  0  0  0  0  0  0  0  0
    1.9202    1.9596   -1.6134 H   0  0  0  0  0  0  0  0  0  0  0  0
    0.5772    3.1022   -3.7437 H   0  0  0  0  0  0  0  0  0  0  0  0
    3.5418    2.2798   -3.6636 H   0  0  0  0  0  0  0  0  0  0  0  0
    2.8450    3.4762   -4.7628 H   0  0  0  0  0  0  0  0  0  0  0  0
    2.8792    3.7874   -3.0171 H   0  0  0  0  0  0  0  0  0  0  0  0
    0.8680    1.7520   -5.9116 N   0  0  0  0  0  0  0  0  0  0  0  0
    0.6532    0.9030   -7.0601 C   0  0  0  0  0  0  0  0  0  0  0  0
    0.7433    2.7528   -6.0321 H   0  0  0  0  0  0  0  0  0  0  0  0
    1.5989    0.7809   -7.6085 H   0  0  0  0  0  0  0  0  0  0  0  0
    0.2934   -0.0814   -6.7261 H   0  0  0  0  0  0  0  0  0  0  0  0
   -0.0968    1.3627   -7.7206 H   0  0  0  0  0  0  0  0  0  0  0  0
 23 25  2  0  0  0  0
 22 23  1  0  0  0  0
 24 26  1  0  0  0  0
 22 24  2  0  0  0  0
 25 27  1  0  0  0  0
 26 27  2  0  0  0  0
 21 22  1  0  0  0  0
 27 28  1  0  0  0  0
  1  3  1  0  0  0  0
  1  7  1  0  0  0  0
  1  2  2  0  0  0  0
 39 40  1  0  0  0  0
 40 48  1  0  0  0  0
 40 41  2  0  0  0  0
  8  9  1  0  0  0  0
  9 17  1  0  0  0  0
  9 10  2  0  0  0  0
 18 19  1  0  0  0  0
 19 38  1  0  0  0  0
 19 20  2  0  0  0  0
 39 42  1  0  0  0  0
  8 11  1  0  0  0  0
 48 49  1  0  0  0  0
 18 21  1  0  0  0  0
 38 39  1  0  0  0  0
  7  8  1  0  0  0  0
 17 18  1  0  0  0  0
 23 33  1  0  0  0  0
 24 34  1  0  0  0  0
 25 35  1  0  0  0  0
 26 36  1  0  0  0  0
  3  4  1  0  0  0  0
  3  5  1  0  0  0  0
  3  6  1  0  0  0  0
 42 45  1  0  0  0  0
 42 46  1  0  0  0  0
 42 47  1  0  0  0  0
 11 14  1  0  0  0  0
 11 15  1  0  0  0  0
 11 16  1  0  0  0  0
 49 51  1  0  0  0  0
 49 52  1  0  0  0  0
 49 53  1  0  0  0  0
 21 31  1  0  0  0  0
 21 32  1  0  0  0  0
 39 44  1  0  0  0  0
  8 13  1  0  0  0  0
 18 30  1  0  0  0  0
 48 50  1  0  0  0  0
  7 12  1  0  0  0  0
 38 43  1  0  0  0  0
 17 29  1  0  0  0  0
 28 37  1  0  0  0  0
M  END
$$$$

  -OEChem-05262214473D

 53 53  0     1  0  0  0  0  0999 V2000
   -1.9298    0.2574    3.9747 C   0  0  0  0  0  0  0  0  0  0  0  0
   -0.9825   -0.3573    3.4990 O   0  0  0  0  0  0  0  0  0  0  0  0
   -2.3617   -0.0250    5.3754 C   0  0  0  0  0  0  0  0  0  0  0  0
   -3.1214   -0.8213    5.4288 H   0  0  0  0  0  0  0  0  0  0  0  0
   -1.5305   -0.3726    6.0097 H   0  0  0  0  0  0  0  0  0  0  0  0
   -2.7997    0.8299    5.9150 H   0  0  0  0  0  0  0  0  0  0  0  0
   -2.6795    1.2298    3.3336 N   0  0  0  0  0  0  0  0  0  0  0  0
   -2.4327    1.6559    1.9812 C   0  0  2  0  0  0  0  0  0  0  0  0
   -1.0977    1.0705    1.5400 C   0  0  0  0  0  0  0  0  0  0  0  0
   -0.2256    0.7177    2.3313 O   0  0  0  0  0  0  0  0  0  0  0  0
   -2.4239    3.1726    1.8718 C   0  0  0  0  0  0  0  0  0  0  0  0
   -3.4446    1.6657    3.8454 H   0  0  0  0  0  0  0  0  0  0  0  0
   -3.2368    1.2374    1.3661 H   0  0  0  0  0  0  0  0  0  0  0  0
   -1.6248    3.6099    2.4815 H   0  0  0  0  0  0  0  0  0  0  0  0
   -2.2644    3.4949    0.8375 H   0  0  0  0  0  0  0  0  0  0  0  0
   -3.3741    3.5939    2.2175 H   0  0  0  0  0  0  0  0  0  0  0  0
   -0.9750    1.0274    0.1566 N   0  0  0  0  0  0  0  0  0  0  0  0
    0.2023    0.5266   -0.5070 C   0  0  2  0  0  0  0  0  0  0  0  0
    0.1272    0.9790   -1.9609 C   0  0  0  0  0  0  0  0  0  0  0  0
   -0.9076    0.9351   -2.6228 O   0  0  0  0  0  0  0  0  0  0  0  0
    0.3053   -1.0010   -0.4289 C   0  0  0  0  0  0  0  0  0  0  0  0
    0.5391   -1.4990    0.9765 C   0  0  0  0  0  0  0  0  0  0  0  0
    1.8243   -1.4804    1.5184 C   0  0  0  0  0  0  0  0  0  0  0  0
   -0.5300   -1.9786    1.7332 C   0  0  0  0  0  0  0  0  0  0  0  0
    2.0403   -1.9412    2.8171 C   0  0  0  0  0  0  0  0  0  0  0  0
   -0.3140   -2.4395    3.0318 C   0  0  0  0  0  0  0  0  0  0  0  0
    0.9711   -2.4208    3.5738 C   0  0  0  0  0  0  0  0  0  0  0  0
    1.1823   -2.8717    4.8406 O   0  0  0  0  0  0  0  0  0  0  0  0
   -1.7582    1.3241   -0.4207 H   0  0  0  0  0  0  0  0  0  0  0  0
    1.0612    1.0083   -0.0252 H   0  0  0  0  0  0  0  0  0  0  0  0
    1.1072   -1.3623   -1.0870 H   0  0  0  0  0  0  0  0  0  0  0  0
   -0.6125   -1.4673   -0.8107 H   0  0  0  0  0  0  0  0  0  0  0  0
    2.6630   -1.1084    0.9361 H   0  0  0  0  0  0  0  0  0  0  0  0
   -1.5349   -1.9967    1.3190 H   0  0  0  0  0  0  0  0  0  0  0  0
    3.0439   -1.9244    3.2337 H   0  0  0  0  0  0  0  0  0  0  0  0
   -1.1508   -2.8121    3.6159 H   0  0  0  0  0  0  0  0  0  0  0  0
    0.3473   -3.1704    5.2348 H   0  0  0  0  0  0  0  0  0  0  0  0
    1.3396    1.4823   -2.4117 N   0  0  0  0  0  0  0  0  0  0  0  0
    1.5368    2.0004   -3.7465 C   0  0  2  0  0  0  0  0  0  0  0  0
    1.0022    0.9715   -4.7340 C   0  0  0  0  0  0  0  0  0  0  0  0
    0.8759   -0.2199   -4.4589 O   0  0  0  0  0  0  0  0  0  0  0  0
    3.0040    2.2986   -4.0131 C   0  0  0  0  0  0  0  0  0  0  0  0
    2.1280    1.4868   -1.7713 H   0  0  0  0  0  0  0  0  0  0  0  0
    0.9452    2.9194   -3.8196 H   0  0  0  0  0  0  0  0  0  0  0  0
    3.6126    1.3896   -3.9442 H   0  0  0  0  0  0  0  0  0  0  0  0
    3.1480    2.7177   -5.0145 H   0  0  0  0  0  0  0  0  0  0  0  0
    3.3946    3.0162   -3.2836 H   0  0  0  0  0  0  0  0  0  0  0  0
    0.7234    1.5325   -5.9724 N   0  0  0  0  0  0  0  0  0  0  0  0
    0.2167    0.7595   -7.0822 C   0  0  0  0  0  0  0  0  0  0  0  0
    0.8401    2.5327   -6.1056 H   0  0  0  0  0  0  0  0  0  0  0  0
    1.0572    0.4056   -7.6973 H   0  0  0  0  0  0  0  0  0  0  0  0
   -0.3470   -0.1043   -6.7002 H   0  0  0  0  0  0  0  0  0  0  0  0
   -0.4463    1.3883   -7.6945 H   0  0  0  0  0  0  0  0  0  0  0  0
 23 25  2  0  0  0  0
 22 23  1  0  0  0  0
 24 26  1  0  0  0  0
 22 24  2  0  0  0  0
 25 27  1  0  0  0  0
 26 27  2  0  0  0  0
 21 22  1  0  0  0  0
 27 28  1  0  0  0  0
  1  3  1  0  0  0  0
  1  7  1  0  0  0  0
  1  2  2  0  0  0  0
 39 40  1  0  0  0  0
 40 48  1  0  0  0  0
 40 41  2  0  0  0  0
  8  9  1  0  0  0  0
  9 17  1  0  0  0  0
  9 10  2  0  0  0  0
 18 19  1  0  0  0  0
 19 38  1  0  0  0  0
 19 20  2  0  0  0  0
 39 42  1  0  0  0  0
  8 11  1  0  0  0  0
 48 49  1  0  0  0  0
 18 21  1  0  0  0  0
 38 39  1  0  0  0  0
  7  8  1  0  0  0  0
 17 18  1  0  0  0  0
 23 33  1  0  0  0  0
 24 34  1  0  0  0  0
 25 35  1  0  0  0  0
 26 36  1  0  0  0  0
  3  4  1  0  0  0  0
  3  5  1  0  0  0  0
  3  6  1  0  0  0  0
 42 45  1  0  0  0  0
 42 46  1  0  0  0  0
 42 47  1  0  0  0  0
 11 14  1  0  0  0  0
 11 15  1  0  0  0  0
 11 16  1  0  0  0  0
 49 51  1  0  0  0  0
 49 52  1  0  0  0  0
 49 53  1  0  0  0  0
 21 31  1  0  0  0  0
 21 32  1  0  0  0  0
 39 44  1  0  0  0  0
  8 13  1  0  0  0  0
 18 30  1  0  0  0  0
 48 50  1  0  0  0  0
  7 12  1  0  0  0  0
 38 43  1  0  0  0  0
 17 29  1  0  0  0  0
 28 37  1  0  0  0  0
M  END
$$$$

  -OEChem-05262214473D

 53 53  0     1  0  0  0  0  0999 V2000
   -1.9298    0.2574    3.9747 C   0  0  0  0  0  0  0  0  0  0  0  0
   -0.9825   -0.3573    3.4990 O   0  0  0  0  0  0  0  0  0  0  0  0
   -2.3617   -0.0250    5.3754 C   0  0  0  0  0  0  0  0  0  0  0  0
   -3.1214   -0.8213    5.4288 H   0  0  0  0  0  0  0  0  0  0  0  0
   -1.5305   -0.3726    6.0097 H   0  0  0  0  0  0  0  0  0  0  0  0
   -2.7997    0.8299    5.9150 H   0  0  0  0  0  0  0  0  0  0  0  0
   -2.6795    1.2298    3.3336 N   0  0  0  0  0  0  0  0  0  0  0  0
   -2.4327    1.6559    1.9812 C   0  0  2  0  0  0  0  0  0  0  0  0
   -1.0977    1.0705    1.5400 C   0  0  0  0  0  0  0  0  0  0  0  0
   -0.2256    0.7177    2.3313 O   0  0  0  0  0  0  0  0  0  0  0  0
   -2.4239    3.1726    1.8718 C   0  0  0  0  0  0  0  0  0  0  0  0
   -3.4446    1.6657    3.8454 H   0  0  0  0  0  0  0  0  0  0  0  0
   -3.2368    1.2374    1.3661 H   0  0  0  0  0  0  0  0  0  0  0  0
   -1.6248    3.6099    2.4815 H   0  0  0  0  0  0  0  0  0  0  0  0
   -2.2644    3.4949    0.8375 H   0  0  0  0  0  0  0  0  0  0  0  0
   -3.3741    3.5939    2.2175 H   0  0  0  0  0  0  0  0  0  0  0  0
   -0.9750    1.0274    0.1566 N   0  0  0  0  0  0  0  0  0  0  0  0
    0.2023    0.5266   -0.5070 C   0  0  2  0  0  0  0  0  0  0  0  0
    0.1272    0.9790   -1.9609 C   0  0  0  0  0  0  0  0  0  0  0  0
   -0.9352    1.1904   -2.5419 O   0  0  0  0  0  0  0  0  0  0  0  0
    0.3053   -1.0010   -0.4289 C   0  0  0  0  0  0  0  0  0  0  0  0
    0.5391   -1.4990    0.9765 C   0  0  0  0  0  0  0  0  0  0  0  0
    1.8243   -1.4804    1.5184 C   0  0  0  0  0  0  0  0  0  0  0  0
   -0.5300   -1.9786    1.7332 C   0  0  0  0  0  0  0  0  0  0  0  0
    2.0403   -1.9412    2.8171 C   0  0  0  0  0  0  0  0  0  0  0  0
   -0.3140   -2.4395    3.0318 C   0  0  0  0  0  0  0  0  0  0  0  0
    0.9711   -2.4208    3.5738 C   0  0  0  0  0  0  0  0  0  0  0  0
    1.1823   -2.8717    4.8406 O   0  0  0  0  0  0  0  0  0  0  0  0
   -1.7582    1.3241   -0.4207 H   0  0  0  0  0  0  0  0  0  0  0  0
    1.0612    1.0083   -0.0252 H   0  0  0  0  0  0  0  0  0  0  0  0
    1.1072   -1.3623   -1.0870 H   0  0  0  0  0  0  0  0  0  0  0  0
   -0.6125   -1.4673   -0.8107 H   0  0  0  0  0  0  0  0  0  0  0  0
    2.6630   -1.1084    0.9361 H   0  0  0  0  0  0  0  0  0  0  0  0
   -1.5349   -1.9967    1.3190 H   0  0  0  0  0  0  0  0  0  0  0  0
    3.0439   -1.9244    3.2337 H   0  0  0  0  0  0  0  0  0  0  0  0
   -1.1508   -2.8121    3.6159 H   0  0  0  0  0  0  0  0  0  0  0  0
    0.3473   -3.1704    5.2348 H   0  0  0  0  0  0  0  0  0  0  0  0
    1.3870    1.1654   -2.5128 N   0  0  0  0  0  0  0  0  0  0  0  0
    1.6005    1.6145   -3.8698 C   0  0  2  0  0  0  0  0  0  0  0  0
    0.7532    0.7467   -4.7911 C   0  0  0  0  0  0  0  0  0  0  0  0
    0.3593   -0.3756   -4.4806 O   0  0  0  0  0  0  0  0  0  0  0  0
    3.0703    1.5397   -4.2527 C   0  0  0  0  0  0  0  0  0  0  0  0
    2.2000    0.9767   -1.9337 H   0  0  0  0  0  0  0  0  0  0  0  0
    1.2496    2.6511   -3.9188 H   0  0  0  0  0  0  0  0  0  0  0  0
    3.4398    0.5087   -4.2094 H   0  0  0  0  0  0  0  0  0  0  0  0
    3.2342    1.9071   -5.2711 H   0  0  0  0  0  0  0  0  0  0  0  0
    3.6817    2.1407   -3.5709 H   0  0  0  0  0  0  0  0  0  0  0  0
    0.5250    1.3554   -6.0173 N   0  0  0  0  0  0  0  0  0  0  0  0
   -0.2419    0.7283   -7.0683 C   0  0  0  0  0  0  0  0  0  0  0  0
    0.8736    2.2953   -6.1812 H   0  0  0  0  0  0  0  0  0  0  0  0
    0.4346    0.1756   -7.7368 H   0  0  0  0  0  0  0  0  0  0  0  0
   -0.9694    0.0319   -6.6256 H   0  0  0  0  0  0  0  0  0  0  0  0
   -0.7756    1.4997   -7.6429 H   0  0  0  0  0  0  0  0  0  0  0  0
 23 25  2  0  0  0  0
 22 23  1  0  0  0  0
 24 26  1  0  0  0  0
 22 24  2  0  0  0  0
 25 27  1  0  0  0  0
 26 27  2  0  0  0  0
 21 22  1  0  0  0  0
 27 28  1  0  0  0  0
  1  3  1  0  0  0  0
  1  7  1  0  0  0  0
  1  2  2  0  0  0  0
 39 40  1  0  0  0  0
 40 48  1  0  0  0  0
 40 41  2  0  0  0  0
  8  9  1  0  0  0  0
  9 17  1  0  0  0  0
  9 10  2  0  0  0  0
 18 19  1  0  0  0  0
 19 38  1  0  0  0  0
 19 20  2  0  0  0  0
 39 42  1  0  0  0  0
  8 11  1  0  0  0  0
 48 49  1  0  0  0  0
 18 21  1  0  0  0  0
 38 39  1  0  0  0  0
  7  8  1  0  0  0  0
 17 18  1  0  0  0  0
 23 33  1  0  0  0  0
 24 34  1  0  0  0  0
 25 35  1  0  0  0  0
 26 36  1  0  0  0  0
  3  4  1  0  0  0  0
  3  5  1  0  0  0  0
  3  6  1  0  0  0  0
 42 45  1  0  0  0  0
 42 46  1  0  0  0  0
 42 47  1  0  0  0  0
 11 14  1  0  0  0  0
 11 15  1  0  0  0  0
 11 16  1  0  0  0  0
 49 51  1  0  0  0  0
 49 52  1  0  0  0  0
 49 53  1  0  0  0  0
 21 31  1  0  0  0  0
 21 32  1  0  0  0  0
 39 44  1  0  0  0  0
  8 13  1  0  0  0  0
 18 30  1  0  0  0  0
 48 50  1  0  0  0  0
  7 12  1  0  0  0  0
 38 43  1  0  0  0  0
 17 29  1  0  0  0  0
 28 37  1  0  0  0  0
M  END
$$$$

  -OEChem-05262214473D

 53 53  0     1  0  0  0  0  0999 V2000
   -1.9298    0.2574    3.9747 C   0  0  0  0  0  0  0  0  0  0  0  0
   -0.9825   -0.3573    3.4990 O   0  0  0  0  0  0  0  0  0  0  0  0
   -2.3617   -0.0250    5.3754 C   0  0  0  0  0  0  0  0  0  0  0  0
   -3.1214   -0.8213    5.4288 H   0  0  0  0  0  0  0  0  0  0  0  0
   -1.5305   -0.3726    6.0097 H   0  0  0  0  0  0  0  0  0  0  0  0
   -2.7997    0.8299    5.9150 H   0  0  0  0  0  0  0  0  0  0  0  0
   -2.6795    1.2298    3.3336 N   0  0  0  0  0  0  0  0  0  0  0  0
   -2.4327    1.6559    1.9812 C   0  0  2  0  0  0  0  0  0  0  0  0
   -1.0977    1.0705    1.5400 C   0  0  0  0  0  0  0  0  0  0  0  0
   -0.2256    0.7177    2.3313 O   0  0  0  0  0  0  0  0  0  0  0  0
   -2.4239    3.1726    1.8718 C   0  0  0  0  0  0  0  0  0  0  0  0
   -3.4446    1.6657    3.8454 H   0  0  0  0  0  0  0  0  0  0  0  0
   -3.2368    1.2374    1.3661 H   0  0  0  0  0  0  0  0  0  0  0  0
   -1.6248    3.6099    2.4815 H   0  0  0  0  0  0  0  0  0  0  0  0
   -2.2644    3.4949    0.8375 H   0  0  0  0  0  0  0  0  0  0  0  0
   -3.3741    3.5939    2.2175 H   0  0  0  0  0  0  0  0  0  0  0  0
   -0.9750    1.0274    0.1566 N   0  0  0  0  0  0  0  0  0  0  0  0
    0.2023    0.5266   -0.5070 C   0  0  2  0  0  0  0  0  0  0  0  0
    0.1272    0.9790   -1.9609 C   0  0  0  0  0  0  0  0  0  0  0  0
   -0.8925    1.4448   -2.4650 O   0  0  0  0  0  0  0  0  0  0  0  0
    0.3053   -1.0010   -0.4289 C   0  0  0  0  0  0  0  0  0  0  0  0
    0.5391   -1.4990    0.9765 C   0  0  0  0  0  0  0  0  0  0  0  0
    1.8243   -1.4804    1.5184 C   0  0  0  0  0  0  0  0  0  0  0  0
   -0.5300   -1.9786    1.7332 C   0  0  0  0  0  0  0  0  0  0  0  0
    2.0403   -1.9412    2.8171 C   0  0  0  0  0  0  0  0  0  0  0  0
   -0.3140   -2.4395    3.0318 C   0  0  0  0  0  0  0  0  0  0  0  0
    0.9711   -2.4208    3.5738 C   0  0  0  0  0  0  0  0  0  0  0  0
    1.1823   -2.8717    4.8406 O   0  0  0  0  0  0  0  0  0  0  0  0
   -1.7582    1.3241   -0.4207 H   0  0  0  0  0  0  0  0  0  0  0  0
    1.0612    1.0083   -0.0252 H   0  0  0  0  0  0  0  0  0  0  0  0
    1.1072   -1.3623   -1.0870 H   0  0  0  0  0  0  0  0  0  0  0  0
   -0.6125   -1.4673   -0.8107 H   0  0  0  0  0  0  0  0  0  0  0  0
    2.6630   -1.1084    0.9361 H   0  0  0  0  0  0  0  0  0  0  0  0
   -1.5349   -1.9967    1.3190 H   0  0  0  0  0  0  0  0  0  0  0  0
    3.0439   -1.9244    3.2337 H   0  0  0  0  0  0  0  0  0  0  0  0
   -1.1508   -2.8121    3.6159 H   0  0  0  0  0  0  0  0  0  0  0  0
    0.3473   -3.1704    5.2348 H   0  0  0  0  0  0  0  0  0  0  0  0
    1.3469    0.8463   -2.6100 N   0  0  0  0  0  0  0  0  0  0  0  0
    1.5572    1.2244   -3.9890 C   0  0  2  0  0  0  0  0  0  0  0  0
    0.4528    0.5904   -4.8242 C   0  0  0  0  0  0  0  0  0  0  0  0
   -0.1798   -0.3987   -4.4600 O   0  0  0  0  0  0  0  0  0  0  0  0
    2.9287    0.7873   -4.4795 C   0  0  0  0  0  0  0  0  0  0  0  0
    2.1311    0.4642   -2.0896 H   0  0  0  0  0  0  0  0  0  0  0  0
    1.4698    2.3154   -4.0346 H   0  0  0  0  0  0  0  0  0  0  0  0
    3.0350   -0.3030   -4.4411 H   0  0  0  0  0  0  0  0  0  0  0  0
    3.0977    1.0995   -5.5154 H   0  0  0  0  0  0  0  0  0  0  0  0
    3.7208    1.2205   -3.8593 H   0  0  0  0  0  0  0  0  0  0  0  0
    0.2861    1.2328   -6.0431 N   0  0  0  0  0  0  0  0  0  0  0  0
   -0.6916    0.8116   -7.0191 C   0  0  0  0  0  0  0  0  0  0  0  0
    0.8416    2.0567   -6.2538 H   0  0  0  0  0  0  0  0  0  0  0  0
   -0.2266    0.1067   -7.7241 H   0  0  0  0  0  0  0  0  0  0  0  0
   -1.5312    0.3181   -6.5076 H   0  0  0  0  0  0  0  0  0  0  0  0
   -1.0621    1.6892   -7.5691 H   0  0  0  0  0  0  0  0  0  0  0  0
 23 25  2  0  0  0  0
 22 23  1  0  0  0  0
 24 26  1  0  0  0  0
 22 24  2  0  0  0  0
 25 27  1  0  0  0  0
 26 27  2  0  0  0  0
 21 22  1  0  0  0  0
 27 28  1  0  0  0  0
  1  3  1  0  0  0  0
  1  7  1  0  0  0  0
  1  2  2  0  0  0  0
 39 40  1  0  0  0  0
 40 48  1  0  0  0  0
 40 41  2  0  0  0  0
  8  9  1  0  0  0  0
  9 17  1  0  0  0  0
  9 10  2  0  0  0  0
 18 19  1  0  0  0  0
 19 38  1  0  0  0  0
 19 20  2  0  0  0  0
 39 42  1  0  0  0  0
  8 11  1  0  0  0  0
 48 49  1  0  0  0  0
 18 21  1  0  0  0  0
 38 39  1  0  0  0  0
  7  8  1  0  0  0  0
 17 18  1  0  0  0  0
 23 33  1  0  0  0  0
 24 34  1  0  0  0  0
 25 35  1  0  0  0  0
 26 36  1  0  0  0  0
  3  4  1  0  0  0  0
  3  5  1  0  0  0  0
  3  6  1  0  0  0  0
 42 45  1  0  0  0  0
 42 46  1  0  0  0  0
 42 47  1  0  0  0  0
 11 14  1  0  0  0  0
 11 15  1  0  0  0  0
 11 16  1  0  0  0  0
 49 51  1  0  0  0  0
 49 52  1  0  0  0  0
 49 53  1  0  0  0  0
 21 31  1  0  0  0  0
 21 32  1  0  0  0  0
 39 44  1  0  0  0  0
  8 13  1  0  0  0  0
 18 30  1  0  0  0  0
 48 50  1  0  0  0  0
  7 12  1  0  0  0  0
 38 43  1  0  0  0  0
 17 29  1  0  0  0  0
 28 37  1  0  0  0  0
M  END
$$$$

  -OEChem-05262214473D

 53 53  0     1  0  0  0  0  0999 V2000
   -1.9298    0.2574    3.9747 C   0  0  0  0  0  0  0  0  0  0  0  0
   -0.9825   -0.3573    3.4990 O   0  0  0  0  0  0  0  0  0  0  0  0
   -2.3617   -0.0250    5.3754 C   0  0  0  0  0  0  0  0  0  0  0  0
   -3.1214   -0.8213    5.4288 H   0  0  0  0  0  0  0  0  0  0  0  0
   -1.5305   -0.3726    6.0097 H   0  0  0  0  0  0  0  0  0  0  0  0
   -2.7997    0.8299    5.9150 H   0  0  0  0  0  0  0  0  0  0  0  0
   -2.6795    1.2298    3.3336 N   0  0  0  0  0  0  0  0  0  0  0  0
   -2.4327    1.6559    1.9812 C   0  0  2  0  0  0  0  0  0  0  0  0
   -1.0977    1.0705    1.5400 C   0  0  0  0  0  0  0  0  0  0  0  0
   -0.2256    0.7177    2.3313 O   0  0  0  0  0  0  0  0  0  0  0  0
   -2.4239    3.1726    1.8718 C   0  0  0  0  0  0  0  0  0  0  0  0
   -3.4446    1.6657    3.8454 H   0  0  0  0  0  0  0  0  0  0  0  0
   -3.2368    1.2374    1.3661 H   0  0  0  0  0  0  0  0  0  0  0  0
   -1.6248    3.6099    2.4815 H   0  0  0  0  0  0  0  0  0  0  0  0
   -2.2644    3.4949    0.8375 H   0  0  0  0  0  0  0  0  0  0  0  0
   -3.3741    3.5939    2.2175 H   0  0  0  0  0  0  0  0  0  0  0  0
   -0.9750    1.0274    0.1566 N   0  0  0  0  0  0  0  0  0  0  0  0
    0.2023    0.5266   -0.5070 C   0  0  2  0  0  0  0  0  0  0  0  0
    0.3270    1.2746   -1.8296 C   0  0  0  0  0  0  0  0  0  0  0  0
   -0.4509    2.1626   -2.1720 O   0  0  0  0  0  0  0  0  0  0  0  0
    0.1289   -0.9846   -0.7543 C   0  0  0  0  0  0  0  0  0  0  0  0
    0.1611   -1.7873    0.5233 C   0  0  0  0  0  0  0  0  0  0  0  0
    1.3780   -2.0464    1.1539 C   0  0  0  0  0  0  0  0  0  0  0  0
   -1.0262   -2.2706    1.0732 C   0  0  0  0  0  0  0  0  0  0  0  0
    1.4076   -2.7888    2.3344 C   0  0  0  0  0  0  0  0  0  0  0  0
   -0.9966   -3.0130    2.2538 C   0  0  0  0  0  0  0  0  0  0  0  0
    0.2204   -3.2721    2.8843 C   0  0  0  0  0  0  0  0  0  0  0  0
    0.2496   -3.9975    4.0356 O   0  0  0  0  0  0  0  0  0  0  0  0
   -1.7582    1.3241   -0.4207 H   0  0  0  0  0  0  0  0  0  0  0  0
    1.0547    0.7839    0.1326 H   0  0  0  0  0  0  0  0  0  0  0  0
    0.9497   -1.3028   -1.4113 H   0  0  0  0  0  0  0  0  0  0  0  0
   -0.7904   -1.2401   -1.2978 H   0  0  0  0  0  0  0  0  0  0  0  0
    2.3078   -1.6738    0.7326 H   0  0  0  0  0  0  0  0  0  0  0  0
   -1.9791   -2.0734    0.5888 H   0  0  0  0  0  0  0  0  0  0  0  0
    2.3589   -2.9876    2.8209 H   0  0  0  0  0  0  0  0  0  0  0  0
   -1.9247   -3.3869    2.6769 H   0  0  0  0  0  0  0  0  0  0  0  0
   -0.6491   -4.2610    4.2901 H   0  0  0  0  0  0  0  0  0  0  0  0
    1.4375    0.8658   -2.5550 N   0  0  0  0  0  0  0  0  0  0  0  0
    1.8013    1.4305   -3.8347 C   0  0  2  0  0  0  0  0  0  0  0  0
    0.5652    1.4145   -4.7243 C   0  0  0  0  0  0  0  0  0  0  0  0
   -0.3838    0.6551   -4.5404 O   0  0  0  0  0  0  0  0  0  0  0  0
    2.9428    0.6572   -4.4763 C   0  0  0  0  0  0  0  0  0  0  0  0
    2.0240    0.1329   -2.1669 H   0  0  0  0  0  0  0  0  0  0  0  0
    2.1046    2.4665   -3.6485 H   0  0  0  0  0  0  0  0  0  0  0  0
    2.6576   -0.3833   -4.6704 H   0  0  0  0  0  0  0  0  0  0  0  0
    3.2362    1.1032   -5.4323 H   0  0  0  0  0  0  0  0  0  0  0  0
    3.8211    0.6444   -3.8220 H   0  0  0  0  0  0  0  0  0  0  0  0
    0.6653    2.3179   -5.7730 N   0  0  0  0  0  0  0  0  0  0  0  0
   -0.3738    2.4819   -6.7626 C   0  0  0  0  0  0  0  0  0  0  0  0
    1.4802    2.9209   -5.8370 H   0  0  0  0  0  0  0  0  0  0  0  0
   -0.1695    1.8260   -7.6218 H   0  0  0  0  0  0  0  0  0  0  0  0
   -1.3456    2.2158   -6.3213 H   0  0  0  0  0  0  0  0  0  0  0  0
   -0.3981    3.5291   -7.0985 H   0  0  0  0  0  0  0  0  0  0  0  0
 23 25  2  0  0  0  0
 22 23  1  0  0  0  0
 24 26  1  0  0  0  0
 22 24  2  0  0  0  0
 25 27  1  0  0  0  0
 26 27  2  0  0  0  0
 21 22  1  0  0  0  0
 27 28  1  0  0  0  0
  1  3  1  0  0  0  0
  1  7  1  0  0  0  0
  1  2  2  0  0  0  0
 39 40  1  0  0  0  0
 40 48  1  0  0  0  0
 40 41  2  0  0  0  0
  8  9  1  0  0  0  0
  9 17  1  0  0  0  0
  9 10  2  0  0  0  0
 18 19  1  0  0  0  0
 19 38  1  0  0  0  0
 19 20  2  0  0  0  0
 39 42  1  0  0  0  0
  8 11  1  0  0  0  0
 48 49  1  0  0  0  0
 18 21  1  0  0  0  0
 38 39  1  0  0  0  0
  7  8  1  0  0  0  0
 17 18  1  0  0  0  0
 23 33  1  0  0  0  0
 24 34  1  0  0  0  0
 25 35  1  0  0  0  0
 26 36  1  0  0  0  0
  3  4  1  0  0  0  0
  3  5  1  0  0  0  0
  3  6  1  0  0  0  0
 42 45  1  0  0  0  0
 42 46  1  0  0  0  0
 42 47  1  0  0  0  0
 11 14  1  0  0  0  0
 11 15  1  0  0  0  0
 11 16  1  0  0  0  0
 49 51  1  0  0  0  0
 49 52  1  0  0  0  0
 49 53  1  0  0  0  0
 21 31  1  0  0  0  0
 21 32  1  0  0  0  0
 39 44  1  0  0  0  0
  8 13  1  0  0  0  0
 18 30  1  0  0  0  0
 48 50  1  0  0  0  0
  7 12  1  0  0  0  0
 38 43  1  0  0  0  0
 17 29  1  0  0  0  0
 28 37  1  0  0  0  0
M  END
$$$$

  -OEChem-05262214473D

 53 53  0     1  0  0  0  0  0999 V2000
   -1.9298    0.2574    3.9747 C   0  0  0  0  0  0  0  0  0  0  0  0
   -0.9825   -0.3573    3.4990 O   0  0  0  0  0  0  0  0  0  0  0  0
   -2.3617   -0.0250    5.3754 C   0  0  0  0  0  0  0  0  0  0  0  0
   -3.1214   -0.8213    5.4288 H   0  0  0  0  0  0  0  0  0  0  0  0
   -1.5305   -0.3726    6.0097 H   0  0  0  0  0  0  0  0  0  0  0  0
   -2.7997    0.8299    5.9150 H   0  0  0  0  0  0  0  0  0  0  0  0
   -2.6795    1.2298    3.3336 N   0  0  0  0  0  0  0  0  0  0  0  0
   -2.4327    1.6559    1.9812 C   0  0  2  0  0  0  0  0  0  0  0  0
   -1.0977    1.0705    1.5400 C   0  0  0  0  0  0  0  0  0  0  0  0
   -0.2256    0.7177    2.3313 O   0  0  0  0  0  0  0  0  0  0  0  0
   -2.4239    3.1726    1.8718 C   0  0  0  0  0  0  0  0  0  0  0  0
   -3.4446    1.6657    3.8454 H   0  0  0  0  0  0  0  0  0  0  0  0
   -3.2368    1.2374    1.3661 H   0  0  0  0  0  0  0  0  0  0  0  0
   -1.6248    3.6099    2.4815 H   0  0  0  0  0  0  0  0  0  0  0  0
   -2.2644    3.4949    0.8375 H   0  0  0  0  0  0  0  0  0  0  0  0
   -3.3741    3.5939    2.2175 H   0  0  0  0  0  0  0  0  0  0  0  0
   -0.9750    1.0274    0.1566 N   0  0  0  0  0  0  0  0  0  0  0  0
    0.2023    0.5266   -0.5070 C   0  0  2  0  0  0  0  0  0  0  0  0
    0.3270    1.2746   -1.8296 C   0  0  0  0  0  0  0  0  0  0  0  0
   -0.2666    2.3254   -2.0625 O   0  0  0  0  0  0  0  0  0  0  0  0
    0.1289   -0.9846   -0.7543 C   0  0  0  0  0  0  0  0  0  0  0  0
    0.1611   -1.7873    0.5233 C   0  0  0  0  0  0  0  0  0  0  0  0
    1.3780   -2.0464    1.1539 C   0  0  0  0  0  0  0  0  0  0  0  0
   -1.0262   -2.2706    1.0732 C   0  0  0  0  0  0  0  0  0  0  0  0
    1.4076   -2.7888    2.3344 C   0  0  0  0  0  0  0  0  0  0  0  0
   -0.9966   -3.0130    2.2538 C   0  0  0  0  0  0  0  0  0  0  0  0
    0.2204   -3.2721    2.8843 C   0  0  0  0  0  0  0  0  0  0  0  0
    0.2496   -3.9975    4.0356 O   0  0  0  0  0  0  0  0  0  0  0  0
   -1.7582    1.3241   -0.4207 H   0  0  0  0  0  0  0  0  0  0  0  0
    1.0547    0.7839    0.1326 H   0  0  0  0  0  0  0  0  0  0  0  0
    0.9497   -1.3028   -1.4113 H   0  0  0  0  0  0  0  0  0  0  0  0
   -0.7904   -1.2401   -1.2978 H   0  0  0  0  0  0  0  0  0  0  0  0
    2.3078   -1.6738    0.7326 H   0  0  0  0  0  0  0  0  0  0  0  0
   -1.9791   -2.0734    0.5888 H   0  0  0  0  0  0  0  0  0  0  0  0
    2.3589   -2.9876    2.8209 H   0  0  0  0  0  0  0  0  0  0  0  0
   -1.9247   -3.3869    2.6769 H   0  0  0  0  0  0  0  0  0  0  0  0
   -0.6491   -4.2610    4.2901 H   0  0  0  0  0  0  0  0  0  0  0  0
    1.2172    0.6544   -2.6953 N   0  0  0  0  0  0  0  0  0  0  0  0
    1.5368    1.1690   -4.0075 C   0  0  2  0  0  0  0  0  0  0  0  0
    0.2282    1.4610   -4.7297 C   0  0  0  0  0  0  0  0  0  0  0  0
   -0.8374    0.9264   -4.4297 O   0  0  0  0  0  0  0  0  0  0  0  0
    2.3851    0.1838   -4.7966 C   0  0  0  0  0  0  0  0  0  0  0  0
    1.6666   -0.2042   -2.3913 H   0  0  0  0  0  0  0  0  0  0  0  0
    2.0871    2.1039   -3.8552 H   0  0  0  0  0  0  0  0  0  0  0  0
    1.8503   -0.7591   -4.9591 H   0  0  0  0  0  0  0  0  0  0  0  0
    2.6503    0.5870   -5.7795 H   0  0  0  0  0  0  0  0  0  0  0  0
    3.3123   -0.0479   -4.2615 H   0  0  0  0  0  0  0  0  0  0  0  0
    0.3983    2.3561   -5.7766 N   0  0  0  0  0  0  0  0  0  0  0  0
   -0.6919    2.7831   -6.6223 C   0  0  0  0  0  0  0  0  0  0  0  0
    1.3139    2.7640   -5.9415 H   0  0  0  0  0  0  0  0  0  0  0  0
   -0.7496    2.1292   -7.5050 H   0  0  0  0  0  0  0  0  0  0  0  0
   -1.6359    2.7250   -6.0607 H   0  0  0  0  0  0  0  0  0  0  0  0
   -0.5206    3.8206   -6.9452 H   0  0  0  0  0  0  0  0  0  0  0  0
 23 25  2  0  0  0  0
 22 23  1  0  0  0  0
 24 26  1  0  0  0  0
 22 24  2  0  0  0  0
 25 27  1  0  0  0  0
 26 27  2  0  0  0  0
 21 22  1  0  0  0  0
 27 28  1  0  0  0  0
  1  3  1  0  0  0  0
  1  7  1  0  0  0  0
  1  2  2  0  0  0  0
 39 40  1  0  0  0  0
 40 48  1  0  0  0  0
 40 41  2  0  0  0  0
  8  9  1  0  0  0  0
  9 17  1  0  0  0  0
  9 10  2  0  0  0  0
 18 19  1  0  0  0  0
 19 38  1  0  0  0  0
 19 20  2  0  0  0  0
 39 42  1  0  0  0  0
  8 11  1  0  0  0  0
 48 49  1  0  0  0  0
 18 21  1  0  0  0  0
 38 39  1  0  0  0  0
  7  8  1  0  0  0  0
 17 18  1  0  0  0  0
 23 33  1  0  0  0  0
 24 34  1  0  0  0  0
 25 35  1  0  0  0  0
 26 36  1  0  0  0  0
  3  4  1  0  0  0  0
  3  5  1  0  0  0  0
  3  6  1  0  0  0  0
 42 45  1  0  0  0  0
 42 46  1  0  0  0  0
 42 47  1  0  0  0  0
 11 14  1  0  0  0  0
 11 15  1  0  0  0  0
 11 16  1  0  0  0  0
 49 51  1  0  0  0  0
 49 52  1  0  0  0  0
 49 53  1  0  0  0  0
 21 31  1  0  0  0  0
 21 32  1  0  0  0  0
 39 44  1  0  0  0  0
  8 13  1  0  0  0  0
 18 30  1  0  0  0  0
 48 50  1  0  0  0  0
  7 12  1  0  0  0  0
 38 43  1  0  0  0  0
 17 29  1  0  0  0  0
 28 37  1  0  0  0  0
M  END
$$$$

  -OEChem-05262214473D

 53 53  0     1  0  0  0  0  0999 V2000
   -1.9298    0.2574    3.9747 C   0  0  0  0  0  0  0  0  0  0  0  0
   -0.9825   -0.3573    3.4990 O   0  0  0  0  0  0  0  0  0  0  0  0
   -2.3617   -0.0250    5.3754 C   0  0  0  0  0  0  0  0  0  0  0  0
   -3.1214   -0.8213    5.4288 H   0  0  0  0  0  0  0  0  0  0  0  0
   -1.5305   -0.3726    6.0097 H   0  0  0  0  0  0  0  0  0  0  0  0
   -2.7997    0.8299    5.9150 H   0  0  0  0  0  0  0  0  0  0  0  0
   -2.6795    1.2298    3.3336 N   0  0  0  0  0  0  0  0  0  0  0  0
   -2.4327    1.6559    1.9812 C   0  0  2  0  0  0  0  0  0  0  0  0
   -1.0977    1.0705    1.5400 C   0  0  0  0  0  0  0  0  0  0  0  0
   -0.2256    0.7177    2.3313 O   0  0  0  0  0  0  0  0  0  0  0  0
   -2.4239    3.1726    1.8718 C   0  0  0  0  0  0  0  0  0  0  0  0
   -3.4446    1.6657    3.8454 H   0  0  0  0  0  0  0  0  0  0  0  0
   -3.2368    1.2374    1.3661 H   0  0  0  0  0  0  0  0  0  0  0  0
   -1.6248    3.6099    2.4815 H   0  0  0  0  0  0  0  0  0  0  0  0
   -2.2644    3.4949    0.8375 H   0  0  0  0  0  0  0  0  0  0  0  0
   -3.3741    3.5939    2.2175 H   0  0  0  0  0  0  0  0  0  0  0  0
   -0.9750    1.0274    0.1566 N   0  0  0  0  0  0  0  0  0  0  0  0
    0.2023    0.5266   -0.5070 C   0  0  2  0  0  0  0  0  0  0  0  0
    0.3270    1.2746   -1.8296 C   0  0  0  0  0  0  0  0  0  0  0  0
   -0.0382    2.4390   -1.9768 O   0  0  0  0  0  0  0  0  0  0  0  0
    0.1289   -0.9846   -0.7543 C   0  0  0  0  0  0  0  0  0  0  0  0
    0.1611   -1.7873    0.5233 C   0  0  0  0  0  0  0  0  0  0  0  0
    1.3780   -2.0464    1.1539 C   0  0  0  0  0  0  0  0  0  0  0  0
   -1.0262   -2.2706    1.0732 C   0  0  0  0  0  0  0  0  0  0  0  0
    1.4076   -2.7888    2.3344 C   0  0  0  0  0  0  0  0  0  0  0  0
   -0.9966   -3.0130    2.2538 C   0  0  0  0  0  0  0  0  0  0  0  0
    0.2204   -3.2721    2.8843 C   0  0  0  0  0  0  0  0  0  0  0  0
    0.2496   -3.9975    4.0356 O   0  0  0  0  0  0  0  0  0  0  0  0
   -1.7582    1.3241   -0.4207 H   0  0  0  0  0  0  0  0  0  0  0  0
    1.0547    0.7839    0.1326 H   0  0  0  0  0  0  0  0  0  0  0  0
    0.9497   -1.3028   -1.4113 H   0  0  0  0  0  0  0  0  0  0  0  0
   -0.7904   -1.2401   -1.2978 H   0  0  0  0  0  0  0  0  0  0  0  0
    2.3078   -1.6738    0.7326 H   0  0  0  0  0  0  0  0  0  0  0  0
   -1.9791   -2.0734    0.5888 H   0  0  0  0  0  0  0  0  0  0  0  0
    2.3589   -2.9876    2.8209 H   0  0  0  0  0  0  0  0  0  0  0  0
   -1.9247   -3.3869    2.6769 H   0  0  0  0  0  0  0  0  0  0  0  0
   -0.6491   -4.2610    4.2901 H   0  0  0  0  0  0  0  0  0  0  0  0
    0.9391    0.5027   -2.8073 N   0  0  0  0  0  0  0  0  0  0  0  0
    1.2007    0.9794   -4.1464 C   0  0  2  0  0  0  0  0  0  0  0  0
   -0.0877    1.5817   -4.6913 C   0  0  0  0  0  0  0  0  0  0  0  0
   -1.2005    1.2881   -4.2594 O   0  0  0  0  0  0  0  0  0  0  0  0
    1.6994   -0.1414   -5.0452 C   0  0  0  0  0  0  0  0  0  0  0  0
    1.2173   -0.4449   -2.5698 H   0  0  0  0  0  0  0  0  0  0  0  0
    1.9625    1.7619   -4.0604 H   0  0  0  0  0  0  0  0  0  0  0  0
    0.9495   -0.9348   -5.1434 H   0  0  0  0  0  0  0  0  0  0  0  0
    1.9243    0.2272   -6.0514 H   0  0  0  0  0  0  0  0  0  0  0  0
    2.6096   -0.5932   -4.6362 H   0  0  0  0  0  0  0  0  0  0  0  0
    0.1485    2.4531   -5.7453 N   0  0  0  0  0  0  0  0  0  0  0  0
   -0.9136    3.1424   -6.4400 C   0  0  0  0  0  0  0  0  0  0  0  0
    1.1047    2.6519   -6.0246 H   0  0  0  0  0  0  0  0  0  0  0  0
   -1.2271    2.5499   -7.3121 H   0  0  0  0  0  0  0  0  0  0  0  0
   -1.7689    3.2764   -5.7613 H   0  0  0  0  0  0  0  0  0  0  0  0
   -0.5541    4.1264   -6.7754 H   0  0  0  0  0  0  0  0  0  0  0  0
 23 25  2  0  0  0  0
 22 23  1  0  0  0  0
 24 26  1  0  0  0  0
 22 24  2  0  0  0  0
 25 27  1  0  0  0  0
 26 27  2  0  0  0  0
 21 22  1  0  0  0  0
 27 28  1  0  0  0  0
  1  3  1  0  0  0  0
  1  7  1  0  0  0  0
  1  2  2  0  0  0  0
 39 40  1  0  0  0  0
 40 48  1  0  0  0  0
 40 41  2  0  0  0  0
  8  9  1  0  0  0  0
  9 17  1  0  0  0  0
  9 10  2  0  0  0  0
 18 19  1  0  0  0  0
 19 38  1  0  0  0  0
 19 20  2  0  0  0  0
 39 42  1  0  0  0  0
  8 11  1  0  0  0  0
 48 49  1  0  0  0  0
 18 21  1  0  0  0  0
 38 39  1  0  0  0  0
  7  8  1  0  0  0  0
 17 18  1  0  0  0  0
 23 33  1  0  0  0  0
 24 34  1  0  0  0  0
 25 35  1  0  0  0  0
 26 36  1  0  0  0  0
  3  4  1  0  0  0  0
  3  5  1  0  0  0  0
  3  6  1  0  0  0  0
 42 45  1  0  0  0  0
 42 46  1  0  0  0  0
 42 47  1  0  0  0  0
 11 14  1  0  0  0  0
 11 15  1  0  0  0  0
 11 16  1  0  0  0  0
 49 51  1  0  0  0  0
 49 52  1  0  0  0  0
 49 53  1  0  0  0  0
 21 31  1  0  0  0  0
 21 32  1  0  0  0  0
 39 44  1  0  0  0  0
  8 13  1  0  0  0  0
 18 30  1  0  0  0  0
 48 50  1  0  0  0  0
  7 12  1  0  0  0  0
 38 43  1  0  0  0  0
 17 29  1  0  0  0  0
 28 37  1  0  0  0  0
M  END
$$$$

  -OEChem-05262214473D

 53 53  0     1  0  0  0  0  0999 V2000
   -1.9298    0.2574    3.9747 C   0  0  0  0  0  0  0  0  0  0  0  0
   -0.9825   -0.3573    3.4990 O   0  0  0  0  0  0  0  0  0  0  0  0
   -2.3617   -0.0250    5.3754 C   0  0  0  0  0  0  0  0  0  0  0  0
   -3.1214   -0.8213    5.4288 H   0  0  0  0  0  0  0  0  0  0  0  0
   -1.5305   -0.3726    6.0097 H   0  0  0  0  0  0  0  0  0  0  0  0
   -2.7997    0.8299    5.9150 H   0  0  0  0  0  0  0  0  0  0  0  0
   -2.6795    1.2298    3.3336 N   0  0  0  0  0  0  0  0  0  0  0  0
   -2.4327    1.6559    1.9812 C   0  0  2  0  0  0  0  0  0  0  0  0
   -1.0977    1.0705    1.5400 C   0  0  0  0  0  0  0  0  0  0  0  0
   -0.2256    0.7177    2.3313 O   0  0  0  0  0  0  0  0  0  0  0  0
   -2.4239    3.1726    1.8718 C   0  0  0  0  0  0  0  0  0  0  0  0
   -3.4446    1.6657    3.8454 H   0  0  0  0  0  0  0  0  0  0  0  0
   -3.2368    1.2374    1.3661 H   0  0  0  0  0  0  0  0  0  0  0  0
   -1.6248    3.6099    2.4815 H   0  0  0  0  0  0  0  0  0  0  0  0
   -2.2644    3.4949    0.8375 H   0  0  0  0  0  0  0  0  0  0  0  0
   -3.3741    3.5939    2.2175 H   0  0  0  0  0  0  0  0  0  0  0  0
   -0.9750    1.0274    0.1566 N   0  0  0  0  0  0  0  0  0  0  0  0
    0.2023    0.5266   -0.5070 C   0  0  2  0  0  0  0  0  0  0  0  0
    0.3270    1.2746   -1.8296 C   0  0  0  0  0  0  0  0  0  0  0  0
    0.2189    2.4956   -1.9205 O   0  0  0  0  0  0  0  0  0  0  0  0
    0.1289   -0.9846   -0.7543 C   0  0  0  0  0  0  0  0  0  0  0  0
    0.1611   -1.7873    0.5233 C   0  0  0  0  0  0  0  0  0  0  0  0
    1.3780   -2.0464    1.1539 C   0  0  0  0  0  0  0  0  0  0  0  0
   -1.0262   -2.2706    1.0732 C   0  0  0  0  0  0  0  0  0  0  0  0
    1.4076   -2.7888    2.3344 C   0  0  0  0  0  0  0  0  0  0  0  0
   -0.9966   -3.0130    2.2538 C   0  0  0  0  0  0  0  0  0  0  0  0
    0.2204   -3.2721    2.8843 C   0  0  0  0  0  0  0  0  0  0  0  0
    0.2496   -3.9975    4.0356 O   0  0  0  0  0  0  0  0  0  0  0  0
   -1.7582    1.3241   -0.4207 H   0  0  0  0  0  0  0  0  0  0  0  0
    1.0547    0.7839    0.1326 H   0  0  0  0  0  0  0  0  0  0  0  0
    0.9497   -1.3028   -1.4113 H   0  0  0  0  0  0  0  0  0  0  0  0
   -0.7904   -1.2401   -1.2978 H   0  0  0  0  0  0  0  0  0  0  0  0
    2.3078   -1.6738    0.7326 H   0  0  0  0  0  0  0  0  0  0  0  0
   -1.9791   -2.0734    0.5888 H   0  0  0  0  0  0  0  0  0  0  0  0
    2.3589   -2.9876    2.8209 H   0  0  0  0  0  0  0  0  0  0  0  0
   -1.9247   -3.3869    2.6769 H   0  0  0  0  0  0  0  0  0  0  0  0
   -0.6491   -4.2610    4.2901 H   0  0  0  0  0  0  0  0  0  0  0  0
    0.6222    0.4210   -2.8834 N   0  0  0  0  0  0  0  0  0  0  0  0
    0.8159    0.8747   -4.2419 C   0  0  2  0  0  0  0  0  0  0  0  0
   -0.3607    1.7684   -4.6114 C   0  0  0  0  0  0  0  0  0  0  0  0
   -1.4484    1.7153   -4.0412 O   0  0  0  0  0  0  0  0  0  0  0  0
    0.9326   -0.2963   -5.2051 C   0  0  0  0  0  0  0  0  0  0  0  0
    0.7065   -0.5727   -2.6902 H   0  0  0  0  0  0  0  0  0  0  0  0
    1.7394    1.4639   -4.2499 H   0  0  0  0  0  0  0  0  0  0  0  0
    0.0166   -0.8983   -5.2107 H   0  0  0  0  0  0  0  0  0  0  0  0
    1.1077    0.0485   -6.2295 H   0  0  0  0  0  0  0  0  0  0  0  0
    1.7608   -0.9541   -4.9204 H   0  0  0  0  0  0  0  0  0  0  0  0
   -0.0670    2.6021   -5.6814 N   0  0  0  0  0  0  0  0  0  0  0  0
   -1.0240    3.5355   -6.2281 C   0  0  0  0  0  0  0  0  0  0  0  0
    0.8669    2.5924   -6.0807 H   0  0  0  0  0  0  0  0  0  0  0  0
   -1.5694    3.0593   -7.0563 H   0  0  0  0  0  0  0  0  0  0  0  0
   -1.7355    3.8326   -5.4436 H   0  0  0  0  0  0  0  0  0  0  0  0
   -0.4961    4.4257   -6.6007 H   0  0  0  0  0  0  0  0  0  0  0  0
 23 25  2  0  0  0  0
 22 23  1  0  0  0  0
 24 26  1  0  0  0  0
 22 24  2  0  0  0  0
 25 27  1  0  0  0  0
 26 27  2  0  0  0  0
 21 22  1  0  0  0  0
 27 28  1  0  0  0  0
  1  3  1  0  0  0  0
  1  7  1  0  0  0  0
  1  2  2  0  0  0  0
 39 40  1  0  0  0  0
 40 48  1  0  0  0  0
 40 41  2  0  0  0  0
  8  9  1  0  0  0  0
  9 17  1  0  0  0  0
  9 10  2  0  0  0  0
 18 19  1  0  0  0  0
 19 38  1  0  0  0  0
 19 20  2  0  0  0  0
 39 42  1  0  0  0  0
  8 11  1  0  0  0  0
 48 49  1  0  0  0  0
 18 21  1  0  0  0  0
 38 39  1  0  0  0  0
  7  8  1  0  0  0  0
 17 18  1  0  0  0  0
 23 33  1  0  0  0  0
 24 34  1  0  0  0  0
 25 35  1  0  0  0  0
 26 36  1  0  0  0  0
  3  4  1  0  0  0  0
  3  5  1  0  0  0  0
  3  6  1  0  0  0  0
 42 45  1  0  0  0  0
 42 46  1  0  0  0  0
 42 47  1  0  0  0  0
 11 14  1  0  0  0  0
 11 15  1  0  0  0  0
 11 16  1  0  0  0  0
 49 51  1  0  0  0  0
 49 52  1  0  0  0  0
 49 53  1  0  0  0  0
 21 31  1  0  0  0  0
 21 32  1  0  0  0  0
 39 44  1  0  0  0  0
  8 13  1  0  0  0  0
 18 30  1  0  0  0  0
 48 50  1  0  0  0  0
  7 12  1  0  0  0  0
 38 43  1  0  0  0  0
 17 29  1  0  0  0  0
 28 37  1  0  0  0  0
M  END
$$$$

  -OEChem-05262214473D

 53 53  0     1  0  0  0  0  0999 V2000
   -1.9298    0.2574    3.9747 C   0  0  0  0  0  0  0  0  0  0  0  0
   -0.9825   -0.3573    3.4990 O   0  0  0  0  0  0  0  0  0  0  0  0
   -2.3617   -0.0250    5.3754 C   0  0  0  0  0  0  0  0  0  0  0  0
   -3.1214   -0.8213    5.4288 H   0  0  0  0  0  0  0  0  0  0  0  0
   -1.5305   -0.3726    6.0097 H   0  0  0  0  0  0  0  0  0  0  0  0
   -2.7997    0.8299    5.9150 H   0  0  0  0  0  0  0  0  0  0  0  0
   -2.6795    1.2298    3.3336 N   0  0  0  0  0  0  0  0  0  0  0  0
   -2.4327    1.6559    1.9812 C   0  0  2  0  0  0  0  0  0  0  0  0
   -1.0977    1.0705    1.5400 C   0  0  0  0  0  0  0  0  0  0  0  0
   -0.2256    0.7177    2.3313 O   0  0  0  0  0  0  0  0  0  0  0  0
   -2.4239    3.1726    1.8718 C   0  0  0  0  0  0  0  0  0  0  0  0
   -3.4446    1.6657    3.8454 H   0  0  0  0  0  0  0  0  0  0  0  0
   -3.2368    1.2374    1.3661 H   0  0  0  0  0  0  0  0  0  0  0  0
   -1.6248    3.6099    2.4815 H   0  0  0  0  0  0  0  0  0  0  0  0
   -2.2644    3.4949    0.8375 H   0  0  0  0  0  0  0  0  0  0  0  0
   -3.3741    3.5939    2.2175 H   0  0  0  0  0  0  0  0  0  0  0  0
   -0.9750    1.0274    0.1566 N   0  0  0  0  0  0  0  0  0  0  0  0
    0.2023    0.5266   -0.5070 C   0  0  2  0  0  0  0  0  0  0  0  0
    0.3270    1.2746   -1.8296 C   0  0  0  0  0  0  0  0  0  0  0  0
    0.4871    2.4914   -1.8976 O   0  0  0  0  0  0  0  0  0  0  0  0
    0.1289   -0.9846   -0.7543 C   0  0  0  0  0  0  0  0  0  0  0  0
    0.1611   -1.7873    0.5233 C   0  0  0  0  0  0  0  0  0  0  0  0
    1.3780   -2.0464    1.1539 C   0  0  0  0  0  0  0  0  0  0  0  0
   -1.0262   -2.2706    1.0732 C   0  0  0  0  0  0  0  0  0  0  0  0
    1.4076   -2.7888    2.3344 C   0  0  0  0  0  0  0  0  0  0  0  0
   -0.9966   -3.0130    2.2538 C   0  0  0  0  0  0  0  0  0  0  0  0
    0.2204   -3.2721    2.8843 C   0  0  0  0  0  0  0  0  0  0  0  0
    0.2496   -3.9975    4.0356 O   0  0  0  0  0  0  0  0  0  0  0  0
   -1.7582    1.3241   -0.4207 H   0  0  0  0  0  0  0  0  0  0  0  0
    1.0547    0.7839    0.1326 H   0  0  0  0  0  0  0  0  0  0  0  0
    0.9497   -1.3028   -1.4113 H   0  0  0  0  0  0  0  0  0  0  0  0
   -0.7904   -1.2401   -1.2978 H   0  0  0  0  0  0  0  0  0  0  0  0
    2.3078   -1.6738    0.7326 H   0  0  0  0  0  0  0  0  0  0  0  0
   -1.9791   -2.0734    0.5888 H   0  0  0  0  0  0  0  0  0  0  0  0
    2.3589   -2.9876    2.8209 H   0  0  0  0  0  0  0  0  0  0  0  0
   -1.9247   -3.3869    2.6769 H   0  0  0  0  0  0  0  0  0  0  0  0
   -0.6491   -4.2610    4.2901 H   0  0  0  0  0  0  0  0  0  0  0  0
    0.2881    0.4148   -2.9185 N   0  0  0  0  0  0  0  0  0  0  0  0
    0.4085    0.8621   -4.2875 C   0  0  2  0  0  0  0  0  0  0  0  0
   -0.5724    2.0083   -4.4957 C   0  0  0  0  0  0  0  0  0  0  0  0
   -1.5643    2.1790   -3.7899 O   0  0  0  0  0  0  0  0  0  0  0  0
    0.1367   -0.2704   -5.2655 C   0  0  0  0  0  0  0  0  0  0  0  0
    0.1691   -0.5789   -2.7444 H   0  0  0  0  0  0  0  0  0  0  0  0
    1.4328    1.2302   -4.4110 H   0  0  0  0  0  0  0  0  0  0  0  0
   -0.8850   -0.6522   -5.1566 H   0  0  0  0  0  0  0  0  0  0  0  0
    0.2562    0.0630   -6.3016 H   0  0  0  0  0  0  0  0  0  0  0  0
    0.8238   -1.1061   -5.0947 H   0  0  0  0  0  0  0  0  0  0  0  0
   -0.2336    2.7931   -5.5891 N   0  0  0  0  0  0  0  0  0  0  0  0
   -1.0155    3.9354   -6.0011 C   0  0  0  0  0  0  0  0  0  0  0  0
    0.6168    2.5895   -6.1059 H   0  0  0  0  0  0  0  0  0  0  0  0
   -1.7531    3.6228   -6.7549 H   0  0  0  0  0  0  0  0  0  0  0  0
   -1.5380    4.3557   -5.1292 H   0  0  0  0  0  0  0  0  0  0  0  0
   -0.3508    4.6981   -6.4329 H   0  0  0  0  0  0  0  0  0  0  0  0
 23 25  2  0  0  0  0
 22 23  1  0  0  0  0
 24 26  1  0  0  0  0
 22 24  2  0  0  0  0
 25 27  1  0  0  0  0
 26 27  2  0  0  0  0
 21 22  1  0  0  0  0
 27 28  1  0  0  0  0
  1  3  1  0  0  0  0
  1  7  1  0  0  0  0
  1  2  2  0  0  0  0
 39 40  1  0  0  0  0
 40 48  1  0  0  0  0
 40 41  2  0  0  0  0
  8  9  1  0  0  0  0
  9 17  1  0  0  0  0
  9 10  2  0  0  0  0
 18 19  1  0  0  0  0
 19 38  1  0  0  0  0
 19 20  2  0  0  0  0
 39 42  1  0  0  0  0
  8 11  1  0  0  0  0
 48 49  1  0  0  0  0
 18 21  1  0  0  0  0
 38 39  1  0  0  0  0
  7  8  1  0  0  0  0
 17 18  1  0  0  0  0
 23 33  1  0  0  0  0
 24 34  1  0  0  0  0
 25 35  1  0  0  0  0
 26 36  1  0  0  0  0
  3  4  1  0  0  0  0
  3  5  1  0  0  0  0
  3  6  1  0  0  0  0
 42 45  1  0  0  0  0
 42 46  1  0  0  0  0
 42 47  1  0  0  0  0
 11 14  1  0  0  0  0
 11 15  1  0  0  0  0
 11 16  1  0  0  0  0
 49 51  1  0  0  0  0
 49 52  1  0  0  0  0
 49 53  1  0  0  0  0
 21 31  1  0  0  0  0
 21 32  1  0  0  0  0
 39 44  1  0  0  0  0
  8 13  1  0  0  0  0
 18 30  1  0  0  0  0
 48 50  1  0  0  0  0
  7 12  1  0  0  0  0
 38 43  1  0  0  0  0
 17 29  1  0  0  0  0
 28 37  1  0  0  0  0
M  END
$$$$

  -OEChem-05262214473D

 53 53  0     1  0  0  0  0  0999 V2000
   -1.9298    0.2574    3.9747 C   0  0  0  0  0  0  0  0  0  0  0  0
   -0.9825   -0.3573    3.4990 O   0  0  0  0  0  0  0  0  0  0  0  0
   -2.3617   -0.0250    5.3754 C   0  0  0  0  0  0  0  0  0  0  0  0
   -3.1214   -0.8213    5.4288 H   0  0  0  0  0  0  0  0  0  0  0  0
   -1.5305   -0.3726    6.0097 H   0  0  0  0  0  0  0  0  0  0  0  0
   -2.7997    0.8299    5.9150 H   0  0  0  0  0  0  0  0  0  0  0  0
   -2.6795    1.2298    3.3336 N   0  0  0  0  0  0  0  0  0  0  0  0
   -2.4327    1.6559    1.9812 C   0  0  2  0  0  0  0  0  0  0  0  0
   -1.0977    1.0705    1.5400 C   0  0  0  0  0  0  0  0  0  0  0  0
   -0.2256    0.7177    2.3313 O   0  0  0  0  0  0  0  0  0  0  0  0
   -2.4239    3.1726    1.8718 C   0  0  0  0  0  0  0  0  0  0  0  0
   -3.4446    1.6657    3.8454 H   0  0  0  0  0  0  0  0  0  0  0  0
   -3.2368    1.2374    1.3661 H   0  0  0  0  0  0  0  0  0  0  0  0
   -1.6248    3.6099    2.4815 H   0  0  0  0  0  0  0  0  0  0  0  0
   -2.2644    3.4949    0.8375 H   0  0  0  0  0  0  0  0  0  0  0  0
   -3.3741    3.5939    2.2175 H   0  0  0  0  0  0  0  0  0  0  0  0
   -0.9750    1.0274    0.1566 N   0  0  0  0  0  0  0  0  0  0  0  0
    0.2023    0.5266   -0.5070 C   0  0  2  0  0  0  0  0  0  0  0  0
    0.3270    1.2746   -1.8296 C   0  0  0  0  0  0  0  0  0  0  0  0
    0.7481    2.4266   -1.9096 O   0  0  0  0  0  0  0  0  0  0  0  0
    0.1289   -0.9846   -0.7543 C   0  0  0  0  0  0  0  0  0  0  0  0
    0.1611   -1.7873    0.5233 C   0  0  0  0  0  0  0  0  0  0  0  0
    1.3780   -2.0464    1.1539 C   0  0  0  0  0  0  0  0  0  0  0  0
   -1.0262   -2.2706    1.0732 C   0  0  0  0  0  0  0  0  0  0  0  0
    1.4076   -2.7888    2.3344 C   0  0  0  0  0  0  0  0  0  0  0  0
   -0.9966   -3.0130    2.2538 C   0  0  0  0  0  0  0  0  0  0  0  0
    0.2204   -3.2721    2.8843 C   0  0  0  0  0  0  0  0  0  0  0  0
    0.2496   -3.9975    4.0356 O   0  0  0  0  0  0  0  0  0  0  0  0
   -1.7582    1.3241   -0.4207 H   0  0  0  0  0  0  0  0  0  0  0  0
    1.0547    0.7839    0.1326 H   0  0  0  0  0  0  0  0  0  0  0  0
    0.9497   -1.3028   -1.4113 H   0  0  0  0  0  0  0  0  0  0  0  0
   -0.7904   -1.2401   -1.2978 H   0  0  0  0  0  0  0  0  0  0  0  0
    2.3078   -1.6738    0.7326 H   0  0  0  0  0  0  0  0  0  0  0  0
   -1.9791   -2.0734    0.5888 H   0  0  0  0  0  0  0  0  0  0  0  0
    2.3589   -2.9876    2.8209 H   0  0  0  0  0  0  0  0  0  0  0  0
   -1.9247   -3.3869    2.6769 H   0  0  0  0  0  0  0  0  0  0  0  0
   -0.6491   -4.2610    4.2901 H   0  0  0  0  0  0  0  0  0  0  0  0
   -0.0404    0.4845   -2.9100 N   0  0  0  0  0  0  0  0  0  0  0  0
    0.0064    0.9422   -4.2801 C   0  0  2  0  0  0  0  0  0  0  0  0
   -0.7083    2.2852   -4.3519 C   0  0  0  0  0  0  0  0  0  0  0  0
   -1.5401    2.6476   -3.5226 O   0  0  0  0  0  0  0  0  0  0  0  0
   -0.6338   -0.0653   -5.2222 C   0  0  0  0  0  0  0  0  0  0  0  0
   -0.3582   -0.4630   -2.7286 H   0  0  0  0  0  0  0  0  0  0  0  0
    1.0638    1.0767   -4.5327 H   0  0  0  0  0  0  0  0  0  0  0  0
   -1.6936   -0.2132   -4.9845 H   0  0  0  0  0  0  0  0  0  0  0  0
   -0.5721    0.2697   -6.2629 H   0  0  0  0  0  0  0  0  0  0  0  0
   -0.1375   -1.0389   -5.1474 H   0  0  0  0  0  0  0  0  0  0  0  0
   -0.3399    3.0131   -5.4747 N   0  0  0  0  0  0  0  0  0  0  0  0
   -0.8886    4.3150   -5.7745 C   0  0  0  0  0  0  0  0  0  0  0  0
    0.3714    2.6434   -6.0986 H   0  0  0  0  0  0  0  0  0  0  0  0
   -1.7658    4.2020   -6.4285 H   0  0  0  0  0  0  0  0  0  0  0  0
   -1.1899    4.8099   -4.8394 H   0  0  0  0  0  0  0  0  0  0  0  0
   -0.1279    4.9250   -6.2836 H   0  0  0  0  0  0  0  0  0  0  0  0
 23 25  2  0  0  0  0
 22 23  1  0  0  0  0
 24 26  1  0  0  0  0
 22 24  2  0  0  0  0
 25 27  1  0  0  0  0
 26 27  2  0  0  0  0
 21 22  1  0  0  0  0
 27 28  1  0  0  0  0
  1  3  1  0  0  0  0
  1  7  1  0  0  0  0
  1  2  2  0  0  0  0
 39 40  1  0  0  0  0
 40 48  1  0  0  0  0
 40 41  2  0  0  0  0
  8  9  1  0  0  0  0
  9 17  1  0  0  0  0
  9 10  2  0  0  0  0
 18 19  1  0  0  0  0
 19 38  1  0  0  0  0
 19 20  2  0  0  0  0
 39 42  1  0  0  0  0
  8 11  1  0  0  0  0
 48 49  1  0  0  0  0
 18 21  1  0  0  0  0
 38 39  1  0  0  0  0
  7  8  1  0  0  0  0
 17 18  1  0  0  0  0
 23 33  1  0  0  0  0
 24 34  1  0  0  0  0
 25 35  1  0  0  0  0
 26 36  1  0  0  0  0
  3  4  1  0  0  0  0
  3  5  1  0  0  0  0
  3  6  1  0  0  0  0
 42 45  1  0  0  0  0
 42 46  1  0  0  0  0
 42 47  1  0  0  0  0
 11 14  1  0  0  0  0
 11 15  1  0  0  0  0
 11 16  1  0  0  0  0
 49 51  1  0  0  0  0
 49 52  1  0  0  0  0
 49 53  1  0  0  0  0
 21 31  1  0  0  0  0
 21 32  1  0  0  0  0
 39 44  1  0  0  0  0
  8 13  1  0  0  0  0
 18 30  1  0  0  0  0
 48 50  1  0  0  0  0
  7 12  1  0  0  0  0
 38 43  1  0  0  0  0
 17 29  1  0  0  0  0
 28 37  1  0  0  0  0
M  END
$$$$

  -OEChem-05262214473D

 53 53  0     1  0  0  0  0  0999 V2000
   -1.9298    0.2574    3.9747 C   0  0  0  0  0  0  0  0  0  0  0  0
   -0.9825   -0.3573    3.4990 O   0  0  0  0  0  0  0  0  0  0  0  0
   -2.3617   -0.0250    5.3754 C   0  0  0  0  0  0  0  0  0  0  0  0
   -3.1214   -0.8213    5.4288 H   0  0  0  0  0  0  0  0  0  0  0  0
   -1.5305   -0.3726    6.0097 H   0  0  0  0  0  0  0  0  0  0  0  0
   -2.7997    0.8299    5.9150 H   0  0  0  0  0  0  0  0  0  0  0  0
   -2.6795    1.2298    3.3336 N   0  0  0  0  0  0  0  0  0  0  0  0
   -2.4327    1.6559    1.9812 C   0  0  2  0  0  0  0  0  0  0  0  0
   -1.0977    1.0705    1.5400 C   0  0  0  0  0  0  0  0  0  0  0  0
   -0.2256    0.7177    2.3313 O   0  0  0  0  0  0  0  0  0  0  0  0
   -2.4239    3.1726    1.8718 C   0  0  0  0  0  0  0  0  0  0  0  0
   -3.4446    1.6657    3.8454 H   0  0  0  0  0  0  0  0  0  0  0  0
   -3.2368    1.2374    1.3661 H   0  0  0  0  0  0  0  0  0  0  0  0
   -1.6248    3.6099    2.4815 H   0  0  0  0  0  0  0  0  0  0  0  0
   -2.2644    3.4949    0.8375 H   0  0  0  0  0  0  0  0  0  0  0  0
   -3.3741    3.5939    2.2175 H   0  0  0  0  0  0  0  0  0  0  0  0
   -0.9750    1.0274    0.1566 N   0  0  0  0  0  0  0  0  0  0  0  0
    0.2023    0.5266   -0.5070 C   0  0  2  0  0  0  0  0  0  0  0  0
    0.3270    1.2746   -1.8296 C   0  0  0  0  0  0  0  0  0  0  0  0
    0.9841    2.3057   -1.9557 O   0  0  0  0  0  0  0  0  0  0  0  0
    0.1289   -0.9846   -0.7543 C   0  0  0  0  0  0  0  0  0  0  0  0
    0.1611   -1.7873    0.5233 C   0  0  0  0  0  0  0  0  0  0  0  0
    1.3780   -2.0464    1.1539 C   0  0  0  0  0  0  0  0  0  0  0  0
   -1.0262   -2.2706    1.0732 C   0  0  0  0  0  0  0  0  0  0  0  0
    1.4076   -2.7888    2.3344 C   0  0  0  0  0  0  0  0  0  0  0  0
   -0.9966   -3.0130    2.2538 C   0  0  0  0  0  0  0  0  0  0  0  0
    0.2204   -3.2721    2.8843 C   0  0  0  0  0  0  0  0  0  0  0  0
    0.2496   -3.9975    4.0356 O   0  0  0  0  0  0  0  0  0  0  0  0
   -1.7582    1.3241   -0.4207 H   0  0  0  0  0  0  0  0  0  0  0  0
    1.0547    0.7839    0.1326 H   0  0  0  0  0  0  0  0  0  0  0  0
    0.9497   -1.3028   -1.4113 H   0  0  0  0  0  0  0  0  0  0  0  0
   -0.7904   -1.2401   -1.2978 H   0  0  0  0  0  0  0  0  0  0  0  0
    2.3078   -1.6738    0.7326 H   0  0  0  0  0  0  0  0  0  0  0  0
   -1.9791   -2.0734    0.5888 H   0  0  0  0  0  0  0  0  0  0  0  0
    2.3589   -2.9876    2.8209 H   0  0  0  0  0  0  0  0  0  0  0  0
   -1.9247   -3.3869    2.6769 H   0  0  0  0  0  0  0  0  0  0  0  0
   -0.6491   -4.2610    4.2901 H   0  0  0  0  0  0  0  0  0  0  0  0
   -0.3410    0.6255   -2.8586 N   0  0  0  0  0  0  0  0  0  0  0  0
   -0.3631    1.1098   -4.2201 C   0  0  2  0  0  0  0  0  0  0  0  0
   -0.7592    2.5801   -4.1899 C   0  0  0  0  0  0  0  0  0  0  0  0
   -1.3777    3.0891   -3.2575 O   0  0  0  0  0  0  0  0  0  0  0  0
   -1.3266    0.3048   -5.0782 C   0  0  0  0  0  0  0  0  0  0  0  0
   -0.8395   -0.2331   -2.6440 H   0  0  0  0  0  0  0  0  0  0  0  0
    0.6574    1.0138   -4.6065 H   0  0  0  0  0  0  0  0  0  0  0  0
   -2.3543    0.3888   -4.7064 H   0  0  0  0  0  0  0  0  0  0  0  0
   -1.3210    0.6545   -6.1159 H   0  0  0  0  0  0  0  0  0  0  0  0
   -1.0577   -0.7570   -5.0747 H   0  0  0  0  0  0  0  0  0  0  0  0
   -0.3787    3.2469   -5.3461 N   0  0  0  0  0  0  0  0  0  0  0  0
   -0.6521    4.6483   -5.5636 C   0  0  0  0  0  0  0  0  0  0  0  0
    0.1473    2.7504   -6.0592 H   0  0  0  0  0  0  0  0  0  0  0  0
   -1.6065    4.7574   -6.0994 H   0  0  0  0  0  0  0  0  0  0  0  0
   -0.7149    5.1643   -4.5942 H   0  0  0  0  0  0  0  0  0  0  0  0
    0.1573    5.0910   -6.1628 H   0  0  0  0  0  0  0  0  0  0  0  0
 23 25  2  0  0  0  0
 22 23  1  0  0  0  0
 24 26  1  0  0  0  0
 22 24  2  0  0  0  0
 25 27  1  0  0  0  0
 26 27  2  0  0  0  0
 21 22  1  0  0  0  0
 27 28  1  0  0  0  0
  1  3  1  0  0  0  0
  1  7  1  0  0  0  0
  1  2  2  0  0  0  0
 39 40  1  0  0  0  0
 40 48  1  0  0  0  0
 40 41  2  0  0  0  0
  8  9  1  0  0  0  0
  9 17  1  0  0  0  0
  9 10  2  0  0  0  0
 18 19  1  0  0  0  0
 19 38  1  0  0  0  0
 19 20  2  0  0  0  0
 39 42  1  0  0  0  0
  8 11  1  0  0  0  0
 48 49  1  0  0  0  0
 18 21  1  0  0  0  0
 38 39  1  0  0  0  0
  7  8  1  0  0  0  0
 17 18  1  0  0  0  0
 23 33  1  0  0  0  0
 24 34  1  0  0  0  0
 25 35  1  0  0  0  0
 26 36  1  0  0  0  0
  3  4  1  0  0  0  0
  3  5  1  0  0  0  0
  3  6  1  0  0  0  0
 42 45  1  0  0  0  0
 42 46  1  0  0  0  0
 42 47  1  0  0  0  0
 11 14  1  0  0  0  0
 11 15  1  0  0  0  0
 11 16  1  0  0  0  0
 49 51  1  0  0  0  0
 49 52  1  0  0  0  0
 49 53  1  0  0  0  0
 21 31  1  0  0  0  0
 21 32  1  0  0  0  0
 39 44  1  0  0  0  0
  8 13  1  0  0  0  0
 18 30  1  0  0  0  0
 48 50  1  0  0  0  0
  7 12  1  0  0  0  0
 38 43  1  0  0  0  0
 17 29  1  0  0  0  0
 28 37  1  0  0  0  0
M  END
$$$$

  -OEChem-05262214473D

 53 53  0     1  0  0  0  0  0999 V2000
   -1.9298    0.2574    3.9747 C   0  0  0  0  0  0  0  0  0  0  0  0
   -0.9825   -0.3573    3.4990 O   0  0  0  0  0  0  0  0  0  0  0  0
   -2.3617   -0.0250    5.3754 C   0  0  0  0  0  0  0  0  0  0  0  0
   -3.1214   -0.8213    5.4288 H   0  0  0  0  0  0  0  0  0  0  0  0
   -1.5305   -0.3726    6.0097 H   0  0  0  0  0  0  0  0  0  0  0  0
   -2.7997    0.8299    5.9150 H   0  0  0  0  0  0  0  0  0  0  0  0
   -2.6795    1.2298    3.3336 N   0  0  0  0  0  0  0  0  0  0  0  0
   -2.4327    1.6559    1.9812 C   0  0  2  0  0  0  0  0  0  0  0  0
   -1.0977    1.0705    1.5400 C   0  0  0  0  0  0  0  0  0  0  0  0
   -0.2256    0.7177    2.3313 O   0  0  0  0  0  0  0  0  0  0  0  0
   -2.4239    3.1726    1.8718 C   0  0  0  0  0  0  0  0  0  0  0  0
   -3.4446    1.6657    3.8454 H   0  0  0  0  0  0  0  0  0  0  0  0
   -3.2368    1.2374    1.3661 H   0  0  0  0  0  0  0  0  0  0  0  0
   -1.6248    3.6099    2.4815 H   0  0  0  0  0  0  0  0  0  0  0  0
   -2.2644    3.4949    0.8375 H   0  0  0  0  0  0  0  0  0  0  0  0
   -3.3741    3.5939    2.2175 H   0  0  0  0  0  0  0  0  0  0  0  0
   -0.9750    1.0274    0.1566 N   0  0  0  0  0  0  0  0  0  0  0  0
    0.2023    0.5266   -0.5070 C   0  0  2  0  0  0  0  0  0  0  0  0
    0.3270    1.2746   -1.8296 C   0  0  0  0  0  0  0  0  0  0  0  0
    1.1790    2.1369   -2.0328 O   0  0  0  0  0  0  0  0  0  0  0  0
    0.1289   -0.9846   -0.7543 C   0  0  0  0  0  0  0  0  0  0  0  0
    0.1611   -1.7873    0.5233 C   0  0  0  0  0  0  0  0  0  0  0  0
    1.3780   -2.0464    1.1539 C   0  0  0  0  0  0  0  0  0  0  0  0
   -1.0262   -2.2706    1.0732 C   0  0  0  0  0  0  0  0  0  0  0  0
    1.4076   -2.7888    2.3344 C   0  0  0  0  0  0  0  0  0  0  0  0
   -0.9966   -3.0130    2.2538 C   0  0  0  0  0  0  0  0  0  0  0  0
    0.2204   -3.2721    2.8843 C   0  0  0  0  0  0  0  0  0  0  0  0
    0.2496   -3.9975    4.0356 O   0  0  0  0  0  0  0  0  0  0  0  0
   -1.7582    1.3241   -0.4207 H   0  0  0  0  0  0  0  0  0  0  0  0
    1.0547    0.7839    0.1326 H   0  0  0  0  0  0  0  0  0  0  0  0
    0.9497   -1.3028   -1.4113 H   0  0  0  0  0  0  0  0  0  0  0  0
   -0.7904   -1.2401   -1.2978 H   0  0  0  0  0  0  0  0  0  0  0  0
    2.3078   -1.6738    0.7326 H   0  0  0  0  0  0  0  0  0  0  0  0
   -1.9791   -2.0734    0.5888 H   0  0  0  0  0  0  0  0  0  0  0  0
    2.3589   -2.9876    2.8209 H   0  0  0  0  0  0  0  0  0  0  0  0
   -1.9247   -3.3869    2.6769 H   0  0  0  0  0  0  0  0  0  0  0  0
   -0.6491   -4.2610    4.2901 H   0  0  0  0  0  0  0  0  0  0  0  0
   -0.5932    0.8281   -2.7678 N   0  0  0  0  0  0  0  0  0  0  0  0
   -0.6748    1.3534   -4.1118 C   0  0  2  0  0  0  0  0  0  0  0  0
   -0.7216    2.8729   -4.0208 C   0  0  0  0  0  0  0  0  0  0  0  0
   -1.0880    3.4736   -3.0128 O   0  0  0  0  0  0  0  0  0  0  0  0
   -1.8944    0.8148   -4.8433 C   0  0  0  0  0  0  0  0  0  0  0  0
   -1.2420    0.0953   -2.4962 H   0  0  0  0  0  0  0  0  0  0  0  0
    0.2414    1.0459   -4.6276 H   0  0  0  0  0  0  0  0  0  0  0  0
   -2.8220    1.1127   -4.3411 H   0  0  0  0  0  0  0  0  0  0  0  0
   -1.9392    1.1913   -5.8706 H   0  0  0  0  0  0  0  0  0  0  0  0
   -1.8740   -0.2797   -4.8817 H   0  0  0  0  0  0  0  0  0  0  0  0
   -0.3473    3.4789   -5.2119 N   0  0  0  0  0  0  0  0  0  0  0  0
   -0.3219    4.9128   -5.3829 C   0  0  0  0  0  0  0  0  0  0  0  0
   -0.0401    2.9032   -5.9904 H   0  0  0  0  0  0  0  0  0  0  0  0
   -1.2862    5.2511   -5.7900 H   0  0  0  0  0  0  0  0  0  0  0  0
   -0.1453    5.3949   -4.4101 H   0  0  0  0  0  0  0  0  0  0  0  0
    0.4854    5.1847   -6.0789 H   0  0  0  0  0  0  0  0  0  0  0  0
 23 25  2  0  0  0  0
 22 23  1  0  0  0  0
 24 26  1  0  0  0  0
 22 24  2  0  0  0  0
 25 27  1  0  0  0  0
 26 27  2  0  0  0  0
 21 22  1  0  0  0  0
 27 28  1  0  0  0  0
  1  3  1  0  0  0  0
  1  7  1  0  0  0  0
  1  2  2  0  0  0  0
 39 40  1  0  0  0  0
 40 48  1  0  0  0  0
 40 41  2  0  0  0  0
  8  9  1  0  0  0  0
  9 17  1  0  0  0  0
  9 10  2  0  0  0  0
 18 19  1  0  0  0  0
 19 38  1  0  0  0  0
 19 20  2  0  0  0  0
 39 42  1  0  0  0  0
  8 11  1  0  0  0  0
 48 49  1  0  0  0  0
 18 21  1  0  0  0  0
 38 39  1  0  0  0  0
  7  8  1  0  0  0  0
 17 18  1  0  0  0  0
 23 33  1  0  0  0  0
 24 34  1  0  0  0  0
 25 35  1  0  0  0  0
 26 36  1  0  0  0  0
  3  4  1  0  0  0  0
  3  5  1  0  0  0  0
  3  6  1  0  0  0  0
 42 45  1  0  0  0  0
 42 46  1  0  0  0  0
 42 47  1  0  0  0  0
 11 14  1  0  0  0  0
 11 15  1  0  0  0  0
 11 16  1  0  0  0  0
 49 51  1  0  0  0  0
 49 52  1  0  0  0  0
 49 53  1  0  0  0  0
 21 31  1  0  0  0  0
 21 32  1  0  0  0  0
 39 44  1  0  0  0  0
  8 13  1  0  0  0  0
 18 30  1  0  0  0  0
 48 50  1  0  0  0  0
  7 12  1  0  0  0  0
 38 43  1  0  0  0  0
 17 29  1  0  0  0  0
 28 37  1  0  0  0  0
M  END
$$$$

  -OEChem-05262214473D

 53 53  0     1  0  0  0  0  0999 V2000
   -1.9298    0.2574    3.9747 C   0  0  0  0  0  0  0  0  0  0  0  0
   -0.9825   -0.3573    3.4990 O   0  0  0  0  0  0  0  0  0  0  0  0
   -2.3617   -0.0250    5.3754 C   0  0  0  0  0  0  0  0  0  0  0  0
   -3.1214   -0.8213    5.4288 H   0  0  0  0  0  0  0  0  0  0  0  0
   -1.5305   -0.3726    6.0097 H   0  0  0  0  0  0  0  0  0  0  0  0
   -2.7997    0.8299    5.9150 H   0  0  0  0  0  0  0  0  0  0  0  0
   -2.6795    1.2298    3.3336 N   0  0  0  0  0  0  0  0  0  0  0  0
   -2.4327    1.6559    1.9812 C   0  0  2  0  0  0  0  0  0  0  0  0
   -1.0977    1.0705    1.5400 C   0  0  0  0  0  0  0  0  0  0  0  0
   -0.2256    0.7177    2.3313 O   0  0  0  0  0  0  0  0  0  0  0  0
   -2.4239    3.1726    1.8718 C   0  0  0  0  0  0  0  0  0  0  0  0
   -3.4446    1.6657    3.8454 H   0  0  0  0  0  0  0  0  0  0  0  0
   -3.2368    1.2374    1.3661 H   0  0  0  0  0  0  0  0  0  0  0  0
   -1.6248    3.6099    2.4815 H   0  0  0  0  0  0  0  0  0  0  0  0
   -2.2644    3.4949    0.8375 H   0  0  0  0  0  0  0  0  0  0  0  0
   -3.3741    3.5939    2.2175 H   0  0  0  0  0  0  0  0  0  0  0  0
   -0.9750    1.0274    0.1566 N   0  0  0  0  0  0  0  0  0  0  0  0
    0.2023    0.5266   -0.5070 C   0  0  2  0  0  0  0  0  0  0  0  0
    0.3270    1.2746   -1.8296 C   0  0  0  0  0  0  0  0  0  0  0  0
    1.3197    1.9317   -2.1356 O   0  0  0  0  0  0  0  0  0  0  0  0
    0.1289   -0.9846   -0.7543 C   0  0  0  0  0  0  0  0  0  0  0  0
    0.1611   -1.7873    0.5233 C   0  0  0  0  0  0  0  0  0  0  0  0
    1.3780   -2.0464    1.1539 C   0  0  0  0  0  0  0  0  0  0  0  0
   -1.0262   -2.2706    1.0732 C   0  0  0  0  0  0  0  0  0  0  0  0
    1.4076   -2.7888    2.3344 C   0  0  0  0  0  0  0  0  0  0  0  0
   -0.9966   -3.0130    2.2538 C   0  0  0  0  0  0  0  0  0  0  0  0
    0.2204   -3.2721    2.8843 C   0  0  0  0  0  0  0  0  0  0  0  0
    0.2496   -3.9975    4.0356 O   0  0  0  0  0  0  0  0  0  0  0  0
   -1.7582    1.3241   -0.4207 H   0  0  0  0  0  0  0  0  0  0  0  0
    1.0547    0.7839    0.1326 H   0  0  0  0  0  0  0  0  0  0  0  0
    0.9497   -1.3028   -1.4113 H   0  0  0  0  0  0  0  0  0  0  0  0
   -0.7904   -1.2401   -1.2978 H   0  0  0  0  0  0  0  0  0  0  0  0
    2.3078   -1.6738    0.7326 H   0  0  0  0  0  0  0  0  0  0  0  0
   -1.9791   -2.0734    0.5888 H   0  0  0  0  0  0  0  0  0  0  0  0
    2.3589   -2.9876    2.8209 H   0  0  0  0  0  0  0  0  0  0  0  0
   -1.9247   -3.3869    2.6769 H   0  0  0  0  0  0  0  0  0  0  0  0
   -0.6491   -4.2610    4.2901 H   0  0  0  0  0  0  0  0  0  0  0  0
   -0.7798    1.0785   -2.6438 N   0  0  0  0  0  0  0  0  0  0  0  0
   -0.9073    1.6563   -3.9624 C   0  0  2  0  0  0  0  0  0  0  0  0
   -0.5980    3.1437   -3.8559 C   0  0  0  0  0  0  0  0  0  0  0  0
   -0.6907    3.7747   -2.8050 O   0  0  0  0  0  0  0  0  0  0  0  0
   -2.2985    1.4300   -4.5335 C   0  0  0  0  0  0  0  0  0  0  0  0
   -1.5384    0.4997   -2.2954 H   0  0  0  0  0  0  0  0  0  0  0  0
   -0.1559    1.1707   -4.5945 H   0  0  0  0  0  0  0  0  0  0  0  0
   -3.0648    1.9093   -3.9135 H   0  0  0  0  0  0  0  0  0  0  0  0
   -2.3847    1.8433   -5.5438 H   0  0  0  0  0  0  0  0  0  0  0  0
   -2.5308    0.3606   -4.5816 H   0  0  0  0  0  0  0  0  0  0  0  0
   -0.2478    3.6930   -5.0815 N   0  0  0  0  0  0  0  0  0  0  0  0
    0.0792    5.0902   -5.2447 C   0  0  0  0  0  0  0  0  0  0  0  0
   -0.1781    3.0915   -5.8970 H   0  0  0  0  0  0  0  0  0  0  0  0
   -0.8267    5.6495   -5.5213 H   0  0  0  0  0  0  0  0  0  0  0  0
    0.4800    5.4857   -4.2997 H   0  0  0  0  0  0  0  0  0  0  0  0
    0.8340    5.1998   -6.0374 H   0  0  0  0  0  0  0  0  0  0  0  0
 23 25  2  0  0  0  0
 22 23  1  0  0  0  0
 24 26  1  0  0  0  0
 22 24  2  0  0  0  0
 25 27  1  0  0  0  0
 26 27  2  0  0  0  0
 21 22  1  0  0  0  0
 27 28  1  0  0  0  0
  1  3  1  0  0  0  0
  1  7  1  0  0  0  0
  1  2  2  0  0  0  0
 39 40  1  0  0  0  0
 40 48  1  0  0  0  0
 40 41  2  0  0  0  0
  8  9  1  0  0  0  0
  9 17  1  0  0  0  0
  9 10  2  0  0  0  0
 18 19  1  0  0  0  0
 19 38  1  0  0  0  0
 19 20  2  0  0  0  0
 39 42  1  0  0  0  0
  8 11  1  0  0  0  0
 48 49  1  0  0  0  0
 18 21  1  0  0  0  0
 38 39  1  0  0  0  0
  7  8  1  0  0  0  0
 17 18  1  0  0  0  0
 23 33  1  0  0  0  0
 24 34  1  0  0  0  0
 25 35  1  0  0  0  0
 26 36  1  0  0  0  0
  3  4  1  0  0  0  0
  3  5  1  0  0  0  0
  3  6  1  0  0  0  0
 42 45  1  0  0  0  0
 42 46  1  0  0  0  0
 42 47  1  0  0  0  0
 11 14  1  0  0  0  0
 11 15  1  0  0  0  0
 11 16  1  0  0  0  0
 49 51  1  0  0  0  0
 49 52  1  0  0  0  0
 49 53  1  0  0  0  0
 21 31  1  0  0  0  0
 21 32  1  0  0  0  0
 39 44  1  0  0  0  0
  8 13  1  0  0  0  0
 18 30  1  0  0  0  0
 48 50  1  0  0  0  0
  7 12  1  0  0  0  0
 38 43  1  0  0  0  0
 17 29  1  0  0  0  0
 28 37  1  0  0  0  0
M  END
$$$$

  -OEChem-05262214473D

 53 53  0     1  0  0  0  0  0999 V2000
   -1.9298    0.2574    3.9747 C   0  0  0  0  0  0  0  0  0  0  0  0
   -0.9825   -0.3573    3.4990 O   0  0  0  0  0  0  0  0  0  0  0  0
   -2.3617   -0.0250    5.3754 C   0  0  0  0  0  0  0  0  0  0  0  0
   -3.1214   -0.8213    5.4288 H   0  0  0  0  0  0  0  0  0  0  0  0
   -1.5305   -0.3726    6.0097 H   0  0  0  0  0  0  0  0  0  0  0  0
   -2.7997    0.8299    5.9150 H   0  0  0  0  0  0  0  0  0  0  0  0
   -2.6795    1.2298    3.3336 N   0  0  0  0  0  0  0  0  0  0  0  0
   -2.4327    1.6559    1.9812 C   0  0  2  0  0  0  0  0  0  0  0  0
   -1.0977    1.0705    1.5400 C   0  0  0  0  0  0  0  0  0  0  0  0
   -0.2256    0.7177    2.3313 O   0  0  0  0  0  0  0  0  0  0  0  0
   -2.4239    3.1726    1.8718 C   0  0  0  0  0  0  0  0  0  0  0  0
   -3.4446    1.6657    3.8454 H   0  0  0  0  0  0  0  0  0  0  0  0
   -3.2368    1.2374    1.3661 H   0  0  0  0  0  0  0  0  0  0  0  0
   -1.6248    3.6099    2.4815 H   0  0  0  0  0  0  0  0  0  0  0  0
   -2.2644    3.4949    0.8375 H   0  0  0  0  0  0  0  0  0  0  0  0
   -3.3741    3.5939    2.2175 H   0  0  0  0  0  0  0  0  0  0  0  0
   -0.9750    1.0274    0.1566 N   0  0  0  0  0  0  0  0  0  0  0  0
    0.2023    0.5266   -0.5070 C   0  0  2  0  0  0  0  0  0  0  0  0
    0.3270    1.2746   -1.8296 C   0  0  0  0  0  0  0  0  0  0  0  0
    1.3964    1.7041   -2.2571 O   0  0  0  0  0  0  0  0  0  0  0  0
    0.1289   -0.9846   -0.7543 C   0  0  0  0  0  0  0  0  0  0  0  0
    0.1611   -1.7873    0.5233 C   0  0  0  0  0  0  0  0  0  0  0  0
    1.3780   -2.0464    1.1539 C   0  0  0  0  0  0  0  0  0  0  0  0
   -1.0262   -2.2706    1.0732 C   0  0  0  0  0  0  0  0  0  0  0  0
    1.4076   -2.7888    2.3344 C   0  0  0  0  0  0  0  0  0  0  0  0
   -0.9966   -3.0130    2.2538 C   0  0  0  0  0  0  0  0  0  0  0  0
    0.2204   -3.2721    2.8843 C   0  0  0  0  0  0  0  0  0  0  0  0
    0.2496   -3.9975    4.0356 O   0  0  0  0  0  0  0  0  0  0  0  0
   -1.7582    1.3241   -0.4207 H   0  0  0  0  0  0  0  0  0  0  0  0
    1.0547    0.7839    0.1326 H   0  0  0  0  0  0  0  0  0  0  0  0
    0.9497   -1.3028   -1.4113 H   0  0  0  0  0  0  0  0  0  0  0  0
   -0.7904   -1.2401   -1.2978 H   0  0  0  0  0  0  0  0  0  0  0  0
    2.3078   -1.6738    0.7326 H   0  0  0  0  0  0  0  0  0  0  0  0
   -1.9791   -2.0734    0.5888 H   0  0  0  0  0  0  0  0  0  0  0  0
    2.3589   -2.9876    2.8209 H   0  0  0  0  0  0  0  0  0  0  0  0
   -1.9247   -3.3869    2.6769 H   0  0  0  0  0  0  0  0  0  0  0  0
   -0.6491   -4.2610    4.2901 H   0  0  0  0  0  0  0  0  0  0  0  0
   -0.8881    1.3596   -2.4950 N   0  0  0  0  0  0  0  0  0  0  0  0
   -1.0450    1.9980   -3.7821 C   0  0  2  0  0  0  0  0  0  0  0  0
   -0.3969    3.3741   -3.7067 C   0  0  0  0  0  0  0  0  0  0  0  0
   -0.2130    3.9719   -2.6484 O   0  0  0  0  0  0  0  0  0  0  0  0
   -2.5113    2.1083   -4.1699 C   0  0  0  0  0  0  0  0  0  0  0  0
   -1.7083    0.9527   -2.0553 H   0  0  0  0  0  0  0  0  0  0  0  0
   -0.5074    1.3798   -4.5094 H   0  0  0  0  0  0  0  0  0  0  0  0
   -3.0663    2.7241   -3.4528 H   0  0  0  0  0  0  0  0  0  0  0  0
   -2.6271    2.5663   -5.1578 H   0  0  0  0  0  0  0  0  0  0  0  0
   -2.9834    1.1202   -4.1947 H   0  0  0  0  0  0  0  0  0  0  0  0
   -0.0871    3.8747   -4.9635 N   0  0  0  0  0  0  0  0  0  0  0  0
    0.5242    5.1687   -5.1584 C   0  0  0  0  0  0  0  0  0  0  0  0
   -0.2573    3.3023   -5.7852 H   0  0  0  0  0  0  0  0  0  0  0  0
   -0.2592    5.9255   -5.3117 H   0  0  0  0  0  0  0  0  0  0  0  0
    1.1184    5.4308   -4.2706 H   0  0  0  0  0  0  0  0  0  0  0  0
    1.1793    5.1353   -6.0414 H   0  0  0  0  0  0  0  0  0  0  0  0
 23 25  2  0  0  0  0
 22 23  1  0  0  0  0
 24 26  1  0  0  0  0
 22 24  2  0  0  0  0
 25 27  1  0  0  0  0
 26 27  2  0  0  0  0
 21 22  1  0  0  0  0
 27 28  1  0  0  0  0
  1  3  1  0  0  0  0
  1  7  1  0  0  0  0
  1  2  2  0  0  0  0
 39 40  1  0  0  0  0
 40 48  1  0  0  0  0
 40 41  2  0  0  0  0
  8  9  1  0  0  0  0
  9 17  1  0  0  0  0
  9 10  2  0  0  0  0
 18 19  1  0  0  0  0
 19 38  1  0  0  0  0
 19 20  2  0  0  0  0
 39 42  1  0  0  0  0
  8 11  1  0  0  0  0
 48 49  1  0  0  0  0
 18 21  1  0  0  0  0
 38 39  1  0  0  0  0
  7  8  1  0  0  0  0
 17 18  1  0  0  0  0
 23 33  1  0  0  0  0
 24 34  1  0  0  0  0
 25 35  1  0  0  0  0
 26 36  1  0  0  0  0
  3  4  1  0  0  0  0
  3  5  1  0  0  0  0
  3  6  1  0  0  0  0
 42 45  1  0  0  0  0
 42 46  1  0  0  0  0
 42 47  1  0  0  0  0
 11 14  1  0  0  0  0
 11 15  1  0  0  0  0
 11 16  1  0  0  0  0
 49 51  1  0  0  0  0
 49 52  1  0  0  0  0
 49 53  1  0  0  0  0
 21 31  1  0  0  0  0
 21 32  1  0  0  0  0
 39 44  1  0  0  0  0
  8 13  1  0  0  0  0
 18 30  1  0  0  0  0
 48 50  1  0  0  0  0
  7 12  1  0  0  0  0
 38 43  1  0  0  0  0
 17 29  1  0  0  0  0
 28 37  1  0  0  0  0
M  END
$$$$

  -OEChem-05262214473D

 53 53  0     1  0  0  0  0  0999 V2000
   -1.9298    0.2574    3.9747 C   0  0  0  0  0  0  0  0  0  0  0  0
   -0.9825   -0.3573    3.4990 O   0  0  0  0  0  0  0  0  0  0  0  0
   -2.3617   -0.0250    5.3754 C   0  0  0  0  0  0  0  0  0  0  0  0
   -3.1214   -0.8213    5.4288 H   0  0  0  0  0  0  0  0  0  0  0  0
   -1.5305   -0.3726    6.0097 H   0  0  0  0  0  0  0  0  0  0  0  0
   -2.7997    0.8299    5.9150 H   0  0  0  0  0  0  0  0  0  0  0  0
   -2.6795    1.2298    3.3336 N   0  0  0  0  0  0  0  0  0  0  0  0
   -2.4327    1.6559    1.9812 C   0  0  2  0  0  0  0  0  0  0  0  0
   -1.0977    1.0705    1.5400 C   0  0  0  0  0  0  0  0  0  0  0  0
   -0.2256    0.7177    2.3313 O   0  0  0  0  0  0  0  0  0  0  0  0
   -2.4239    3.1726    1.8718 C   0  0  0  0  0  0  0  0  0  0  0  0
   -3.4446    1.6657    3.8454 H   0  0  0  0  0  0  0  0  0  0  0  0
   -3.2368    1.2374    1.3661 H   0  0  0  0  0  0  0  0  0  0  0  0
   -1.6248    3.6099    2.4815 H   0  0  0  0  0  0  0  0  0  0  0  0
   -2.2644    3.4949    0.8375 H   0  0  0  0  0  0  0  0  0  0  0  0
   -3.3741    3.5939    2.2175 H   0  0  0  0  0  0  0  0  0  0  0  0
   -0.9750    1.0274    0.1566 N   0  0  0  0  0  0  0  0  0  0  0  0
    0.2023    0.5266   -0.5070 C   0  0  2  0  0  0  0  0  0  0  0  0
    0.3270    1.2746   -1.8296 C   0  0  0  0  0  0  0  0  0  0  0  0
    1.4040    1.4696   -2.3890 O   0  0  0  0  0  0  0  0  0  0  0  0
    0.1289   -0.9846   -0.7543 C   0  0  0  0  0  0  0  0  0  0  0  0
    0.1611   -1.7873    0.5233 C   0  0  0  0  0  0  0  0  0  0  0  0
    1.3780   -2.0464    1.1539 C   0  0  0  0  0  0  0  0  0  0  0  0
   -1.0262   -2.2706    1.0732 C   0  0  0  0  0  0  0  0  0  0  0  0
    1.4076   -2.7888    2.3344 C   0  0  0  0  0  0  0  0  0  0  0  0
   -0.9966   -3.0130    2.2538 C   0  0  0  0  0  0  0  0  0  0  0  0
    0.2204   -3.2721    2.8843 C   0  0  0  0  0  0  0  0  0  0  0  0
    0.2496   -3.9975    4.0356 O   0  0  0  0  0  0  0  0  0  0  0  0
   -1.7582    1.3241   -0.4207 H   0  0  0  0  0  0  0  0  0  0  0  0
    1.0547    0.7839    0.1326 H   0  0  0  0  0  0  0  0  0  0  0  0
    0.9497   -1.3028   -1.4113 H   0  0  0  0  0  0  0  0  0  0  0  0
   -0.7904   -1.2401   -1.2978 H   0  0  0  0  0  0  0  0  0  0  0  0
    2.3078   -1.6738    0.7326 H   0  0  0  0  0  0  0  0  0  0  0  0
   -1.9791   -2.0734    0.5888 H   0  0  0  0  0  0  0  0  0  0  0  0
    2.3589   -2.9876    2.8209 H   0  0  0  0  0  0  0  0  0  0  0  0
   -1.9247   -3.3869    2.6769 H   0  0  0  0  0  0  0  0  0  0  0  0
   -0.6491   -4.2610    4.2901 H   0  0  0  0  0  0  0  0  0  0  0  0
   -0.9106    1.6523   -2.3316 N   0  0  0  0  0  0  0  0  0  0  0  0
   -1.0784    2.3551   -3.5833 C   0  0  2  0  0  0  0  0  0  0  0  0
   -0.1319    3.5483   -3.5832 C   0  0  0  0  0  0  0  0  0  0  0  0
    0.3126    4.0518   -2.5536 O   0  0  0  0  0  0  0  0  0  0  0  0
   -2.5185    2.8037   -3.7773 C   0  0  0  0  0  0  0  0  0  0  0  0
   -1.7403    1.4232   -1.7922 H   0  0  0  0  0  0  0  0  0  0  0  0
   -0.7892    1.6589   -4.3781 H   0  0  0  0  0  0  0  0  0  0  0  0
   -2.8262    3.5018   -2.9903 H   0  0  0  0  0  0  0  0  0  0  0  0
   -2.6499    3.3108   -4.7389 H   0  0  0  0  0  0  0  0  0  0  0  0
   -3.2008    1.9473   -3.7474 H   0  0  0  0  0  0  0  0  0  0  0  0
    0.1238    4.0117   -4.8662 N   0  0  0  0  0  0  0  0  0  0  0  0
    0.9825    5.1427   -5.1299 C   0  0  0  0  0  0  0  0  0  0  0  0
   -0.2722    3.5214   -5.6627 H   0  0  0  0  0  0  0  0  0  0  0  0
    0.3775    6.0602   -5.1754 H   0  0  0  0  0  0  0  0  0  0  0  0
    1.7264    5.2337   -4.3247 H   0  0  0  0  0  0  0  0  0  0  0  0
    1.4980    4.9954   -6.0904 H   0  0  0  0  0  0  0  0  0  0  0  0
 23 25  2  0  0  0  0
 22 23  1  0  0  0  0
 24 26  1  0  0  0  0
 22 24  2  0  0  0  0
 25 27  1  0  0  0  0
 26 27  2  0  0  0  0
 21 22  1  0  0  0  0
 27 28  1  0  0  0  0
  1  3  1  0  0  0  0
  1  7  1  0  0  0  0
  1  2  2  0  0  0  0
 39 40  1  0  0  0  0
 40 48  1  0  0  0  0
 40 41  2  0  0  0  0
  8  9  1  0  0  0  0
  9 17  1  0  0  0  0
  9 10  2  0  0  0  0
 18 19  1  0  0  0  0
 19 38  1  0  0  0  0
 19 20  2  0  0  0  0
 39 42  1  0  0  0  0
  8 11  1  0  0  0  0
 48 49  1  0  0  0  0
 18 21  1  0  0  0  0
 38 39  1  0  0  0  0
  7  8  1  0  0  0  0
 17 18  1  0  0  0  0
 23 33  1  0  0  0  0
 24 34  1  0  0  0  0
 25 35  1  0  0  0  0
 26 36  1  0  0  0  0
  3  4  1  0  0  0  0
  3  5  1  0  0  0  0
  3  6  1  0  0  0  0
 42 45  1  0  0  0  0
 42 46  1  0  0  0  0
 42 47  1  0  0  0  0
 11 14  1  0  0  0  0
 11 15  1  0  0  0  0
 11 16  1  0  0  0  0
 49 51  1  0  0  0  0
 49 52  1  0  0  0  0
 49 53  1  0  0  0  0
 21 31  1  0  0  0  0
 21 32  1  0  0  0  0
 39 44  1  0  0  0  0
  8 13  1  0  0  0  0
 18 30  1  0  0  0  0
 48 50  1  0  0  0  0
  7 12  1  0  0  0  0
 38 43  1  0  0  0  0
 17 29  1  0  0  0  0
 28 37  1  0  0  0  0
M  END
$$$$

  -OEChem-05262214473D

 53 53  0     1  0  0  0  0  0999 V2000
   -1.9298    0.2574    3.9747 C   0  0  0  0  0  0  0  0  0  0  0  0
   -0.9825   -0.3573    3.4990 O   0  0  0  0  0  0  0  0  0  0  0  0
   -2.3617   -0.0250    5.3754 C   0  0  0  0  0  0  0  0  0  0  0  0
   -3.1214   -0.8213    5.4288 H   0  0  0  0  0  0  0  0  0  0  0  0
   -1.5305   -0.3726    6.0097 H   0  0  0  0  0  0  0  0  0  0  0  0
   -2.7997    0.8299    5.9150 H   0  0  0  0  0  0  0  0  0  0  0  0
   -2.6795    1.2298    3.3336 N   0  0  0  0  0  0  0  0  0  0  0  0
   -2.4327    1.6559    1.9812 C   0  0  2  0  0  0  0  0  0  0  0  0
   -1.0977    1.0705    1.5400 C   0  0  0  0  0  0  0  0  0  0  0  0
   -0.2256    0.7177    2.3313 O   0  0  0  0  0  0  0  0  0  0  0  0
   -2.4239    3.1726    1.8718 C   0  0  0  0  0  0  0  0  0  0  0  0
   -3.4446    1.6657    3.8454 H   0  0  0  0  0  0  0  0  0  0  0  0
   -3.2368    1.2374    1.3661 H   0  0  0  0  0  0  0  0  0  0  0  0
   -1.6248    3.6099    2.4815 H   0  0  0  0  0  0  0  0  0  0  0  0
   -2.2644    3.4949    0.8375 H   0  0  0  0  0  0  0  0  0  0  0  0
   -3.3741    3.5939    2.2175 H   0  0  0  0  0  0  0  0  0  0  0  0
   -0.9750    1.0274    0.1566 N   0  0  0  0  0  0  0  0  0  0  0  0
    0.2023    0.5266   -0.5070 C   0  0  2  0  0  0  0  0  0  0  0  0
    0.3270    1.2746   -1.8296 C   0  0  0  0  0  0  0  0  0  0  0  0
    1.3419    1.2442   -2.5224 O   0  0  0  0  0  0  0  0  0  0  0  0
    0.1289   -0.9846   -0.7543 C   0  0  0  0  0  0  0  0  0  0  0  0
    0.1611   -1.7873    0.5233 C   0  0  0  0  0  0  0  0  0  0  0  0
    1.3780   -2.0464    1.1539 C   0  0  0  0  0  0  0  0  0  0  0  0
   -1.0262   -2.2706    1.0732 C   0  0  0  0  0  0  0  0  0  0  0  0
    1.4076   -2.7888    2.3344 C   0  0  0  0  0  0  0  0  0  0  0  0
   -0.9966   -3.0130    2.2538 C   0  0  0  0  0  0  0  0  0  0  0  0
    0.2204   -3.2721    2.8843 C   0  0  0  0  0  0  0  0  0  0  0  0
    0.2496   -3.9975    4.0356 O   0  0  0  0  0  0  0  0  0  0  0  0
   -1.7582    1.3241   -0.4207 H   0  0  0  0  0  0  0  0  0  0  0  0
    1.0547    0.7839    0.1326 H   0  0  0  0  0  0  0  0  0  0  0  0
    0.9497   -1.3028   -1.4113 H   0  0  0  0  0  0  0  0  0  0  0  0
   -0.7904   -1.2401   -1.2978 H   0  0  0  0  0  0  0  0  0  0  0  0
    2.3078   -1.6738    0.7326 H   0  0  0  0  0  0  0  0  0  0  0  0
   -1.9791   -2.0734    0.5888 H   0  0  0  0  0  0  0  0  0  0  0  0
    2.3589   -2.9876    2.8209 H   0  0  0  0  0  0  0  0  0  0  0  0
   -1.9247   -3.3869    2.6769 H   0  0  0  0  0  0  0  0  0  0  0  0
   -0.6491   -4.2610    4.2901 H   0  0  0  0  0  0  0  0  0  0  0  0
   -0.8460    1.9366   -2.1647 N   0  0  0  0  0  0  0  0  0  0  0  0
   -1.0052    2.7034   -3.3794 C   0  0  2  0  0  0  0  0  0  0  0  0
    0.1788    3.6544   -3.4938 C   0  0  0  0  0  0  0  0  0  0  0  0
    0.8502    4.0090   -2.5271 O   0  0  0  0  0  0  0  0  0  0  0  0
   -2.3194    3.4686   -3.3825 C   0  0  0  0  0  0  0  0  0  0  0  0
   -1.6321    1.8794   -1.5240 H   0  0  0  0  0  0  0  0  0  0  0  0
   -0.9821    1.9890   -4.2096 H   0  0  0  0  0  0  0  0  0  0  0  0
   -2.3609    4.1892   -2.5576 H   0  0  0  0  0  0  0  0  0  0  0  0
   -2.4516    4.0263   -4.3155 H   0  0  0  0  0  0  0  0  0  0  0  0
   -3.1683    2.7856   -3.2702 H   0  0  0  0  0  0  0  0  0  0  0  0
    0.3708    4.0945   -4.7960 N   0  0  0  0  0  0  0  0  0  0  0  0
    1.4230    5.0141   -5.1611 C   0  0  0  0  0  0  0  0  0  0  0  0
   -0.2218    3.7337   -5.5379 H   0  0  0  0  0  0  0  0  0  0  0  0
    1.0401    6.0445   -5.1218 H   0  0  0  0  0  0  0  0  0  0  0  0
    2.2626    4.9080   -4.4583 H   0  0  0  0  0  0  0  0  0  0  0  0
    1.7681    4.7899   -6.1812 H   0  0  0  0  0  0  0  0  0  0  0  0
 23 25  2  0  0  0  0
 22 23  1  0  0  0  0
 24 26  1  0  0  0  0
 22 24  2  0  0  0  0
 25 27  1  0  0  0  0
 26 27  2  0  0  0  0
 21 22  1  0  0  0  0
 27 28  1  0  0  0  0
  1  3  1  0  0  0  0
  1  7  1  0  0  0  0
  1  2  2  0  0  0  0
 39 40  1  0  0  0  0
 40 48  1  0  0  0  0
 40 41  2  0  0  0  0
  8  9  1  0  0  0  0
  9 17  1  0  0  0  0
  9 10  2  0  0  0  0
 18 19  1  0  0  0  0
 19 38  1  0  0  0  0
 19 20  2  0  0  0  0
 39 42  1  0  0  0  0
  8 11  1  0  0  0  0
 48 49  1  0  0  0  0
 18 21  1  0  0  0  0
 38 39  1  0  0  0  0
  7  8  1  0  0  0  0
 17 18  1  0  0  0  0
 23 33  1  0  0  0  0
 24 34  1  0  0  0  0
 25 35  1  0  0  0  0
 26 36  1  0  0  0  0
  3  4  1  0  0  0  0
  3  5  1  0  0  0  0
  3  6  1  0  0  0  0
 42 45  1  0  0  0  0
 42 46  1  0  0  0  0
 42 47  1  0  0  0  0
 11 14  1  0  0  0  0
 11 15  1  0  0  0  0
 11 16  1  0  0  0  0
 49 51  1  0  0  0  0
 49 52  1  0  0  0  0
 49 53  1  0  0  0  0
 21 31  1  0  0  0  0
 21 32  1  0  0  0  0
 39 44  1  0  0  0  0
  8 13  1  0  0  0  0
 18 30  1  0  0  0  0
 48 50  1  0  0  0  0
  7 12  1  0  0  0  0
 38 43  1  0  0  0  0
 17 29  1  0  0  0  0
 28 37  1  0  0  0  0
M  END
$$$$

  -OEChem-05262214473D

 53 53  0     1  0  0  0  0  0999 V2000
   -1.9298    0.2574    3.9747 C   0  0  0  0  0  0  0  0  0  0  0  0
   -0.9825   -0.3573    3.4990 O   0  0  0  0  0  0  0  0  0  0  0  0
   -2.3617   -0.0250    5.3754 C   0  0  0  0  0  0  0  0  0  0  0  0
   -3.1214   -0.8213    5.4288 H   0  0  0  0  0  0  0  0  0  0  0  0
   -1.5305   -0.3726    6.0097 H   0  0  0  0  0  0  0  0  0  0  0  0
   -2.7997    0.8299    5.9150 H   0  0  0  0  0  0  0  0  0  0  0  0
   -2.6795    1.2298    3.3336 N   0  0  0  0  0  0  0  0  0  0  0  0
   -2.4327    1.6559    1.9812 C   0  0  2  0  0  0  0  0  0  0  0  0
   -1.0977    1.0705    1.5400 C   0  0  0  0  0  0  0  0  0  0  0  0
   -0.2256    0.7177    2.3313 O   0  0  0  0  0  0  0  0  0  0  0  0
   -2.4239    3.1726    1.8718 C   0  0  0  0  0  0  0  0  0  0  0  0
   -3.4446    1.6657    3.8454 H   0  0  0  0  0  0  0  0  0  0  0  0
   -3.2368    1.2374    1.3661 H   0  0  0  0  0  0  0  0  0  0  0  0
   -1.6248    3.6099    2.4815 H   0  0  0  0  0  0  0  0  0  0  0  0
   -2.2644    3.4949    0.8375 H   0  0  0  0  0  0  0  0  0  0  0  0
   -3.3741    3.5939    2.2175 H   0  0  0  0  0  0  0  0  0  0  0  0
   -0.9750    1.0274    0.1566 N   0  0  0  0  0  0  0  0  0  0  0  0
    0.2023    0.5266   -0.5070 C   0  0  2  0  0  0  0  0  0  0  0  0
    0.3270    1.2746   -1.8296 C   0  0  0  0  0  0  0  0  0  0  0  0
    1.2144    1.0432   -2.6481 O   0  0  0  0  0  0  0  0  0  0  0  0
    0.1289   -0.9846   -0.7543 C   0  0  0  0  0  0  0  0  0  0  0  0
    0.1611   -1.7873    0.5233 C   0  0  0  0  0  0  0  0  0  0  0  0
    1.3780   -2.0464    1.1539 C   0  0  0  0  0  0  0  0  0  0  0  0
   -1.0262   -2.2706    1.0732 C   0  0  0  0  0  0  0  0  0  0  0  0
    1.4076   -2.7888    2.3344 C   0  0  0  0  0  0  0  0  0  0  0  0
   -0.9966   -3.0130    2.2538 C   0  0  0  0  0  0  0  0  0  0  0  0
    0.2204   -3.2721    2.8843 C   0  0  0  0  0  0  0  0  0  0  0  0
    0.2496   -3.9975    4.0356 O   0  0  0  0  0  0  0  0  0  0  0  0
   -1.7582    1.3241   -0.4207 H   0  0  0  0  0  0  0  0  0  0  0  0
    1.0547    0.7839    0.1326 H   0  0  0  0  0  0  0  0  0  0  0  0
    0.9497   -1.3028   -1.4113 H   0  0  0  0  0  0  0  0  0  0  0  0
   -0.7904   -1.2401   -1.2978 H   0  0  0  0  0  0  0  0  0  0  0  0
    2.3078   -1.6738    0.7326 H   0  0  0  0  0  0  0  0  0  0  0  0
   -1.9791   -2.0734    0.5888 H   0  0  0  0  0  0  0  0  0  0  0  0
    2.3589   -2.9876    2.8209 H   0  0  0  0  0  0  0  0  0  0  0  0
   -1.9247   -3.3869    2.6769 H   0  0  0  0  0  0  0  0  0  0  0  0
   -0.6491   -4.2610    4.2901 H   0  0  0  0  0  0  0  0  0  0  0  0
   -0.6985    2.1932   -2.0057 N   0  0  0  0  0  0  0  0  0  0  0  0
   -0.8304    3.0190   -3.1844 C   0  0  2  0  0  0  0  0  0  0  0  0
    0.5141    3.6853   -3.4448 C   0  0  0  0  0  0  0  0  0  0  0  0
    1.3633    3.8464   -2.5707 O   0  0  0  0  0  0  0  0  0  0  0  0
   -1.9276    4.0578   -3.0123 C   0  0  0  0  0  0  0  0  0  0  0  0
   -1.3911    2.2900   -1.2690 H   0  0  0  0  0  0  0  0  0  0  0  0
   -1.0729    2.3476   -4.0154 H   0  0  0  0  0  0  0  0  0  0  0  0
   -1.7022    4.7397   -2.1842 H   0  0  0  0  0  0  0  0  0  0  0  0
   -2.0456    4.6639   -3.9166 H   0  0  0  0  0  0  0  0  0  0  0  0
   -2.8881    3.5780   -2.7957 H   0  0  0  0  0  0  0  0  0  0  0  0
    0.6368    4.1177   -4.7578 N   0  0  0  0  0  0  0  0  0  0  0  0
    1.8156    4.7916   -5.2499 C   0  0  0  0  0  0  0  0  0  0  0  0
   -0.1097    3.9249   -5.4192 H   0  0  0  0  0  0  0  0  0  0  0  0
    1.6833    5.8795   -5.1545 H   0  0  0  0  0  0  0  0  0  0  0  0
    2.6904    4.4759   -4.6624 H   0  0  0  0  0  0  0  0  0  0  0  0
    1.9714    4.5326   -6.3075 H   0  0  0  0  0  0  0  0  0  0  0  0
 23 25  2  0  0  0  0
 22 23  1  0  0  0  0
 24 26  1  0  0  0  0
 22 24  2  0  0  0  0
 25 27  1  0  0  0  0
 26 27  2  0  0  0  0
 21 22  1  0  0  0  0
 27 28  1  0  0  0  0
  1  3  1  0  0  0  0
  1  7  1  0  0  0  0
  1  2  2  0  0  0  0
 39 40  1  0  0  0  0
 40 48  1  0  0  0  0
 40 41  2  0  0  0  0
  8  9  1  0  0  0  0
  9 17  1  0  0  0  0
  9 10  2  0  0  0  0
 18 19  1  0  0  0  0
 19 38  1  0  0  0  0
 19 20  2  0  0  0  0
 39 42  1  0  0  0  0
  8 11  1  0  0  0  0
 48 49  1  0  0  0  0
 18 21  1  0  0  0  0
 38 39  1  0  0  0  0
  7  8  1  0  0  0  0
 17 18  1  0  0  0  0
 23 33  1  0  0  0  0
 24 34  1  0  0  0  0
 25 35  1  0  0  0  0
 26 36  1  0  0  0  0
  3  4  1  0  0  0  0
  3  5  1  0  0  0  0
  3  6  1  0  0  0  0
 42 45  1  0  0  0  0
 42 46  1  0  0  0  0
 42 47  1  0  0  0  0
 11 14  1  0  0  0  0
 11 15  1  0  0  0  0
 11 16  1  0  0  0  0
 49 51  1  0  0  0  0
 49 52  1  0  0  0  0
 49 53  1  0  0  0  0
 21 31  1  0  0  0  0
 21 32  1  0  0  0  0
 39 44  1  0  0  0  0
  8 13  1  0  0  0  0
 18 30  1  0  0  0  0
 48 50  1  0  0  0  0
  7 12  1  0  0  0  0
 38 43  1  0  0  0  0
 17 29  1  0  0  0  0
 28 37  1  0  0  0  0
M  END
$$$$

  -OEChem-05262214473D

 53 53  0     1  0  0  0  0  0999 V2000
   -1.9298    0.2574    3.9747 C   0  0  0  0  0  0  0  0  0  0  0  0
   -0.9825   -0.3573    3.4990 O   0  0  0  0  0  0  0  0  0  0  0  0
   -2.3617   -0.0250    5.3754 C   0  0  0  0  0  0  0  0  0  0  0  0
   -3.1214   -0.8213    5.4288 H   0  0  0  0  0  0  0  0  0  0  0  0
   -1.5305   -0.3726    6.0097 H   0  0  0  0  0  0  0  0  0  0  0  0
   -2.7997    0.8299    5.9150 H   0  0  0  0  0  0  0  0  0  0  0  0
   -2.6795    1.2298    3.3336 N   0  0  0  0  0  0  0  0  0  0  0  0
   -2.4327    1.6559    1.9812 C   0  0  2  0  0  0  0  0  0  0  0  0
   -1.0977    1.0705    1.5400 C   0  0  0  0  0  0  0  0  0  0  0  0
   -0.2256    0.7177    2.3313 O   0  0  0  0  0  0  0  0  0  0  0  0
   -2.4239    3.1726    1.8718 C   0  0  0  0  0  0  0  0  0  0  0  0
   -3.4446    1.6657    3.8454 H   0  0  0  0  0  0  0  0  0  0  0  0
   -3.2368    1.2374    1.3661 H   0  0  0  0  0  0  0  0  0  0  0  0
   -1.6248    3.6099    2.4815 H   0  0  0  0  0  0  0  0  0  0  0  0
   -2.2644    3.4949    0.8375 H   0  0  0  0  0  0  0  0  0  0  0  0
   -3.3741    3.5939    2.2175 H   0  0  0  0  0  0  0  0  0  0  0  0
   -0.9750    1.0274    0.1566 N   0  0  0  0  0  0  0  0  0  0  0  0
    0.2023    0.5266   -0.5070 C   0  0  2  0  0  0  0  0  0  0  0  0
    0.3270    1.2746   -1.8296 C   0  0  0  0  0  0  0  0  0  0  0  0
    1.0301    0.8803   -2.7575 O   0  0  0  0  0  0  0  0  0  0  0  0
    0.1289   -0.9846   -0.7543 C   0  0  0  0  0  0  0  0  0  0  0  0
    0.1611   -1.7873    0.5233 C   0  0  0  0  0  0  0  0  0  0  0  0
    1.3780   -2.0464    1.1539 C   0  0  0  0  0  0  0  0  0  0  0  0
   -1.0262   -2.2706    1.0732 C   0  0  0  0  0  0  0  0  0  0  0  0
    1.4076   -2.7888    2.3344 C   0  0  0  0  0  0  0  0  0  0  0  0
   -0.9966   -3.0130    2.2538 C   0  0  0  0  0  0  0  0  0  0  0  0
    0.2204   -3.2721    2.8843 C   0  0  0  0  0  0  0  0  0  0  0  0
    0.2496   -3.9975    4.0356 O   0  0  0  0  0  0  0  0  0  0  0  0
   -1.7582    1.3241   -0.4207 H   0  0  0  0  0  0  0  0  0  0  0  0
    1.0547    0.7839    0.1326 H   0  0  0  0  0  0  0  0  0  0  0  0
    0.9497   -1.3028   -1.4113 H   0  0  0  0  0  0  0  0  0  0  0  0
   -0.7904   -1.2401   -1.2978 H   0  0  0  0  0  0  0  0  0  0  0  0
    2.3078   -1.6738    0.7326 H   0  0  0  0  0  0  0  0  0  0  0  0
   -1.9791   -2.0734    0.5888 H   0  0  0  0  0  0  0  0  0  0  0  0
    2.3589   -2.9876    2.8209 H   0  0  0  0  0  0  0  0  0  0  0  0
   -1.9247   -3.3869    2.6769 H   0  0  0  0  0  0  0  0  0  0  0  0
   -0.6491   -4.2610    4.2901 H   0  0  0  0  0  0  0  0  0  0  0  0
   -0.4782    2.4046   -1.8654 N   0  0  0  0  0  0  0  0  0  0  0  0
   -0.5659    3.2805   -3.0116 C   0  0  2  0  0  0  0  0  0  0  0  0
    0.8512    3.6388   -3.4393 C   0  0  0  0  0  0  0  0  0  0  0  0
    1.8169    3.5750   -2.6814 O   0  0  0  0  0  0  0  0  0  0  0  0
   -1.3699    4.5312   -2.6920 C   0  0  0  0  0  0  0  0  0  0  0  0
   -1.0337    2.6272   -1.0446 H   0  0  0  0  0  0  0  0  0  0  0  0
   -1.0554    2.7102   -3.8086 H   0  0  0  0  0  0  0  0  0  0  0  0
   -0.8950    5.1155   -1.8955 H   0  0  0  0  0  0  0  0  0  0  0  0
   -1.4597    5.1801   -3.5694 H   0  0  0  0  0  0  0  0  0  0  0  0
   -2.3793    4.2703   -2.3561 H   0  0  0  0  0  0  0  0  0  0  0  0
    0.9038    4.0795   -4.7543 N   0  0  0  0  0  0  0  0  0  0  0  0
    2.1337    4.4905   -5.3902 C   0  0  0  0  0  0  0  0  0  0  0  0
    0.0566    4.0818   -5.3147 H   0  0  0  0  0  0  0  0  0  0  0  0
    2.2635    5.5763   -5.2713 H   0  0  0  0  0  0  0  0  0  0  0  0
    2.9807    3.9667   -4.9230 H   0  0  0  0  0  0  0  0  0  0  0  0
    2.0939    4.2411   -6.4608 H   0  0  0  0  0  0  0  0  0  0  0  0
 23 25  2  0  0  0  0
 22 23  1  0  0  0  0
 24 26  1  0  0  0  0
 22 24  2  0  0  0  0
 25 27  1  0  0  0  0
 26 27  2  0  0  0  0
 21 22  1  0  0  0  0
 27 28  1  0  0  0  0
  1  3  1  0  0  0  0
  1  7  1  0  0  0  0
  1  2  2  0  0  0  0
 39 40  1  0  0  0  0
 40 48  1  0  0  0  0
 40 41  2  0  0  0  0
  8  9  1  0  0  0  0
  9 17  1  0  0  0  0
  9 10  2  0  0  0  0
 18 19  1  0  0  0  0
 19 38  1  0  0  0  0
 19 20  2  0  0  0  0
 39 42  1  0  0  0  0
  8 11  1  0  0  0  0
 48 49  1  0  0  0  0
 18 21  1  0  0  0  0
 38 39  1  0  0  0  0
  7  8  1  0  0  0  0
 17 18  1  0  0  0  0
 23 33  1  0  0  0  0
 24 34  1  0  0  0  0
 25 35  1  0  0  0  0
 26 36  1  0  0  0  0
  3  4  1  0  0  0  0
  3  5  1  0  0  0  0
  3  6  1  0  0  0  0
 42 45  1  0  0  0  0
 42 46  1  0  0  0  0
 42 47  1  0  0  0  0
 11 14  1  0  0  0  0
 11 15  1  0  0  0  0
 11 16  1  0  0  0  0
 49 51  1  0  0  0  0
 49 52  1  0  0  0  0
 49 53  1  0  0  0  0
 21 31  1  0  0  0  0
 21 32  1  0  0  0  0
 39 44  1  0  0  0  0
  8 13  1  0  0  0  0
 18 30  1  0  0  0  0
 48 50  1  0  0  0  0
  7 12  1  0  0  0  0
 38 43  1  0  0  0  0
 17 29  1  0  0  0  0
 28 37  1  0  0  0  0
M  END
$$$$

  -OEChem-05262214473D

 53 53  0     1  0  0  0  0  0999 V2000
   -1.9298    0.2574    3.9747 C   0  0  0  0  0  0  0  0  0  0  0  0
   -0.9825   -0.3573    3.4990 O   0  0  0  0  0  0  0  0  0  0  0  0
   -2.3617   -0.0250    5.3754 C   0  0  0  0  0  0  0  0  0  0  0  0
   -3.1214   -0.8213    5.4288 H   0  0  0  0  0  0  0  0  0  0  0  0
   -1.5305   -0.3726    6.0097 H   0  0  0  0  0  0  0  0  0  0  0  0
   -2.7997    0.8299    5.9150 H   0  0  0  0  0  0  0  0  0  0  0  0
   -2.6795    1.2298    3.3336 N   0  0  0  0  0  0  0  0  0  0  0  0
   -2.4327    1.6559    1.9812 C   0  0  2  0  0  0  0  0  0  0  0  0
   -1.0977    1.0705    1.5400 C   0  0  0  0  0  0  0  0  0  0  0  0
   -0.2256    0.7177    2.3313 O   0  0  0  0  0  0  0  0  0  0  0  0
   -2.4239    3.1726    1.8718 C   0  0  0  0  0  0  0  0  0  0  0  0
   -3.4446    1.6657    3.8454 H   0  0  0  0  0  0  0  0  0  0  0  0
   -3.2368    1.2374    1.3661 H   0  0  0  0  0  0  0  0  0  0  0  0
   -1.6248    3.6099    2.4815 H   0  0  0  0  0  0  0  0  0  0  0  0
   -2.2644    3.4949    0.8375 H   0  0  0  0  0  0  0  0  0  0  0  0
   -3.3741    3.5939    2.2175 H   0  0  0  0  0  0  0  0  0  0  0  0
   -0.9750    1.0274    0.1566 N   0  0  0  0  0  0  0  0  0  0  0  0
    0.2023    0.5266   -0.5070 C   0  0  2  0  0  0  0  0  0  0  0  0
    0.3270    1.2746   -1.8296 C   0  0  0  0  0  0  0  0  0  0  0  0
    0.8016    0.7667   -2.8433 O   0  0  0  0  0  0  0  0  0  0  0  0
    0.1289   -0.9846   -0.7543 C   0  0  0  0  0  0  0  0  0  0  0  0
    0.1611   -1.7873    0.5233 C   0  0  0  0  0  0  0  0  0  0  0  0
    1.3780   -2.0464    1.1539 C   0  0  0  0  0  0  0  0  0  0  0  0
   -1.0262   -2.2706    1.0732 C   0  0  0  0  0  0  0  0  0  0  0  0
    1.4076   -2.7888    2.3344 C   0  0  0  0  0  0  0  0  0  0  0  0
   -0.9966   -3.0130    2.2538 C   0  0  0  0  0  0  0  0  0  0  0  0
    0.2204   -3.2721    2.8843 C   0  0  0  0  0  0  0  0  0  0  0  0
    0.2496   -3.9975    4.0356 O   0  0  0  0  0  0  0  0  0  0  0  0
   -1.7582    1.3241   -0.4207 H   0  0  0  0  0  0  0  0  0  0  0  0
    1.0547    0.7839    0.1326 H   0  0  0  0  0  0  0  0  0  0  0  0
    0.9497   -1.3028   -1.4113 H   0  0  0  0  0  0  0  0  0  0  0  0
   -0.7904   -1.2401   -1.2978 H   0  0  0  0  0  0  0  0  0  0  0  0
    2.3078   -1.6738    0.7326 H   0  0  0  0  0  0  0  0  0  0  0  0
   -1.9791   -2.0734    0.5888 H   0  0  0  0  0  0  0  0  0  0  0  0
    2.3589   -2.9876    2.8209 H   0  0  0  0  0  0  0  0  0  0  0  0
   -1.9247   -3.3869    2.6769 H   0  0  0  0  0  0  0  0  0  0  0  0
   -0.6491   -4.2610    4.2901 H   0  0  0  0  0  0  0  0  0  0  0  0
   -0.2001    2.5563   -1.7533 N   0  0  0  0  0  0  0  0  0  0  0  0
   -0.2298    3.4700   -2.8727 C   0  0  2  0  0  0  0  0  0  0  0  0
    1.1670    3.5181   -3.4778 C   0  0  0  0  0  0  0  0  0  0  0  0
    2.1800    3.2134   -2.8517 O   0  0  0  0  0  0  0  0  0  0  0  0
   -0.6843    4.8564   -2.4434 C   0  0  0  0  0  0  0  0  0  0  0  0
   -0.5843    2.8678   -0.8661 H   0  0  0  0  0  0  0  0  0  0  0  0
   -0.9308    3.0522   -3.6035 H   0  0  0  0  0  0  0  0  0  0  0  0
    0.0058    5.2912   -1.7112 H   0  0  0  0  0  0  0  0  0  0  0  0
   -0.7337    5.5399   -3.2975 H   0  0  0  0  0  0  0  0  0  0  0  0
   -1.6766    4.8156   -1.9815 H   0  0  0  0  0  0  0  0  0  0  0  0
    1.1535    3.9825   -4.7855 N   0  0  0  0  0  0  0  0  0  0  0  0
    2.3554    4.1311   -5.5725 C   0  0  0  0  0  0  0  0  0  0  0  0
    0.2658    4.1939   -5.2316 H   0  0  0  0  0  0  0  0  0  0  0  0
    2.7410    5.1556   -5.4642 H   0  0  0  0  0  0  0  0  0  0  0  0
    3.1137    3.4152   -5.2223 H   0  0  0  0  0  0  0  0  0  0  0  0
    2.1273    3.9353   -6.6306 H   0  0  0  0  0  0  0  0  0  0  0  0
 23 25  2  0  0  0  0
 22 23  1  0  0  0  0
 24 26  1  0  0  0  0
 22 24  2  0  0  0  0
 25 27  1  0  0  0  0
 26 27  2  0  0  0  0
 21 22  1  0  0  0  0
 27 28  1  0  0  0  0
  1  3  1  0  0  0  0
  1  7  1  0  0  0  0
  1  2  2  0  0  0  0
 39 40  1  0  0  0  0
 40 48  1  0  0  0  0
 40 41  2  0  0  0  0
  8  9  1  0  0  0  0
  9 17  1  0  0  0  0
  9 10  2  0  0  0  0
 18 19  1  0  0  0  0
 19 38  1  0  0  0  0
 19 20  2  0  0  0  0
 39 42  1  0  0  0  0
  8 11  1  0  0  0  0
 48 49  1  0  0  0  0
 18 21  1  0  0  0  0
 38 39  1  0  0  0  0
  7  8  1  0  0  0  0
 17 18  1  0  0  0  0
 23 33  1  0  0  0  0
 24 34  1  0  0  0  0
 25 35  1  0  0  0  0
 26 36  1  0  0  0  0
  3  4  1  0  0  0  0
  3  5  1  0  0  0  0
  3  6  1  0  0  0  0
 42 45  1  0  0  0  0
 42 46  1  0  0  0  0
 42 47  1  0  0  0  0
 11 14  1  0  0  0  0
 11 15  1  0  0  0  0
 11 16  1  0  0  0  0
 49 51  1  0  0  0  0
 49 52  1  0  0  0  0
 49 53  1  0  0  0  0
 21 31  1  0  0  0  0
 21 32  1  0  0  0  0
 39 44  1  0  0  0  0
  8 13  1  0  0  0  0
 18 30  1  0  0  0  0
 48 50  1  0  0  0  0
  7 12  1  0  0  0  0
 38 43  1  0  0  0  0
 17 29  1  0  0  0  0
 28 37  1  0  0  0  0
M  END
$$$$

  -OEChem-05262214473D

 53 53  0     1  0  0  0  0  0999 V2000
   -1.9298    0.2574    3.9747 C   0  0  0  0  0  0  0  0  0  0  0  0
   -0.9825   -0.3573    3.4990 O   0  0  0  0  0  0  0  0  0  0  0  0
   -2.3617   -0.0250    5.3754 C   0  0  0  0  0  0  0  0  0  0  0  0
   -3.1214   -0.8213    5.4288 H   0  0  0  0  0  0  0  0  0  0  0  0
   -1.5305   -0.3726    6.0097 H   0  0  0  0  0  0  0  0  0  0  0  0
   -2.7997    0.8299    5.9150 H   0  0  0  0  0  0  0  0  0  0  0  0
   -2.6795    1.2298    3.3336 N   0  0  0  0  0  0  0  0  0  0  0  0
   -2.4327    1.6559    1.9812 C   0  0  2  0  0  0  0  0  0  0  0  0
   -1.0977    1.0705    1.5400 C   0  0  0  0  0  0  0  0  0  0  0  0
   -0.2256    0.7177    2.3313 O   0  0  0  0  0  0  0  0  0  0  0  0
   -2.4239    3.1726    1.8718 C   0  0  0  0  0  0  0  0  0  0  0  0
   -3.4446    1.6657    3.8454 H   0  0  0  0  0  0  0  0  0  0  0  0
   -3.2368    1.2374    1.3661 H   0  0  0  0  0  0  0  0  0  0  0  0
   -1.6248    3.6099    2.4815 H   0  0  0  0  0  0  0  0  0  0  0  0
   -2.2644    3.4949    0.8375 H   0  0  0  0  0  0  0  0  0  0  0  0
   -3.3741    3.5939    2.2175 H   0  0  0  0  0  0  0  0  0  0  0  0
   -0.9750    1.0274    0.1566 N   0  0  0  0  0  0  0  0  0  0  0  0
    0.2023    0.5266   -0.5070 C   0  0  2  0  0  0  0  0  0  0  0  0
    0.3270    1.2746   -1.8296 C   0  0  0  0  0  0  0  0  0  0  0  0
    0.5446    0.7101   -2.8996 O   0  0  0  0  0  0  0  0  0  0  0  0
    0.1289   -0.9846   -0.7543 C   0  0  0  0  0  0  0  0  0  0  0  0
    0.1611   -1.7873    0.5233 C   0  0  0  0  0  0  0  0  0  0  0  0
    1.3780   -2.0464    1.1539 C   0  0  0  0  0  0  0  0  0  0  0  0
   -1.0262   -2.2706    1.0732 C   0  0  0  0  0  0  0  0  0  0  0  0
    1.4076   -2.7888    2.3344 C   0  0  0  0  0  0  0  0  0  0  0  0
   -0.9966   -3.0130    2.2538 C   0  0  0  0  0  0  0  0  0  0  0  0
    0.2204   -3.2721    2.8843 C   0  0  0  0  0  0  0  0  0  0  0  0
    0.2496   -3.9975    4.0356 O   0  0  0  0  0  0  0  0  0  0  0  0
   -1.7582    1.3241   -0.4207 H   0  0  0  0  0  0  0  0  0  0  0  0
    1.0547    0.7839    0.1326 H   0  0  0  0  0  0  0  0  0  0  0  0
    0.9497   -1.3028   -1.4113 H   0  0  0  0  0  0  0  0  0  0  0  0
   -0.7904   -1.2401   -1.2978 H   0  0  0  0  0  0  0  0  0  0  0  0
    2.3078   -1.6738    0.7326 H   0  0  0  0  0  0  0  0  0  0  0  0
   -1.9791   -2.0734    0.5888 H   0  0  0  0  0  0  0  0  0  0  0  0
    2.3589   -2.9876    2.8209 H   0  0  0  0  0  0  0  0  0  0  0  0
   -1.9247   -3.3869    2.6769 H   0  0  0  0  0  0  0  0  0  0  0  0
   -0.6491   -4.2610    4.2901 H   0  0  0  0  0  0  0  0  0  0  0  0
    0.1168    2.6381   -1.6772 N   0  0  0  0  0  0  0  0  0  0  0  0
    0.1550    3.5747   -2.7772 C   0  0  2  0  0  0  0  0  0  0  0  0
    1.4400    3.3314   -3.5576 C   0  0  0  0  0  0  0  0  0  0  0  0
    2.4280    2.7862   -3.0699 O   0  0  0  0  0  0  0  0  0  0  0  0
    0.0826    5.0113   -2.2835 C   0  0  0  0  0  0  0  0  0  0  0  0
   -0.0736    2.9956   -0.7457 H   0  0  0  0  0  0  0  0  0  0  0  0
   -0.7077    3.3502   -3.4139 H   0  0  0  0  0  0  0  0  0  0  0  0
    0.9388    5.2547   -1.6438 H   0  0  0  0  0  0  0  0  0  0  0  0
    0.0829    5.7186   -3.1194 H   0  0  0  0  0  0  0  0  0  0  0  0
   -0.8278    5.1765   -1.6973 H   0  0  0  0  0  0  0  0  0  0  0  0
    1.3691    3.8335   -4.8495 N   0  0  0  0  0  0  0  0  0  0  0  0
    2.4658    3.7381   -5.7844 C   0  0  0  0  0  0  0  0  0  0  0  0
    0.5035    4.2534   -5.1756 H   0  0  0  0  0  0  0  0  0  0  0  0
    3.0832    4.6462   -5.7200 H   0  0  0  0  0  0  0  0  0  0  0  0
    3.0803    2.8590   -5.5401 H   0  0  0  0  0  0  0  0  0  0  0  0
    2.0694    3.6360   -6.8054 H   0  0  0  0  0  0  0  0  0  0  0  0
 23 25  2  0  0  0  0
 22 23  1  0  0  0  0
 24 26  1  0  0  0  0
 22 24  2  0  0  0  0
 25 27  1  0  0  0  0
 26 27  2  0  0  0  0
 21 22  1  0  0  0  0
 27 28  1  0  0  0  0
  1  3  1  0  0  0  0
  1  7  1  0  0  0  0
  1  2  2  0  0  0  0
 39 40  1  0  0  0  0
 40 48  1  0  0  0  0
 40 41  2  0  0  0  0
  8  9  1  0  0  0  0
  9 17  1  0  0  0  0
  9 10  2  0  0  0  0
 18 19  1  0  0  0  0
 19 38  1  0  0  0  0
 19 20  2  0  0  0  0
 39 42  1  0  0  0  0
  8 11  1  0  0  0  0
 48 49  1  0  0  0  0
 18 21  1  0  0  0  0
 38 39  1  0  0  0  0
  7  8  1  0  0  0  0
 17 18  1  0  0  0  0
 23 33  1  0  0  0  0
 24 34  1  0  0  0  0
 25 35  1  0  0  0  0
 26 36  1  0  0  0  0
  3  4  1  0  0  0  0
  3  5  1  0  0  0  0
  3  6  1  0  0  0  0
 42 45  1  0  0  0  0
 42 46  1  0  0  0  0
 42 47  1  0  0  0  0
 11 14  1  0  0  0  0
 11 15  1  0  0  0  0
 11 16  1  0  0  0  0
 49 51  1  0  0  0  0
 49 52  1  0  0  0  0
 49 53  1  0  0  0  0
 21 31  1  0  0  0  0
 21 32  1  0  0  0  0
 39 44  1  0  0  0  0
  8 13  1  0  0  0  0
 18 30  1  0  0  0  0
 48 50  1  0  0  0  0
  7 12  1  0  0  0  0
 38 43  1  0  0  0  0
 17 29  1  0  0  0  0
 28 37  1  0  0  0  0
M  END
$$$$

  -OEChem-05262214473D

 53 53  0     1  0  0  0  0  0999 V2000
   -1.9298    0.2574    3.9747 C   0  0  0  0  0  0  0  0  0  0  0  0
   -0.9825   -0.3573    3.4990 O   0  0  0  0  0  0  0  0  0  0  0  0
   -2.3617   -0.0250    5.3754 C   0  0  0  0  0  0  0  0  0  0  0  0
   -3.1214   -0.8213    5.4288 H   0  0  0  0  0  0  0  0  0  0  0  0
   -1.5305   -0.3726    6.0097 H   0  0  0  0  0  0  0  0  0  0  0  0
   -2.7997    0.8299    5.9150 H   0  0  0  0  0  0  0  0  0  0  0  0
   -2.6795    1.2298    3.3336 N   0  0  0  0  0  0  0  0  0  0  0  0
   -2.4327    1.6559    1.9812 C   0  0  2  0  0  0  0  0  0  0  0  0
   -1.0977    1.0705    1.5400 C   0  0  0  0  0  0  0  0  0  0  0  0
   -0.2256    0.7177    2.3313 O   0  0  0  0  0  0  0  0  0  0  0  0
   -2.4239    3.1726    1.8718 C   0  0  0  0  0  0  0  0  0  0  0  0
   -3.4446    1.6657    3.8454 H   0  0  0  0  0  0  0  0  0  0  0  0
   -3.2368    1.2374    1.3661 H   0  0  0  0  0  0  0  0  0  0  0  0
   -1.6248    3.6099    2.4815 H   0  0  0  0  0  0  0  0  0  0  0  0
   -2.2644    3.4949    0.8375 H   0  0  0  0  0  0  0  0  0  0  0  0
   -3.3741    3.5939    2.2175 H   0  0  0  0  0  0  0  0  0  0  0  0
   -0.9750    1.0274    0.1566 N   0  0  0  0  0  0  0  0  0  0  0  0
    0.2023    0.5266   -0.5070 C   0  0  2  0  0  0  0  0  0  0  0  0
    0.3270    1.2746   -1.8296 C   0  0  0  0  0  0  0  0  0  0  0  0
    0.2764    0.7144   -2.9225 O   0  0  0  0  0  0  0  0  0  0  0  0
    0.1289   -0.9846   -0.7543 C   0  0  0  0  0  0  0  0  0  0  0  0
    0.1611   -1.7873    0.5233 C   0  0  0  0  0  0  0  0  0  0  0  0
    1.3780   -2.0464    1.1539 C   0  0  0  0  0  0  0  0  0  0  0  0
   -1.0262   -2.2706    1.0732 C   0  0  0  0  0  0  0  0  0  0  0  0
    1.4076   -2.7888    2.3344 C   0  0  0  0  0  0  0  0  0  0  0  0
   -0.9966   -3.0130    2.2538 C   0  0  0  0  0  0  0  0  0  0  0  0
    0.2204   -3.2721    2.8843 C   0  0  0  0  0  0  0  0  0  0  0  0
    0.2496   -3.9975    4.0356 O   0  0  0  0  0  0  0  0  0  0  0  0
   -1.7582    1.3241   -0.4207 H   0  0  0  0  0  0  0  0  0  0  0  0
    1.0547    0.7839    0.1326 H   0  0  0  0  0  0  0  0  0  0  0  0
    0.9497   -1.3028   -1.4113 H   0  0  0  0  0  0  0  0  0  0  0  0
   -0.7904   -1.2401   -1.2978 H   0  0  0  0  0  0  0  0  0  0  0  0
    2.3078   -1.6738    0.7326 H   0  0  0  0  0  0  0  0  0  0  0  0
   -1.9791   -2.0734    0.5888 H   0  0  0  0  0  0  0  0  0  0  0  0
    2.3589   -2.9876    2.8209 H   0  0  0  0  0  0  0  0  0  0  0  0
   -1.9247   -3.3869    2.6769 H   0  0  0  0  0  0  0  0  0  0  0  0
   -0.6491   -4.2610    4.2901 H   0  0  0  0  0  0  0  0  0  0  0  0
    0.4509    2.6443   -1.6422 N   0  0  0  0  0  0  0  0  0  0  0  0
    0.5624    3.5874   -2.7316 C   0  0  2  0  0  0  0  0  0  0  0  0
    1.6518    3.0915   -3.6733 C   0  0  0  0  0  0  0  0  0  0  0  0
    2.5438    2.3225   -3.3212 O   0  0  0  0  0  0  0  0  0  0  0  0
    0.8784    4.9853   -2.2231 C   0  0  0  0  0  0  0  0  0  0  0  0
    0.4638    3.0018   -0.6915 H   0  0  0  0  0  0  0  0  0  0  0  0
   -0.4011    3.5839   -3.2528 H   0  0  0  0  0  0  0  0  0  0  0  0
    1.8403    5.0086   -1.6980 H   0  0  0  0  0  0  0  0  0  0  0  0
    0.9344    5.7041   -3.0473 H   0  0  0  0  0  0  0  0  0  0  0  0
    0.1092    5.3285   -1.5229 H   0  0  0  0  0  0  0  0  0  0  0  0
    1.5356    3.6425   -4.9418 N   0  0  0  0  0  0  0  0  0  0  0  0
    2.4573    3.3381   -6.0114 C   0  0  0  0  0  0  0  0  0  0  0  0
    0.7537    4.2563   -5.1503 H   0  0  0  0  0  0  0  0  0  0  0  0
    3.2670    4.0827   -6.0214 H   0  0  0  0  0  0  0  0  0  0  0  0
    2.8828    2.3360   -5.8545 H   0  0  0  0  0  0  0  0  0  0  0  0
    1.9240    3.3636   -6.9731 H   0  0  0  0  0  0  0  0  0  0  0  0
 23 25  2  0  0  0  0
 22 23  1  0  0  0  0
 24 26  1  0  0  0  0
 22 24  2  0  0  0  0
 25 27  1  0  0  0  0
 26 27  2  0  0  0  0
 21 22  1  0  0  0  0
 27 28  1  0  0  0  0
  1  3  1  0  0  0  0
  1  7  1  0  0  0  0
  1  2  2  0  0  0  0
 39 40  1  0  0  0  0
 40 48  1  0  0  0  0
 40 41  2  0  0  0  0
  8  9  1  0  0  0  0
  9 17  1  0  0  0  0
  9 10  2  0  0  0  0
 18 19  1  0  0  0  0
 19 38  1  0  0  0  0
 19 20  2  0  0  0  0
 39 42  1  0  0  0  0
  8 11  1  0  0  0  0
 48 49  1  0  0  0  0
 18 21  1  0  0  0  0
 38 39  1  0  0  0  0
  7  8  1  0  0  0  0
 17 18  1  0  0  0  0
 23 33  1  0  0  0  0
 24 34  1  0  0  0  0
 25 35  1  0  0  0  0
 26 36  1  0  0  0  0
  3  4  1  0  0  0  0
  3  5  1  0  0  0  0
  3  6  1  0  0  0  0
 42 45  1  0  0  0  0
 42 46  1  0  0  0  0
 42 47  1  0  0  0  0
 11 14  1  0  0  0  0
 11 15  1  0  0  0  0
 11 16  1  0  0  0  0
 49 51  1  0  0  0  0
 49 52  1  0  0  0  0
 49 53  1  0  0  0  0
 21 31  1  0  0  0  0
 21 32  1  0  0  0  0
 39 44  1  0  0  0  0
  8 13  1  0  0  0  0
 18 30  1  0  0  0  0
 48 50  1  0  0  0  0
  7 12  1  0  0  0  0
 38 43  1  0  0  0  0
 17 29  1  0  0  0  0
 28 37  1  0  0  0  0
M  END
$$$$

  -OEChem-05262214473D

 53 53  0     1  0  0  0  0  0999 V2000
   -1.9298    0.2574    3.9747 C   0  0  0  0  0  0  0  0  0  0  0  0
   -0.9825   -0.3573    3.4990 O   0  0  0  0  0  0  0  0  0  0  0  0
   -2.3617   -0.0250    5.3754 C   0  0  0  0  0  0  0  0  0  0  0  0
   -3.1214   -0.8213    5.4288 H   0  0  0  0  0  0  0  0  0  0  0  0
   -1.5305   -0.3726    6.0097 H   0  0  0  0  0  0  0  0  0  0  0  0
   -2.7997    0.8299    5.9150 H   0  0  0  0  0  0  0  0  0  0  0  0
   -2.6795    1.2298    3.3336 N   0  0  0  0  0  0  0  0  0  0  0  0
   -2.4327    1.6559    1.9812 C   0  0  2  0  0  0  0  0  0  0  0  0
   -1.0977    1.0705    1.5400 C   0  0  0  0  0  0  0  0  0  0  0  0
   -0.2256    0.7177    2.3313 O   0  0  0  0  0  0  0  0  0  0  0  0
   -2.4239    3.1726    1.8718 C   0  0  0  0  0  0  0  0  0  0  0  0
   -3.4446    1.6657    3.8454 H   0  0  0  0  0  0  0  0  0  0  0  0
   -3.2368    1.2374    1.3661 H   0  0  0  0  0  0  0  0  0  0  0  0
   -1.6248    3.6099    2.4815 H   0  0  0  0  0  0  0  0  0  0  0  0
   -2.2644    3.4949    0.8375 H   0  0  0  0  0  0  0  0  0  0  0  0
   -3.3741    3.5939    2.2175 H   0  0  0  0  0  0  0  0  0  0  0  0
   -0.9750    1.0274    0.1566 N   0  0  0  0  0  0  0  0  0  0  0  0
    0.2023    0.5266   -0.5070 C   0  0  2  0  0  0  0  0  0  0  0  0
    0.3270    1.2746   -1.8296 C   0  0  0  0  0  0  0  0  0  0  0  0
    0.0154    0.7791   -2.9105 O   0  0  0  0  0  0  0  0  0  0  0  0
    0.1289   -0.9846   -0.7543 C   0  0  0  0  0  0  0  0  0  0  0  0
    0.1611   -1.7873    0.5233 C   0  0  0  0  0  0  0  0  0  0  0  0
    1.3780   -2.0464    1.1539 C   0  0  0  0  0  0  0  0  0  0  0  0
   -1.0262   -2.2706    1.0732 C   0  0  0  0  0  0  0  0  0  0  0  0
    1.4076   -2.7888    2.3344 C   0  0  0  0  0  0  0  0  0  0  0  0
   -0.9966   -3.0130    2.2538 C   0  0  0  0  0  0  0  0  0  0  0  0
    0.2204   -3.2721    2.8843 C   0  0  0  0  0  0  0  0  0  0  0  0
    0.2496   -3.9975    4.0356 O   0  0  0  0  0  0  0  0  0  0  0  0
   -1.7582    1.3241   -0.4207 H   0  0  0  0  0  0  0  0  0  0  0  0
    1.0547    0.7839    0.1326 H   0  0  0  0  0  0  0  0  0  0  0  0
    0.9497   -1.3028   -1.4113 H   0  0  0  0  0  0  0  0  0  0  0  0
   -0.7904   -1.2401   -1.2978 H   0  0  0  0  0  0  0  0  0  0  0  0
    2.3078   -1.6738    0.7326 H   0  0  0  0  0  0  0  0  0  0  0  0
   -1.9791   -2.0734    0.5888 H   0  0  0  0  0  0  0  0  0  0  0  0
    2.3589   -2.9876    2.8209 H   0  0  0  0  0  0  0  0  0  0  0  0
   -1.9247   -3.3869    2.6769 H   0  0  0  0  0  0  0  0  0  0  0  0
   -0.6491   -4.2610    4.2901 H   0  0  0  0  0  0  0  0  0  0  0  0
    0.7794    2.5745   -1.6507 N   0  0  0  0  0  0  0  0  0  0  0  0
    0.9645    3.5072   -2.7390 C   0  0  2  0  0  0  0  0  0  0  0  0
    1.7877    2.8146   -3.8171 C   0  0  0  0  0  0  0  0  0  0  0  0
    2.5197    1.8539   -3.5885 O   0  0  0  0  0  0  0  0  0  0  0  0
    1.6490    4.7803   -2.2664 C   0  0  0  0  0  0  0  0  0  0  0  0
    0.9911    2.8860   -0.7073 H   0  0  0  0  0  0  0  0  0  0  0  0
   -0.0321    3.7374   -3.1312 H   0  0  0  0  0  0  0  0  0  0  0  0
    2.6490    4.5696   -1.8700 H   0  0  0  0  0  0  0  0  0  0  0  0
    1.7627    5.4974   -3.0860 H   0  0  0  0  0  0  0  0  0  0  0  0
    1.0705    5.2613   -1.4703 H   0  0  0  0  0  0  0  0  0  0  0  0
    1.6420    3.4225   -5.0562 N   0  0  0  0  0  0  0  0  0  0  0  0
    2.3304    2.9586   -6.2380 C   0  0  0  0  0  0  0  0  0  0  0  0
    0.9991    4.2024   -5.1576 H   0  0  0  0  0  0  0  0  0  0  0  0
    3.2796    3.5035   -6.3477 H   0  0  0  0  0  0  0  0  0  0  0  0
    2.5347    1.8818   -6.1442 H   0  0  0  0  0  0  0  0  0  0  0  0
    1.7011    3.1367   -7.1225 H   0  0  0  0  0  0  0  0  0  0  0  0
 23 25  2  0  0  0  0
 22 23  1  0  0  0  0
 24 26  1  0  0  0  0
 22 24  2  0  0  0  0
 25 27  1  0  0  0  0
 26 27  2  0  0  0  0
 21 22  1  0  0  0  0
 27 28  1  0  0  0  0
  1  3  1  0  0  0  0
  1  7  1  0  0  0  0
  1  2  2  0  0  0  0
 39 40  1  0  0  0  0
 40 48  1  0  0  0  0
 40 41  2  0  0  0  0
  8  9  1  0  0  0  0
  9 17  1  0  0  0  0
  9 10  2  0  0  0  0
 18 19  1  0  0  0  0
 19 38  1  0  0  0  0
 19 20  2  0  0  0  0
 39 42  1  0  0  0  0
  8 11  1  0  0  0  0
 48 49  1  0  0  0  0
 18 21  1  0  0  0  0
 38 39  1  0  0  0  0
  7  8  1  0  0  0  0
 17 18  1  0  0  0  0
 23 33  1  0  0  0  0
 24 34  1  0  0  0  0
 25 35  1  0  0  0  0
 26 36  1  0  0  0  0
  3  4  1  0  0  0  0
  3  5  1  0  0  0  0
  3  6  1  0  0  0  0
 42 45  1  0  0  0  0
 42 46  1  0  0  0  0
 42 47  1  0  0  0  0
 11 14  1  0  0  0  0
 11 15  1  0  0  0  0
 11 16  1  0  0  0  0
 49 51  1  0  0  0  0
 49 52  1  0  0  0  0
 49 53  1  0  0  0  0
 21 31  1  0  0  0  0
 21 32  1  0  0  0  0
 39 44  1  0  0  0  0
  8 13  1  0  0  0  0
 18 30  1  0  0  0  0
 48 50  1  0  0  0  0
  7 12  1  0  0  0  0
 38 43  1  0  0  0  0
 17 29  1  0  0  0  0
 28 37  1  0  0  0  0
M  END
$$$$

  -OEChem-05262214473D

 53 53  0     1  0  0  0  0  0999 V2000
   -1.9298    0.2574    3.9747 C   0  0  0  0  0  0  0  0  0  0  0  0
   -0.9825   -0.3573    3.4990 O   0  0  0  0  0  0  0  0  0  0  0  0
   -2.3617   -0.0250    5.3754 C   0  0  0  0  0  0  0  0  0  0  0  0
   -3.1214   -0.8213    5.4288 H   0  0  0  0  0  0  0  0  0  0  0  0
   -1.5305   -0.3726    6.0097 H   0  0  0  0  0  0  0  0  0  0  0  0
   -2.7997    0.8299    5.9150 H   0  0  0  0  0  0  0  0  0  0  0  0
   -2.6795    1.2298    3.3336 N   0  0  0  0  0  0  0  0  0  0  0  0
   -2.4327    1.6559    1.9812 C   0  0  2  0  0  0  0  0  0  0  0  0
   -1.0977    1.0705    1.5400 C   0  0  0  0  0  0  0  0  0  0  0  0
   -0.2256    0.7177    2.3313 O   0  0  0  0  0  0  0  0  0  0  0  0
   -2.4239    3.1726    1.8718 C   0  0  0  0  0  0  0  0  0  0  0  0
   -3.4446    1.6657    3.8454 H   0  0  0  0  0  0  0  0  0  0  0  0
   -3.2368    1.2374    1.3661 H   0  0  0  0  0  0  0  0  0  0  0  0
   -1.6248    3.6099    2.4815 H   0  0  0  0  0  0  0  0  0  0  0  0
   -2.2644    3.4949    0.8375 H   0  0  0  0  0  0  0  0  0  0  0  0
   -3.3741    3.5939    2.2175 H   0  0  0  0  0  0  0  0  0  0  0  0
   -0.9750    1.0274    0.1566 N   0  0  0  0  0  0  0  0  0  0  0  0
    0.2023    0.5266   -0.5070 C   0  0  2  0  0  0  0  0  0  0  0  0
    0.3270    1.2746   -1.8296 C   0  0  0  0  0  0  0  0  0  0  0  0
   -0.2206    0.9001   -2.8644 O   0  0  0  0  0  0  0  0  0  0  0  0
    0.1289   -0.9846   -0.7543 C   0  0  0  0  0  0  0  0  0  0  0  0
    0.1611   -1.7873    0.5233 C   0  0  0  0  0  0  0  0  0  0  0  0
    1.3780   -2.0464    1.1539 C   0  0  0  0  0  0  0  0  0  0  0  0
   -1.0262   -2.2706    1.0732 C   0  0  0  0  0  0  0  0  0  0  0  0
    1.4076   -2.7888    2.3344 C   0  0  0  0  0  0  0  0  0  0  0  0
   -0.9966   -3.0130    2.2538 C   0  0  0  0  0  0  0  0  0  0  0  0
    0.2204   -3.2721    2.8843 C   0  0  0  0  0  0  0  0  0  0  0  0
    0.2496   -3.9975    4.0356 O   0  0  0  0  0  0  0  0  0  0  0  0
   -1.7582    1.3241   -0.4207 H   0  0  0  0  0  0  0  0  0  0  0  0
    1.0547    0.7839    0.1326 H   0  0  0  0  0  0  0  0  0  0  0  0
    0.9497   -1.3028   -1.4113 H   0  0  0  0  0  0  0  0  0  0  0  0
   -0.7904   -1.2401   -1.2978 H   0  0  0  0  0  0  0  0  0  0  0  0
    2.3078   -1.6738    0.7326 H   0  0  0  0  0  0  0  0  0  0  0  0
   -1.9791   -2.0734    0.5888 H   0  0  0  0  0  0  0  0  0  0  0  0
    2.3589   -2.9876    2.8209 H   0  0  0  0  0  0  0  0  0  0  0  0
   -1.9247   -3.3869    2.6769 H   0  0  0  0  0  0  0  0  0  0  0  0
   -0.6491   -4.2610    4.2901 H   0  0  0  0  0  0  0  0  0  0  0  0
    1.0800    2.4335   -1.7020 N   0  0  0  0  0  0  0  0  0  0  0  0
    1.3340    3.3396   -2.7990 C   0  0  2  0  0  0  0  0  0  0  0  0
    1.8385    2.5197   -3.9791 C   0  0  0  0  0  0  0  0  0  0  0  0
    2.3572    1.4123   -3.8536 O   0  0  0  0  0  0  0  0  0  0  0  0
    2.3418    4.4102   -2.4104 C   0  0  0  0  0  0  0  0  0  0  0  0
    1.4724    2.6560   -0.7919 H   0  0  0  0  0  0  0  0  0  0  0  0
    0.3743    3.8003   -3.0573 H   0  0  0  0  0  0  0  0  0  0  0  0
    3.3097    3.9676   -2.1482 H   0  0  0  0  0  0  0  0  0  0  0  0
    2.5116    5.1126   -3.2331 H   0  0  0  0  0  0  0  0  0  0  0  0
    1.9907    4.9794   -1.5429 H   0  0  0  0  0  0  0  0  0  0  0  0
    1.6807    3.1886   -5.1848 N   0  0  0  0  0  0  0  0  0  0  0  0
    2.0939    2.6252   -6.4489 C   0  0  0  0  0  0  0  0  0  0  0  0
    1.2232    4.0954   -5.1970 H   0  0  0  0  0  0  0  0  0  0  0  0
    3.1204    2.9481   -6.6769 H   0  0  0  0  0  0  0  0  0  0  0  0
    2.0597    1.5273   -6.3895 H   0  0  0  0  0  0  0  0  0  0  0  0
    1.4160    2.9707   -7.2432 H   0  0  0  0  0  0  0  0  0  0  0  0
 23 25  2  0  0  0  0
 22 23  1  0  0  0  0
 24 26  1  0  0  0  0
 22 24  2  0  0  0  0
 25 27  1  0  0  0  0
 26 27  2  0  0  0  0
 21 22  1  0  0  0  0
 27 28  1  0  0  0  0
  1  3  1  0  0  0  0
  1  7  1  0  0  0  0
  1  2  2  0  0  0  0
 39 40  1  0  0  0  0
 40 48  1  0  0  0  0
 40 41  2  0  0  0  0
  8  9  1  0  0  0  0
  9 17  1  0  0  0  0
  9 10  2  0  0  0  0
 18 19  1  0  0  0  0
 19 38  1  0  0  0  0
 19 20  2  0  0  0  0
 39 42  1  0  0  0  0
  8 11  1  0  0  0  0
 48 49  1  0  0  0  0
 18 21  1  0  0  0  0
 38 39  1  0  0  0  0
  7  8  1  0  0  0  0
 17 18  1  0  0  0  0
 23 33  1  0  0  0  0
 24 34  1  0  0  0  0
 25 35  1  0  0  0  0
 26 36  1  0  0  0  0
  3  4  1  0  0  0  0
  3  5  1  0  0  0  0
  3  6  1  0  0  0  0
 42 45  1  0  0  0  0
 42 46  1  0  0  0  0
 42 47  1  0  0  0  0
 11 14  1  0  0  0  0
 11 15  1  0  0  0  0
 11 16  1  0  0  0  0
 49 51  1  0  0  0  0
 49 52  1  0  0  0  0
 49 53  1  0  0  0  0
 21 31  1  0  0  0  0
 21 32  1  0  0  0  0
 39 44  1  0  0  0  0
  8 13  1  0  0  0  0
 18 30  1  0  0  0  0
 48 50  1  0  0  0  0
  7 12  1  0  0  0  0
 38 43  1  0  0  0  0
 17 29  1  0  0  0  0
 28 37  1  0  0  0  0
M  END
$$$$

  -OEChem-05262214473D

 53 53  0     1  0  0  0  0  0999 V2000
   -1.9298    0.2574    3.9747 C   0  0  0  0  0  0  0  0  0  0  0  0
   -0.9825   -0.3573    3.4990 O   0  0  0  0  0  0  0  0  0  0  0  0
   -2.3617   -0.0250    5.3754 C   0  0  0  0  0  0  0  0  0  0  0  0
   -3.1214   -0.8213    5.4288 H   0  0  0  0  0  0  0  0  0  0  0  0
   -1.5305   -0.3726    6.0097 H   0  0  0  0  0  0  0  0  0  0  0  0
   -2.7997    0.8299    5.9150 H   0  0  0  0  0  0  0  0  0  0  0  0
   -2.6795    1.2298    3.3336 N   0  0  0  0  0  0  0  0  0  0  0  0
   -2.4327    1.6559    1.9812 C   0  0  2  0  0  0  0  0  0  0  0  0
   -1.0977    1.0705    1.5400 C   0  0  0  0  0  0  0  0  0  0  0  0
   -0.2256    0.7177    2.3313 O   0  0  0  0  0  0  0  0  0  0  0  0
   -2.4239    3.1726    1.8718 C   0  0  0  0  0  0  0  0  0  0  0  0
   -3.4446    1.6657    3.8454 H   0  0  0  0  0  0  0  0  0  0  0  0
   -3.2368    1.2374    1.3661 H   0  0  0  0  0  0  0  0  0  0  0  0
   -1.6248    3.6099    2.4815 H   0  0  0  0  0  0  0  0  0  0  0  0
   -2.2644    3.4949    0.8375 H   0  0  0  0  0  0  0  0  0  0  0  0
   -3.3741    3.5939    2.2175 H   0  0  0  0  0  0  0  0  0  0  0  0
   -0.9750    1.0274    0.1566 N   0  0  0  0  0  0  0  0  0  0  0  0
    0.2023    0.5266   -0.5070 C   0  0  2  0  0  0  0  0  0  0  0  0
    0.3270    1.2746   -1.8296 C   0  0  0  0  0  0  0  0  0  0  0  0
   -0.4156    1.0689   -2.7873 O   0  0  0  0  0  0  0  0  0  0  0  0
    0.1289   -0.9846   -0.7543 C   0  0  0  0  0  0  0  0  0  0  0  0
    0.1611   -1.7873    0.5233 C   0  0  0  0  0  0  0  0  0  0  0  0
    1.3780   -2.0464    1.1539 C   0  0  0  0  0  0  0  0  0  0  0  0
   -1.0262   -2.2706    1.0732 C   0  0  0  0  0  0  0  0  0  0  0  0
    1.4076   -2.7888    2.3344 C   0  0  0  0  0  0  0  0  0  0  0  0
   -0.9966   -3.0130    2.2538 C   0  0  0  0  0  0  0  0  0  0  0  0
    0.2204   -3.2721    2.8843 C   0  0  0  0  0  0  0  0  0  0  0  0
    0.2496   -3.9975    4.0356 O   0  0  0  0  0  0  0  0  0  0  0  0
   -1.7582    1.3241   -0.4207 H   0  0  0  0  0  0  0  0  0  0  0  0
    1.0547    0.7839    0.1326 H   0  0  0  0  0  0  0  0  0  0  0  0
    0.9497   -1.3028   -1.4113 H   0  0  0  0  0  0  0  0  0  0  0  0
   -0.7904   -1.2401   -1.2978 H   0  0  0  0  0  0  0  0  0  0  0  0
    2.3078   -1.6738    0.7326 H   0  0  0  0  0  0  0  0  0  0  0  0
   -1.9791   -2.0734    0.5888 H   0  0  0  0  0  0  0  0  0  0  0  0
    2.3589   -2.9876    2.8209 H   0  0  0  0  0  0  0  0  0  0  0  0
   -1.9247   -3.3869    2.6769 H   0  0  0  0  0  0  0  0  0  0  0  0
   -0.6491   -4.2610    4.2901 H   0  0  0  0  0  0  0  0  0  0  0  0
    1.3322    2.2309   -1.7928 N   0  0  0  0  0  0  0  0  0  0  0  0
    1.6456    3.0961   -2.9073 C   0  0  2  0  0  0  0  0  0  0  0  0
    1.8009    2.2269   -4.1482 C   0  0  0  0  0  0  0  0  0  0  0  0
    2.0675    1.0279   -4.0983 O   0  0  0  0  0  0  0  0  0  0  0  0
    2.9095    3.9002   -2.6453 C   0  0  0  0  0  0  0  0  0  0  0  0
    1.8750    2.3277   -0.9397 H   0  0  0  0  0  0  0  0  0  0  0  0
    0.7903    3.7682   -3.0362 H   0  0  0  0  0  0  0  0  0  0  0  0
    3.7774    3.2437   -2.5135 H   0  0  0  0  0  0  0  0  0  0  0  0
    3.1298    4.5759   -3.4783 H   0  0  0  0  0  0  0  0  0  0  0  0
    2.8070    4.5021   -1.7359 H   0  0  0  0  0  0  0  0  0  0  0  0
    1.6493    2.9567   -5.3189 N   0  0  0  0  0  0  0  0  0  0  0  0
    1.7638    2.3608   -6.6296 C   0  0  0  0  0  0  0  0  0  0  0  0
    1.4106    3.9426   -5.2658 H   0  0  0  0  0  0  0  0  0  0  0  0
    2.8001    2.4544   -6.9863 H   0  0  0  0  0  0  0  0  0  0  0  0
    1.4901    1.2968   -6.5736 H   0  0  0  0  0  0  0  0  0  0  0  0
    1.0879    2.8770   -7.3272 H   0  0  0  0  0  0  0  0  0  0  0  0
 23 25  2  0  0  0  0
 22 23  1  0  0  0  0
 24 26  1  0  0  0  0
 22 24  2  0  0  0  0
 25 27  1  0  0  0  0
 26 27  2  0  0  0  0
 21 22  1  0  0  0  0
 27 28  1  0  0  0  0
  1  3  1  0  0  0  0
  1  7  1  0  0  0  0
  1  2  2  0  0  0  0
 39 40  1  0  0  0  0
 40 48  1  0  0  0  0
 40 41  2  0  0  0  0
  8  9  1  0  0  0  0
  9 17  1  0  0  0  0
  9 10  2  0  0  0  0
 18 19  1  0  0  0  0
 19 38  1  0  0  0  0
 19 20  2  0  0  0  0
 39 42  1  0  0  0  0
  8 11  1  0  0  0  0
 48 49  1  0  0  0  0
 18 21  1  0  0  0  0
 38 39  1  0  0  0  0
  7  8  1  0  0  0  0
 17 18  1  0  0  0  0
 23 33  1  0  0  0  0
 24 34  1  0  0  0  0
 25 35  1  0  0  0  0
 26 36  1  0  0  0  0
  3  4  1  0  0  0  0
  3  5  1  0  0  0  0
  3  6  1  0  0  0  0
 42 45  1  0  0  0  0
 42 46  1  0  0  0  0
 42 47  1  0  0  0  0
 11 14  1  0  0  0  0
 11 15  1  0  0  0  0
 11 16  1  0  0  0  0
 49 51  1  0  0  0  0
 49 52  1  0  0  0  0
 49 53  1  0  0  0  0
 21 31  1  0  0  0  0
 21 32  1  0  0  0  0
 39 44  1  0  0  0  0
  8 13  1  0  0  0  0
 18 30  1  0  0  0  0
 48 50  1  0  0  0  0
  7 12  1  0  0  0  0
 38 43  1  0  0  0  0
 17 29  1  0  0  0  0
 28 37  1  0  0  0  0
M  END
$$$$

  -OEChem-05262214473D

 53 53  0     1  0  0  0  0  0999 V2000
   -1.9298    0.2574    3.9747 C   0  0  0  0  0  0  0  0  0  0  0  0
   -0.9825   -0.3573    3.4990 O   0  0  0  0  0  0  0  0  0  0  0  0
   -2.3617   -0.0250    5.3754 C   0  0  0  0  0  0  0  0  0  0  0  0
   -3.1214   -0.8213    5.4288 H   0  0  0  0  0  0  0  0  0  0  0  0
   -1.5305   -0.3726    6.0097 H   0  0  0  0  0  0  0  0  0  0  0  0
   -2.7997    0.8299    5.9150 H   0  0  0  0  0  0  0  0  0  0  0  0
   -2.6795    1.2298    3.3336 N   0  0  0  0  0  0  0  0  0  0  0  0
   -2.4327    1.6559    1.9812 C   0  0  2  0  0  0  0  0  0  0  0  0
   -1.0977    1.0705    1.5400 C   0  0  0  0  0  0  0  0  0  0  0  0
   -0.2256    0.7177    2.3313 O   0  0  0  0  0  0  0  0  0  0  0  0
   -2.4239    3.1726    1.8718 C   0  0  0  0  0  0  0  0  0  0  0  0
   -3.4446    1.6657    3.8454 H   0  0  0  0  0  0  0  0  0  0  0  0
   -3.2368    1.2374    1.3661 H   0  0  0  0  0  0  0  0  0  0  0  0
   -1.6248    3.6099    2.4815 H   0  0  0  0  0  0  0  0  0  0  0  0
   -2.2644    3.4949    0.8375 H   0  0  0  0  0  0  0  0  0  0  0  0
   -3.3741    3.5939    2.2175 H   0  0  0  0  0  0  0  0  0  0  0  0
   -0.9750    1.0274    0.1566 N   0  0  0  0  0  0  0  0  0  0  0  0
    0.2023    0.5266   -0.5070 C   0  0  2  0  0  0  0  0  0  0  0  0
    0.3270    1.2746   -1.8296 C   0  0  0  0  0  0  0  0  0  0  0  0
   -0.5562    1.2741   -2.6845 O   0  0  0  0  0  0  0  0  0  0  0  0
    0.1289   -0.9846   -0.7543 C   0  0  0  0  0  0  0  0  0  0  0  0
    0.1611   -1.7873    0.5233 C   0  0  0  0  0  0  0  0  0  0  0  0
    1.3780   -2.0464    1.1539 C   0  0  0  0  0  0  0  0  0  0  0  0
   -1.0262   -2.2706    1.0732 C   0  0  0  0  0  0  0  0  0  0  0  0
    1.4076   -2.7888    2.3344 C   0  0  0  0  0  0  0  0  0  0  0  0
   -0.9966   -3.0130    2.2538 C   0  0  0  0  0  0  0  0  0  0  0  0
    0.2204   -3.2721    2.8843 C   0  0  0  0  0  0  0  0  0  0  0  0
    0.2496   -3.9975    4.0356 O   0  0  0  0  0  0  0  0  0  0  0  0
   -1.7582    1.3241   -0.4207 H   0  0  0  0  0  0  0  0  0  0  0  0
    1.0547    0.7839    0.1326 H   0  0  0  0  0  0  0  0  0  0  0  0
    0.9497   -1.3028   -1.4113 H   0  0  0  0  0  0  0  0  0  0  0  0
   -0.7904   -1.2401   -1.2978 H   0  0  0  0  0  0  0  0  0  0  0  0
    2.3078   -1.6738    0.7326 H   0  0  0  0  0  0  0  0  0  0  0  0
   -1.9791   -2.0734    0.5888 H   0  0  0  0  0  0  0  0  0  0  0  0
    2.3589   -2.9876    2.8209 H   0  0  0  0  0  0  0  0  0  0  0  0
   -1.9247   -3.3869    2.6769 H   0  0  0  0  0  0  0  0  0  0  0  0
   -0.6491   -4.2610    4.2901 H   0  0  0  0  0  0  0  0  0  0  0  0
    1.5188    1.9806   -1.9168 N   0  0  0  0  0  0  0  0  0  0  0  0
    1.8782    2.7931   -3.0567 C   0  0  2  0  0  0  0  0  0  0  0  0
    1.6773    1.9561   -4.3131 C   0  0  0  0  0  0  0  0  0  0  0  0
    1.6703    0.7268   -4.3061 O   0  0  0  0  0  0  0  0  0  0  0  0
    3.3136    3.2850   -2.9551 C   0  0  0  0  0  0  0  0  0  0  0  0
    2.1713    1.9232   -1.1405 H   0  0  0  0  0  0  0  0  0  0  0  0
    1.1876    3.6434   -3.0694 H   0  0  0  0  0  0  0  0  0  0  0  0
    4.0202    2.4471   -2.9411 H   0  0  0  0  0  0  0  0  0  0  0  0
    3.5753    3.9238   -3.8051 H   0  0  0  0  0  0  0  0  0  0  0  0
    3.4638    3.8618   -2.0361 H   0  0  0  0  0  0  0  0  0  0  0  0
    1.5499    2.7426   -5.4494 N   0  0  0  0  0  0  0  0  0  0  0  0
    1.3626    2.1833   -6.7678 C   0  0  0  0  0  0  0  0  0  0  0  0
    1.5486    3.7543   -5.3592 H   0  0  0  0  0  0  0  0  0  0  0  0
    2.3405    2.0560   -7.2550 H   0  0  0  0  0  0  0  0  0  0  0  0
    0.8648    1.2059   -6.6839 H   0  0  0  0  0  0  0  0  0  0  0  0
    0.7393    2.8619   -7.3686 H   0  0  0  0  0  0  0  0  0  0  0  0
 23 25  2  0  0  0  0
 22 23  1  0  0  0  0
 24 26  1  0  0  0  0
 22 24  2  0  0  0  0
 25 27  1  0  0  0  0
 26 27  2  0  0  0  0
 21 22  1  0  0  0  0
 27 28  1  0  0  0  0
  1  3  1  0  0  0  0
  1  7  1  0  0  0  0
  1  2  2  0  0  0  0
 39 40  1  0  0  0  0
 40 48  1  0  0  0  0
 40 41  2  0  0  0  0
  8  9  1  0  0  0  0
  9 17  1  0  0  0  0
  9 10  2  0  0  0  0
 18 19  1  0  0  0  0
 19 38  1  0  0  0  0
 19 20  2  0  0  0  0
 39 42  1  0  0  0  0
  8 11  1  0  0  0  0
 48 49  1  0  0  0  0
 18 21  1  0  0  0  0
 38 39  1  0  0  0  0
  7  8  1  0  0  0  0
 17 18  1  0  0  0  0
 23 33  1  0  0  0  0
 24 34  1  0  0  0  0
 25 35  1  0  0  0  0
 26 36  1  0  0  0  0
  3  4  1  0  0  0  0
  3  5  1  0  0  0  0
  3  6  1  0  0  0  0
 42 45  1  0  0  0  0
 42 46  1  0  0  0  0
 42 47  1  0  0  0  0
 11 14  1  0  0  0  0
 11 15  1  0  0  0  0
 11 16  1  0  0  0  0
 49 51  1  0  0  0  0
 49 52  1  0  0  0  0
 49 53  1  0  0  0  0
 21 31  1  0  0  0  0
 21 32  1  0  0  0  0
 39 44  1  0  0  0  0
  8 13  1  0  0  0  0
 18 30  1  0  0  0  0
 48 50  1  0  0  0  0
  7 12  1  0  0  0  0
 38 43  1  0  0  0  0
 17 29  1  0  0  0  0
 28 37  1  0  0  0  0
M  END
$$$$

  -OEChem-05262214473D

 53 53  0     1  0  0  0  0  0999 V2000
   -1.9298    0.2574    3.9747 C   0  0  0  0  0  0  0  0  0  0  0  0
   -0.9825   -0.3573    3.4990 O   0  0  0  0  0  0  0  0  0  0  0  0
   -2.3617   -0.0250    5.3754 C   0  0  0  0  0  0  0  0  0  0  0  0
   -3.1214   -0.8213    5.4288 H   0  0  0  0  0  0  0  0  0  0  0  0
   -1.5305   -0.3726    6.0097 H   0  0  0  0  0  0  0  0  0  0  0  0
   -2.7997    0.8299    5.9150 H   0  0  0  0  0  0  0  0  0  0  0  0
   -2.6795    1.2298    3.3336 N   0  0  0  0  0  0  0  0  0  0  0  0
   -2.4327    1.6559    1.9812 C   0  0  2  0  0  0  0  0  0  0  0  0
   -1.0977    1.0705    1.5400 C   0  0  0  0  0  0  0  0  0  0  0  0
   -0.2256    0.7177    2.3313 O   0  0  0  0  0  0  0  0  0  0  0  0
   -2.4239    3.1726    1.8718 C   0  0  0  0  0  0  0  0  0  0  0  0
   -3.4446    1.6657    3.8454 H   0  0  0  0  0  0  0  0  0  0  0  0
   -3.2368    1.2374    1.3661 H   0  0  0  0  0  0  0  0  0  0  0  0
   -1.6248    3.6099    2.4815 H   0  0  0  0  0  0  0  0  0  0  0  0
   -2.2644    3.4949    0.8375 H   0  0  0  0  0  0  0  0  0  0  0  0
   -3.3741    3.5939    2.2175 H   0  0  0  0  0  0  0  0  0  0  0  0
   -0.9750    1.0274    0.1566 N   0  0  0  0  0  0  0  0  0  0  0  0
    0.2023    0.5266   -0.5070 C   0  0  2  0  0  0  0  0  0  0  0  0
    0.3270    1.2746   -1.8296 C   0  0  0  0  0  0  0  0  0  0  0  0
   -0.6329    1.5017   -2.5630 O   0  0  0  0  0  0  0  0  0  0  0  0
    0.1289   -0.9846   -0.7543 C   0  0  0  0  0  0  0  0  0  0  0  0
    0.1611   -1.7873    0.5233 C   0  0  0  0  0  0  0  0  0  0  0  0
    1.3780   -2.0464    1.1539 C   0  0  0  0  0  0  0  0  0  0  0  0
   -1.0262   -2.2706    1.0732 C   0  0  0  0  0  0  0  0  0  0  0  0
    1.4076   -2.7888    2.3344 C   0  0  0  0  0  0  0  0  0  0  0  0
   -0.9966   -3.0130    2.2538 C   0  0  0  0  0  0  0  0  0  0  0  0
    0.2204   -3.2721    2.8843 C   0  0  0  0  0  0  0  0  0  0  0  0
    0.2496   -3.9975    4.0356 O   0  0  0  0  0  0  0  0  0  0  0  0
   -1.7582    1.3241   -0.4207 H   0  0  0  0  0  0  0  0  0  0  0  0
    1.0547    0.7839    0.1326 H   0  0  0  0  0  0  0  0  0  0  0  0
    0.9497   -1.3028   -1.4113 H   0  0  0  0  0  0  0  0  0  0  0  0
   -0.7904   -1.2401   -1.2978 H   0  0  0  0  0  0  0  0  0  0  0  0
    2.3078   -1.6738    0.7326 H   0  0  0  0  0  0  0  0  0  0  0  0
   -1.9791   -2.0734    0.5888 H   0  0  0  0  0  0  0  0  0  0  0  0
    2.3589   -2.9876    2.8209 H   0  0  0  0  0  0  0  0  0  0  0  0
   -1.9247   -3.3869    2.6769 H   0  0  0  0  0  0  0  0  0  0  0  0
   -0.6491   -4.2610    4.2901 H   0  0  0  0  0  0  0  0  0  0  0  0
    1.6271    1.6994   -2.0656 N   0  0  0  0  0  0  0  0  0  0  0  0
    2.0159    2.4515   -3.2370 C   0  0  2  0  0  0  0  0  0  0  0  0
    1.4762    1.7257   -4.4623 C   0  0  0  0  0  0  0  0  0  0  0  0
    1.1926    0.5296   -4.4627 O   0  0  0  0  0  0  0  0  0  0  0  0
    3.5265    2.6066   -3.3187 C   0  0  0  0  0  0  0  0  0  0  0  0
    2.3412    1.4703   -1.3806 H   0  0  0  0  0  0  0  0  0  0  0  0
    1.5391    3.4343   -3.1545 H   0  0  0  0  0  0  0  0  0  0  0  0
    4.0216    1.6323   -3.4018 H   0  0  0  0  0  0  0  0  0  0  0  0
    3.8177    3.2008   -4.1911 H   0  0  0  0  0  0  0  0  0  0  0  0
    3.9164    3.1022   -2.4230 H   0  0  0  0  0  0  0  0  0  0  0  0
    1.3892    2.5609   -5.5673 N   0  0  0  0  0  0  0  0  0  0  0  0
    0.9177    2.1049   -6.8541 C   0  0  0  0  0  0  0  0  0  0  0  0
    1.6277    3.5435   -5.4710 H   0  0  0  0  0  0  0  0  0  0  0  0
    1.7731    1.7800   -7.4646 H   0  0  0  0  0  0  0  0  0  0  0  0
    0.2264    1.2609   -6.7131 H   0  0  0  0  0  0  0  0  0  0  0  0
    0.3939    2.9264   -7.3647 H   0  0  0  0  0  0  0  0  0  0  0  0
 23 25  2  0  0  0  0
 22 23  1  0  0  0  0
 24 26  1  0  0  0  0
 22 24  2  0  0  0  0
 25 27  1  0  0  0  0
 26 27  2  0  0  0  0
 21 22  1  0  0  0  0
 27 28  1  0  0  0  0
  1  3  1  0  0  0  0
  1  7  1  0  0  0  0
  1  2  2  0  0  0  0
 39 40  1  0  0  0  0
 40 48  1  0  0  0  0
 40 41  2  0  0  0  0
  8  9  1  0  0  0  0
  9 17  1  0  0  0  0
  9 10  2  0  0  0  0
 18 19  1  0  0  0  0
 19 38  1  0  0  0  0
 19 20  2  0  0  0  0
 39 42  1  0  0  0  0
  8 11  1  0  0  0  0
 48 49  1  0  0  0  0
 18 21  1  0  0  0  0
 38 39  1  0  0  0  0
  7  8  1  0  0  0  0
 17 18  1  0  0  0  0
 23 33  1  0  0  0  0
 24 34  1  0  0  0  0
 25 35  1  0  0  0  0
 26 36  1  0  0  0  0
  3  4  1  0  0  0  0
  3  5  1  0  0  0  0
  3  6  1  0  0  0  0
 42 45  1  0  0  0  0
 42 46  1  0  0  0  0
 42 47  1  0  0  0  0
 11 14  1  0  0  0  0
 11 15  1  0  0  0  0
 11 16  1  0  0  0  0
 49 51  1  0  0  0  0
 49 52  1  0  0  0  0
 49 53  1  0  0  0  0
 21 31  1  0  0  0  0
 21 32  1  0  0  0  0
 39 44  1  0  0  0  0
  8 13  1  0  0  0  0
 18 30  1  0  0  0  0
 48 50  1  0  0  0  0
  7 12  1  0  0  0  0
 38 43  1  0  0  0  0
 17 29  1  0  0  0  0
 28 37  1  0  0  0  0
M  END
$$$$

  -OEChem-05262214473D

 53 53  0     1  0  0  0  0  0999 V2000
   -1.9298    0.2574    3.9747 C   0  0  0  0  0  0  0  0  0  0  0  0
   -0.9825   -0.3573    3.4990 O   0  0  0  0  0  0  0  0  0  0  0  0
   -2.3617   -0.0250    5.3754 C   0  0  0  0  0  0  0  0  0  0  0  0
   -3.1214   -0.8213    5.4288 H   0  0  0  0  0  0  0  0  0  0  0  0
   -1.5305   -0.3726    6.0097 H   0  0  0  0  0  0  0  0  0  0  0  0
   -2.7997    0.8299    5.9150 H   0  0  0  0  0  0  0  0  0  0  0  0
   -2.6795    1.2298    3.3336 N   0  0  0  0  0  0  0  0  0  0  0  0
   -2.4327    1.6559    1.9812 C   0  0  2  0  0  0  0  0  0  0  0  0
   -1.0977    1.0705    1.5400 C   0  0  0  0  0  0  0  0  0  0  0  0
   -0.2256    0.7177    2.3313 O   0  0  0  0  0  0  0  0  0  0  0  0
   -2.4239    3.1726    1.8718 C   0  0  0  0  0  0  0  0  0  0  0  0
   -3.4446    1.6657    3.8454 H   0  0  0  0  0  0  0  0  0  0  0  0
   -3.2368    1.2374    1.3661 H   0  0  0  0  0  0  0  0  0  0  0  0
   -1.6248    3.6099    2.4815 H   0  0  0  0  0  0  0  0  0  0  0  0
   -2.2644    3.4949    0.8375 H   0  0  0  0  0  0  0  0  0  0  0  0
   -3.3741    3.5939    2.2175 H   0  0  0  0  0  0  0  0  0  0  0  0
   -0.9750    1.0274    0.1566 N   0  0  0  0  0  0  0  0  0  0  0  0
    0.2023    0.5266   -0.5070 C   0  0  2  0  0  0  0  0  0  0  0  0
    0.3270    1.2746   -1.8296 C   0  0  0  0  0  0  0  0  0  0  0  0
   -0.6405    1.7362   -2.4311 O   0  0  0  0  0  0  0  0  0  0  0  0
    0.1289   -0.9846   -0.7543 C   0  0  0  0  0  0  0  0  0  0  0  0
    0.1611   -1.7873    0.5233 C   0  0  0  0  0  0  0  0  0  0  0  0
    1.3780   -2.0464    1.1539 C   0  0  0  0  0  0  0  0  0  0  0  0
   -1.0262   -2.2706    1.0732 C   0  0  0  0  0  0  0  0  0  0  0  0
    1.4076   -2.7888    2.3344 C   0  0  0  0  0  0  0  0  0  0  0  0
   -0.9966   -3.0130    2.2538 C   0  0  0  0  0  0  0  0  0  0  0  0
    0.2204   -3.2721    2.8843 C   0  0  0  0  0  0  0  0  0  0  0  0
    0.2496   -3.9975    4.0356 O   0  0  0  0  0  0  0  0  0  0  0  0
   -1.7582    1.3241   -0.4207 H   0  0  0  0  0  0  0  0  0  0  0  0
    1.0547    0.7839    0.1326 H   0  0  0  0  0  0  0  0  0  0  0  0
    0.9497   -1.3028   -1.4113 H   0  0  0  0  0  0  0  0  0  0  0  0
   -0.7904   -1.2401   -1.2978 H   0  0  0  0  0  0  0  0  0  0  0  0
    2.3078   -1.6738    0.7326 H   0  0  0  0  0  0  0  0  0  0  0  0
   -1.9791   -2.0734    0.5888 H   0  0  0  0  0  0  0  0  0  0  0  0
    2.3589   -2.9876    2.8209 H   0  0  0  0  0  0  0  0  0  0  0  0
   -1.9247   -3.3869    2.6769 H   0  0  0  0  0  0  0  0  0  0  0  0
   -0.6491   -4.2610    4.2901 H   0  0  0  0  0  0  0  0  0  0  0  0
    1.6497    1.4067   -2.2290 N   0  0  0  0  0  0  0  0  0  0  0  0
    2.0493    2.0943   -3.4358 C   0  0  2  0  0  0  0  0  0  0  0  0
    1.2112    1.5515   -4.5858 C   0  0  0  0  0  0  0  0  0  0  0  0
    0.6670    0.4497   -4.5575 O   0  0  0  0  0  0  0  0  0  0  0  0
    3.5336    1.9113   -3.7112 C   0  0  0  0  0  0  0  0  0  0  0  0
    2.3732    0.9997   -1.6437 H   0  0  0  0  0  0  0  0  0  0  0  0
    1.8209    3.1552   -3.2857 H   0  0  0  0  0  0  0  0  0  0  0  0
    3.7815    0.8546   -3.8643 H   0  0  0  0  0  0  0  0  0  0  0  0
    3.8405    2.4563   -4.6100 H   0  0  0  0  0  0  0  0  0  0  0  0
    4.1338    2.2751   -2.8703 H   0  0  0  0  0  0  0  0  0  0  0  0
    1.1782    2.4239   -5.6647 N   0  0  0  0  0  0  0  0  0  0  0  0
    0.4593    2.1308   -6.8826 C   0  0  0  0  0  0  0  0  0  0  0  0
    1.6427    3.3245   -5.5935 H   0  0  0  0  0  0  0  0  0  0  0  0
    1.1363    1.6453   -7.6008 H   0  0  0  0  0  0  0  0  0  0  0  0
   -0.3816    1.4579   -6.6590 H   0  0  0  0  0  0  0  0  0  0  0  0
    0.0753    3.0662   -7.3157 H   0  0  0  0  0  0  0  0  0  0  0  0
 23 25  2  0  0  0  0
 22 23  1  0  0  0  0
 24 26  1  0  0  0  0
 22 24  2  0  0  0  0
 25 27  1  0  0  0  0
 26 27  2  0  0  0  0
 21 22  1  0  0  0  0
 27 28  1  0  0  0  0
  1  3  1  0  0  0  0
  1  7  1  0  0  0  0
  1  2  2  0  0  0  0
 39 40  1  0  0  0  0
 40 48  1  0  0  0  0
 40 41  2  0  0  0  0
  8  9  1  0  0  0  0
  9 17  1  0  0  0  0
  9 10  2  0  0  0  0
 18 19  1  0  0  0  0
 19 38  1  0  0  0  0
 19 20  2  0  0  0  0
 39 42  1  0  0  0  0
  8 11  1  0  0  0  0
 48 49  1  0  0  0  0
 18 21  1  0  0  0  0
 38 39  1  0  0  0  0
  7  8  1  0  0  0  0
 17 18  1  0  0  0  0
 23 33  1  0  0  0  0
 24 34  1  0  0  0  0
 25 35  1  0  0  0  0
 26 36  1  0  0  0  0
  3  4  1  0  0  0  0
  3  5  1  0  0  0  0
  3  6  1  0  0  0  0
 42 45  1  0  0  0  0
 42 46  1  0  0  0  0
 42 47  1  0  0  0  0
 11 14  1  0  0  0  0
 11 15  1  0  0  0  0
 11 16  1  0  0  0  0
 49 51  1  0  0  0  0
 49 52  1  0  0  0  0
 49 53  1  0  0  0  0
 21 31  1  0  0  0  0
 21 32  1  0  0  0  0
 39 44  1  0  0  0  0
  8 13  1  0  0  0  0
 18 30  1  0  0  0  0
 48 50  1  0  0  0  0
  7 12  1  0  0  0  0
 38 43  1  0  0  0  0
 17 29  1  0  0  0  0
 28 37  1  0  0  0  0
M  END
$$$$

  -OEChem-05262214473D

 53 53  0     1  0  0  0  0  0999 V2000
   -1.9298    0.2574    3.9747 C   0  0  0  0  0  0  0  0  0  0  0  0
   -0.9825   -0.3573    3.4990 O   0  0  0  0  0  0  0  0  0  0  0  0
   -2.3617   -0.0250    5.3754 C   0  0  0  0  0  0  0  0  0  0  0  0
   -3.1214   -0.8213    5.4288 H   0  0  0  0  0  0  0  0  0  0  0  0
   -1.5305   -0.3726    6.0097 H   0  0  0  0  0  0  0  0  0  0  0  0
   -2.7997    0.8299    5.9150 H   0  0  0  0  0  0  0  0  0  0  0  0
   -2.6795    1.2298    3.3336 N   0  0  0  0  0  0  0  0  0  0  0  0
   -2.4327    1.6559    1.9812 C   0  0  2  0  0  0  0  0  0  0  0  0
   -1.0977    1.0705    1.5400 C   0  0  0  0  0  0  0  0  0  0  0  0
   -0.2256    0.7177    2.3313 O   0  0  0  0  0  0  0  0  0  0  0  0
   -2.4239    3.1726    1.8718 C   0  0  0  0  0  0  0  0  0  0  0  0
   -3.4446    1.6657    3.8454 H   0  0  0  0  0  0  0  0  0  0  0  0
   -3.2368    1.2374    1.3661 H   0  0  0  0  0  0  0  0  0  0  0  0
   -1.6248    3.6099    2.4815 H   0  0  0  0  0  0  0  0  0  0  0  0
   -2.2644    3.4949    0.8375 H   0  0  0  0  0  0  0  0  0  0  0  0
   -3.3741    3.5939    2.2175 H   0  0  0  0  0  0  0  0  0  0  0  0
   -0.9750    1.0274    0.1566 N   0  0  0  0  0  0  0  0  0  0  0  0
    0.2023    0.5266   -0.5070 C   0  0  2  0  0  0  0  0  0  0  0  0
    0.3270    1.2746   -1.8296 C   0  0  0  0  0  0  0  0  0  0  0  0
   -0.5784    1.9616   -2.2977 O   0  0  0  0  0  0  0  0  0  0  0  0
    0.1289   -0.9846   -0.7543 C   0  0  0  0  0  0  0  0  0  0  0  0
    0.1611   -1.7873    0.5233 C   0  0  0  0  0  0  0  0  0  0  0  0
    1.3780   -2.0464    1.1539 C   0  0  0  0  0  0  0  0  0  0  0  0
   -1.0262   -2.2706    1.0732 C   0  0  0  0  0  0  0  0  0  0  0  0
    1.4076   -2.7888    2.3344 C   0  0  0  0  0  0  0  0  0  0  0  0
   -0.9966   -3.0130    2.2538 C   0  0  0  0  0  0  0  0  0  0  0  0
    0.2204   -3.2721    2.8843 C   0  0  0  0  0  0  0  0  0  0  0  0
    0.2496   -3.9975    4.0356 O   0  0  0  0  0  0  0  0  0  0  0  0
   -1.7582    1.3241   -0.4207 H   0  0  0  0  0  0  0  0  0  0  0  0
    1.0547    0.7839    0.1326 H   0  0  0  0  0  0  0  0  0  0  0  0
    0.9497   -1.3028   -1.4113 H   0  0  0  0  0  0  0  0  0  0  0  0
   -0.7904   -1.2401   -1.2978 H   0  0  0  0  0  0  0  0  0  0  0  0
    2.3078   -1.6738    0.7326 H   0  0  0  0  0  0  0  0  0  0  0  0
   -1.9791   -2.0734    0.5888 H   0  0  0  0  0  0  0  0  0  0  0  0
    2.3589   -2.9876    2.8209 H   0  0  0  0  0  0  0  0  0  0  0  0
   -1.9247   -3.3869    2.6769 H   0  0  0  0  0  0  0  0  0  0  0  0
   -0.6491   -4.2610    4.2901 H   0  0  0  0  0  0  0  0  0  0  0  0
    1.5850    1.1224   -2.3959 N   0  0  0  0  0  0  0  0  0  0  0  0
    1.9761    1.7461   -3.6397 C   0  0  2  0  0  0  0  0  0  0  0  0
    0.9005    1.4454   -4.6752 C   0  0  0  0  0  0  0  0  0  0  0  0
    0.1293    0.4925   -4.5840 O   0  0  0  0  0  0  0  0  0  0  0  0
    3.3345    1.2464   -4.1061 C   0  0  0  0  0  0  0  0  0  0  0  0
    2.2650    0.5435   -1.9119 H   0  0  0  0  0  0  0  0  0  0  0  0
    2.0138    2.8251   -3.4542 H   0  0  0  0  0  0  0  0  0  0  0  0
    3.3163    0.1672   -4.2969 H   0  0  0  0  0  0  0  0  0  0  0  0
    3.6422    1.7408   -5.0334 H   0  0  0  0  0  0  0  0  0  0  0  0
    4.1013    1.4368   -3.3474 H   0  0  0  0  0  0  0  0  0  0  0  0
    0.9313    2.3410   -5.7349 N   0  0  0  0  0  0  0  0  0  0  0  0
    0.0188    2.2595   -6.8514 C   0  0  0  0  0  0  0  0  0  0  0  0
    1.5923    3.1121   -5.7183 H   0  0  0  0  0  0  0  0  0  0  0  0
    0.4738    1.6610   -7.6544 H   0  0  0  0  0  0  0  0  0  0  0  0
   -0.9178    1.7836   -6.5253 H   0  0  0  0  0  0  0  0  0  0  0  0
   -0.1949    3.2718   -7.2249 H   0  0  0  0  0  0  0  0  0  0  0  0
 23 25  2  0  0  0  0
 22 23  1  0  0  0  0
 24 26  1  0  0  0  0
 22 24  2  0  0  0  0
 25 27  1  0  0  0  0
 26 27  2  0  0  0  0
 21 22  1  0  0  0  0
 27 28  1  0  0  0  0
  1  3  1  0  0  0  0
  1  7  1  0  0  0  0
  1  2  2  0  0  0  0
 39 40  1  0  0  0  0
 40 48  1  0  0  0  0
 40 41  2  0  0  0  0
  8  9  1  0  0  0  0
  9 17  1  0  0  0  0
  9 10  2  0  0  0  0
 18 19  1  0  0  0  0
 19 38  1  0  0  0  0
 19 20  2  0  0  0  0
 39 42  1  0  0  0  0
  8 11  1  0  0  0  0
 48 49  1  0  0  0  0
 18 21  1  0  0  0  0
 38 39  1  0  0  0  0
  7  8  1  0  0  0  0
 17 18  1  0  0  0  0
 23 33  1  0  0  0  0
 24 34  1  0  0  0  0
 25 35  1  0  0  0  0
 26 36  1  0  0  0  0
  3  4  1  0  0  0  0
  3  5  1  0  0  0  0
  3  6  1  0  0  0  0
 42 45  1  0  0  0  0
 42 46  1  0  0  0  0
 42 47  1  0  0  0  0
 11 14  1  0  0  0  0
 11 15  1  0  0  0  0
 11 16  1  0  0  0  0
 49 51  1  0  0  0  0
 49 52  1  0  0  0  0
 49 53  1  0  0  0  0
 21 31  1  0  0  0  0
 21 32  1  0  0  0  0
 39 44  1  0  0  0  0
  8 13  1  0  0  0  0
 18 30  1  0  0  0  0
 48 50  1  0  0  0  0
  7 12  1  0  0  0  0
 38 43  1  0  0  0  0
 17 29  1  0  0  0  0
 28 37  1  0  0  0  0
M  END
$$$$

  -OEChem-05262214473D

 53 53  0     1  0  0  0  0  0999 V2000
   -1.9298    0.2574    3.9747 C   0  0  0  0  0  0  0  0  0  0  0  0
   -0.9825   -0.3573    3.4990 O   0  0  0  0  0  0  0  0  0  0  0  0
   -2.3617   -0.0250    5.3754 C   0  0  0  0  0  0  0  0  0  0  0  0
   -3.1214   -0.8213    5.4288 H   0  0  0  0  0  0  0  0  0  0  0  0
   -1.5305   -0.3726    6.0097 H   0  0  0  0  0  0  0  0  0  0  0  0
   -2.7997    0.8299    5.9150 H   0  0  0  0  0  0  0  0  0  0  0  0
   -2.6795    1.2298    3.3336 N   0  0  0  0  0  0  0  0  0  0  0  0
   -2.4327    1.6559    1.9812 C   0  0  2  0  0  0  0  0  0  0  0  0
   -1.0977    1.0705    1.5400 C   0  0  0  0  0  0  0  0  0  0  0  0
   -0.2256    0.7177    2.3313 O   0  0  0  0  0  0  0  0  0  0  0  0
   -2.4239    3.1726    1.8718 C   0  0  0  0  0  0  0  0  0  0  0  0
   -3.4446    1.6657    3.8454 H   0  0  0  0  0  0  0  0  0  0  0  0
   -3.2368    1.2374    1.3661 H   0  0  0  0  0  0  0  0  0  0  0  0
   -1.6248    3.6099    2.4815 H   0  0  0  0  0  0  0  0  0  0  0  0
   -2.2644    3.4949    0.8375 H   0  0  0  0  0  0  0  0  0  0  0  0
   -3.3741    3.5939    2.2175 H   0  0  0  0  0  0  0  0  0  0  0  0
   -0.9750    1.0274    0.1566 N   0  0  0  0  0  0  0  0  0  0  0  0
    0.2023    0.5266   -0.5070 C   0  0  2  0  0  0  0  0  0  0  0  0
    0.5434    1.5085   -1.6222 C   0  0  0  0  0  0  0  0  0  0  0  0
   -0.0932    2.5407   -1.8229 O   0  0  0  0  0  0  0  0  0  0  0  0
   -0.0104   -0.8789   -1.0811 C   0  0  0  0  0  0  0  0  0  0  0  0
   -0.1977   -1.9248   -0.0093 C   0  0  0  0  0  0  0  0  0  0  0  0
    0.9123   -2.4629    0.6420 C   0  0  0  0  0  0  0  0  0  0  0  0
   -1.4810   -2.3539    0.3295 C   0  0  0  0  0  0  0  0  0  0  0  0
    0.7390   -3.4300    1.6321 C   0  0  0  0  0  0  0  0  0  0  0  0
   -1.6543   -3.3211    1.3196 C   0  0  0  0  0  0  0  0  0  0  0  0
   -0.5443   -3.8591    1.9709 C   0  0  0  0  0  0  0  0  0  0  0  0
   -0.7131   -4.8037    2.9361 O   0  0  0  0  0  0  0  0  0  0  0  0
   -1.7582    1.3241   -0.4207 H   0  0  0  0  0  0  0  0  0  0  0  0
    1.0075    0.5346    0.2369 H   0  0  0  0  0  0  0  0  0  0  0  0
    0.8338   -1.1581   -1.7261 H   0  0  0  0  0  0  0  0  0  0  0  0
   -0.8914   -0.8964   -1.7362 H   0  0  0  0  0  0  0  0  0  0  0  0
    1.9156   -2.1344    0.3845 H   0  0  0  0  0  0  0  0  0  0  0  0
   -2.3517   -1.9401   -0.1727 H   0  0  0  0  0  0  0  0  0  0  0  0
    1.6077   -3.8456    2.1357 H   0  0  0  0  0  0  0  0  0  0  0  0
   -2.6563   -3.6513    1.5787 H   0  0  0  0  0  0  0  0  0  0  0  0
   -1.6566   -4.9959    3.0574 H   0  0  0  0  0  0  0  0  0  0  0  0
    1.6710    1.1183   -2.3312 N   0  0  0  0  0  0  0  0  0  0  0  0
    2.2240    1.8827   -3.4260 C   0  0  2  0  0  0  0  0  0  0  0  0
    1.0916    2.2097   -4.3905 C   0  0  0  0  0  0  0  0  0  0  0  0
    0.0513    1.5575   -4.4494 O   0  0  0  0  0  0  0  0  0  0  0  0
    3.3338    1.1176   -4.1301 C   0  0  0  0  0  0  0  0  0  0  0  0
    2.1308    0.2518   -2.0672 H   0  0  0  0  0  0  0  0  0  0  0  0
    2.6182    2.8103   -2.9967 H   0  0  0  0  0  0  0  0  0  0  0  0
    2.9579    0.1851   -4.5666 H   0  0  0  0  0  0  0  0  0  0  0  0
    3.7710    1.7095   -4.9410 H   0  0  0  0  0  0  0  0  0  0  0  0
    4.1336    0.8574   -3.4284 H   0  0  0  0  0  0  0  0  0  0  0  0
    1.3973    3.2892   -5.2074 N   0  0  0  0  0  0  0  0  0  0  0  0
    0.4896    3.7860   -6.2151 C   0  0  0  0  0  0  0  0  0  0  0  0
    2.2755    3.7823   -5.0761 H   0  0  0  0  0  0  0  0  0  0  0  0
    0.7080    3.3004   -7.1776 H   0  0  0  0  0  0  0  0  0  0  0  0
   -0.5457    3.5621   -5.9182 H   0  0  0  0  0  0  0  0  0  0  0  0
    0.6148    4.8741   -6.3167 H   0  0  0  0  0  0  0  0  0  0  0  0
 23 25  2  0  0  0  0
 22 23  1  0  0  0  0
 24 26  1  0  0  0  0
 22 24  2  0  0  0  0
 25 27  1  0  0  0  0
 26 27  2  0  0  0  0
 21 22  1  0  0  0  0
 27 28  1  0  0  0  0
  1  3  1  0  0  0  0
  1  7  1  0  0  0  0
  1  2  2  0  0  0  0
 39 40  1  0  0  0  0
 40 48  1  0  0  0  0
 40 41  2  0  0  0  0
  8  9  1  0  0  0  0
  9 17  1  0  0  0  0
  9 10  2  0  0  0  0
 18 19  1  0  0  0  0
 19 38  1  0  0  0  0
 19 20  2  0  0  0  0
 39 42  1  0  0  0  0
  8 11  1  0  0  0  0
 48 49  1  0  0  0  0
 18 21  1  0  0  0  0
 38 39  1  0  0  0  0
  7  8  1  0  0  0  0
 17 18  1  0  0  0  0
 23 33  1  0  0  0  0
 24 34  1  0  0  0  0
 25 35  1  0  0  0  0
 26 36  1  0  0  0  0
  3  4  1  0  0  0  0
  3  5  1  0  0  0  0
  3  6  1  0  0  0  0
 42 45  1  0  0  0  0
 42 46  1  0  0  0  0
 42 47  1  0  0  0  0
 11 14  1  0  0  0  0
 11 15  1  0  0  0  0
 11 16  1  0  0  0  0
 49 51  1  0  0  0  0
 49 52  1  0  0  0  0
 49 53  1  0  0  0  0
 21 31  1  0  0  0  0
 21 32  1  0  0  0  0
 39 44  1  0  0  0  0
  8 13  1  0  0  0  0
 18 30  1  0  0  0  0
 48 50  1  0  0  0  0
  7 12  1  0  0  0  0
 38 43  1  0  0  0  0
 17 29  1  0  0  0  0
 28 37  1  0  0  0  0
M  END
$$$$

  -OEChem-05262214473D

 53 53  0     1  0  0  0  0  0999 V2000
   -1.9298    0.2574    3.9747 C   0  0  0  0  0  0  0  0  0  0  0  0
   -0.9825   -0.3573    3.4990 O   0  0  0  0  0  0  0  0  0  0  0  0
   -2.3617   -0.0250    5.3754 C   0  0  0  0  0  0  0  0  0  0  0  0
   -3.1214   -0.8213    5.4288 H   0  0  0  0  0  0  0  0  0  0  0  0
   -1.5305   -0.3726    6.0097 H   0  0  0  0  0  0  0  0  0  0  0  0
   -2.7997    0.8299    5.9150 H   0  0  0  0  0  0  0  0  0  0  0  0
   -2.6795    1.2298    3.3336 N   0  0  0  0  0  0  0  0  0  0  0  0
   -2.4327    1.6559    1.9812 C   0  0  2  0  0  0  0  0  0  0  0  0
   -1.0977    1.0705    1.5400 C   0  0  0  0  0  0  0  0  0  0  0  0
   -0.2256    0.7177    2.3313 O   0  0  0  0  0  0  0  0  0  0  0  0
   -2.4239    3.1726    1.8718 C   0  0  0  0  0  0  0  0  0  0  0  0
   -3.4446    1.6657    3.8454 H   0  0  0  0  0  0  0  0  0  0  0  0
   -3.2368    1.2374    1.3661 H   0  0  0  0  0  0  0  0  0  0  0  0
   -1.6248    3.6099    2.4815 H   0  0  0  0  0  0  0  0  0  0  0  0
   -2.2644    3.4949    0.8375 H   0  0  0  0  0  0  0  0  0  0  0  0
   -3.3741    3.5939    2.2175 H   0  0  0  0  0  0  0  0  0  0  0  0
   -0.9750    1.0274    0.1566 N   0  0  0  0  0  0  0  0  0  0  0  0
    0.2023    0.5266   -0.5070 C   0  0  2  0  0  0  0  0  0  0  0  0
    0.5434    1.5085   -1.6222 C   0  0  0  0  0  0  0  0  0  0  0  0
    0.0955    2.6523   -1.6668 O   0  0  0  0  0  0  0  0  0  0  0  0
   -0.0104   -0.8789   -1.0811 C   0  0  0  0  0  0  0  0  0  0  0  0
   -0.1977   -1.9248   -0.0093 C   0  0  0  0  0  0  0  0  0  0  0  0
    0.9123   -2.4629    0.6420 C   0  0  0  0  0  0  0  0  0  0  0  0
   -1.4810   -2.3539    0.3295 C   0  0  0  0  0  0  0  0  0  0  0  0
    0.7390   -3.4300    1.6321 C   0  0  0  0  0  0  0  0  0  0  0  0
   -1.6543   -3.3211    1.3196 C   0  0  0  0  0  0  0  0  0  0  0  0
   -0.5443   -3.8591    1.9709 C   0  0  0  0  0  0  0  0  0  0  0  0
   -0.7131   -4.8037    2.9361 O   0  0  0  0  0  0  0  0  0  0  0  0
   -1.7582    1.3241   -0.4207 H   0  0  0  0  0  0  0  0  0  0  0  0
    1.0075    0.5346    0.2369 H   0  0  0  0  0  0  0  0  0  0  0  0
    0.8338   -1.1581   -1.7261 H   0  0  0  0  0  0  0  0  0  0  0  0
   -0.8914   -0.8964   -1.7362 H   0  0  0  0  0  0  0  0  0  0  0  0
    1.9156   -2.1344    0.3845 H   0  0  0  0  0  0  0  0  0  0  0  0
   -2.3517   -1.9401   -0.1727 H   0  0  0  0  0  0  0  0  0  0  0  0
    1.6077   -3.8456    2.1357 H   0  0  0  0  0  0  0  0  0  0  0  0
   -2.6563   -3.6513    1.5787 H   0  0  0  0  0  0  0  0  0  0  0  0
   -1.6566   -4.9959    3.0574 H   0  0  0  0  0  0  0  0  0  0  0  0
    1.4445    0.9705   -2.5305 N   0  0  0  0  0  0  0  0  0  0  0  0
    1.9517    1.6987   -3.6713 C   0  0  2  0  0  0  0  0  0  0  0  0
    0.7641    2.2994   -4.4117 C   0  0  0  0  0  0  0  0  0  0  0  0
   -0.3787    1.8563   -4.3178 O   0  0  0  0  0  0  0  0  0  0  0  0
    2.7635    0.7963   -4.5874 C   0  0  0  0  0  0  0  0  0  0  0  0
    1.7636    0.0171   -2.3863 H   0  0  0  0  0  0  0  0  0  0  0  0
    2.5824    2.5034   -3.2779 H   0  0  0  0  0  0  0  0  0  0  0  0
    2.1483   -0.0160   -4.9913 H   0  0  0  0  0  0  0  0  0  0  0  0
    3.1709    1.3557   -5.4361 H   0  0  0  0  0  0  0  0  0  0  0  0
    3.5999    0.3418   -4.0455 H   0  0  0  0  0  0  0  0  0  0  0  0
    1.1379    3.3614   -5.2232 N   0  0  0  0  0  0  0  0  0  0  0  0
    0.1937    4.0902   -6.0377 C   0  0  0  0  0  0  0  0  0  0  0  0
    2.1046    3.6730   -5.2246 H   0  0  0  0  0  0  0  0  0  0  0  0
    0.1557    3.6452   -7.0430 H   0  0  0  0  0  0  0  0  0  0  0  0
   -0.8037    4.0398   -5.5766 H   0  0  0  0  0  0  0  0  0  0  0  0
    0.5098    5.1411   -6.1138 H   0  0  0  0  0  0  0  0  0  0  0  0
 23 25  2  0  0  0  0
 22 23  1  0  0  0  0
 24 26  1  0  0  0  0
 22 24  2  0  0  0  0
 25 27  1  0  0  0  0
 26 27  2  0  0  0  0
 21 22  1  0  0  0  0
 27 28  1  0  0  0  0
  1  3  1  0  0  0  0
  1  7  1  0  0  0  0
  1  2  2  0  0  0  0
 39 40  1  0  0  0  0
 40 48  1  0  0  0  0
 40 41  2  0  0  0  0
  8  9  1  0  0  0  0
  9 17  1  0  0  0  0
  9 10  2  0  0  0  0
 18 19  1  0  0  0  0
 19 38  1  0  0  0  0
 19 20  2  0  0  0  0
 39 42  1  0  0  0  0
  8 11  1  0  0  0  0
 48 49  1  0  0  0  0
 18 21  1  0  0  0  0
 38 39  1  0  0  0  0
  7  8  1  0  0  0  0
 17 18  1  0  0  0  0
 23 33  1  0  0  0  0
 24 34  1  0  0  0  0
 25 35  1  0  0  0  0
 26 36  1  0  0  0  0
  3  4  1  0  0  0  0
  3  5  1  0  0  0  0
  3  6  1  0  0  0  0
 42 45  1  0  0  0  0
 42 46  1  0  0  0  0
 42 47  1  0  0  0  0
 11 14  1  0  0  0  0
 11 15  1  0  0  0  0
 11 16  1  0  0  0  0
 49 51  1  0  0  0  0
 49 52  1  0  0  0  0
 49 53  1  0  0  0  0
 21 31  1  0  0  0  0
 21 32  1  0  0  0  0
 39 44  1  0  0  0  0
  8 13  1  0  0  0  0
 18 30  1  0  0  0  0
 48 50  1  0  0  0  0
  7 12  1  0  0  0  0
 38 43  1  0  0  0  0
 17 29  1  0  0  0  0
 28 37  1  0  0  0  0
M  END
$$$$

  -OEChem-05262214473D

 53 53  0     1  0  0  0  0  0999 V2000
   -1.9298    0.2574    3.9747 C   0  0  0  0  0  0  0  0  0  0  0  0
   -0.9825   -0.3573    3.4990 O   0  0  0  0  0  0  0  0  0  0  0  0
   -2.3617   -0.0250    5.3754 C   0  0  0  0  0  0  0  0  0  0  0  0
   -3.1214   -0.8213    5.4288 H   0  0  0  0  0  0  0  0  0  0  0  0
   -1.5305   -0.3726    6.0097 H   0  0  0  0  0  0  0  0  0  0  0  0
   -2.7997    0.8299    5.9150 H   0  0  0  0  0  0  0  0  0  0  0  0
   -2.6795    1.2298    3.3336 N   0  0  0  0  0  0  0  0  0  0  0  0
   -2.4327    1.6559    1.9812 C   0  0  2  0  0  0  0  0  0  0  0  0
   -1.0977    1.0705    1.5400 C   0  0  0  0  0  0  0  0  0  0  0  0
   -0.2256    0.7177    2.3313 O   0  0  0  0  0  0  0  0  0  0  0  0
   -2.4239    3.1726    1.8718 C   0  0  0  0  0  0  0  0  0  0  0  0
   -3.4446    1.6657    3.8454 H   0  0  0  0  0  0  0  0  0  0  0  0
   -3.2368    1.2374    1.3661 H   0  0  0  0  0  0  0  0  0  0  0  0
   -1.6248    3.6099    2.4815 H   0  0  0  0  0  0  0  0  0  0  0  0
   -2.2644    3.4949    0.8375 H   0  0  0  0  0  0  0  0  0  0  0  0
   -3.3741    3.5939    2.2175 H   0  0  0  0  0  0  0  0  0  0  0  0
   -0.9750    1.0274    0.1566 N   0  0  0  0  0  0  0  0  0  0  0  0
    0.2023    0.5266   -0.5070 C   0  0  2  0  0  0  0  0  0  0  0  0
    0.5434    1.5085   -1.6222 C   0  0  0  0  0  0  0  0  0  0  0  0
    0.3250    2.7154   -1.5411 O   0  0  0  0  0  0  0  0  0  0  0  0
   -0.0104   -0.8789   -1.0811 C   0  0  0  0  0  0  0  0  0  0  0  0
   -0.1977   -1.9248   -0.0093 C   0  0  0  0  0  0  0  0  0  0  0  0
    0.9123   -2.4629    0.6420 C   0  0  0  0  0  0  0  0  0  0  0  0
   -1.4810   -2.3539    0.3295 C   0  0  0  0  0  0  0  0  0  0  0  0
    0.7390   -3.4300    1.6321 C   0  0  0  0  0  0  0  0  0  0  0  0
   -1.6543   -3.3211    1.3196 C   0  0  0  0  0  0  0  0  0  0  0  0
   -0.5443   -3.8591    1.9709 C   0  0  0  0  0  0  0  0  0  0  0  0
   -0.7131   -4.8037    2.9361 O   0  0  0  0  0  0  0  0  0  0  0  0
   -1.7582    1.3241   -0.4207 H   0  0  0  0  0  0  0  0  0  0  0  0
    1.0075    0.5346    0.2369 H   0  0  0  0  0  0  0  0  0  0  0  0
    0.8338   -1.1581   -1.7261 H   0  0  0  0  0  0  0  0  0  0  0  0
   -0.8914   -0.8964   -1.7362 H   0  0  0  0  0  0  0  0  0  0  0  0
    1.9156   -2.1344    0.3845 H   0  0  0  0  0  0  0  0  0  0  0  0
   -2.3517   -1.9401   -0.1727 H   0  0  0  0  0  0  0  0  0  0  0  0
    1.6077   -3.8456    2.1357 H   0  0  0  0  0  0  0  0  0  0  0  0
   -2.6563   -3.6513    1.5787 H   0  0  0  0  0  0  0  0  0  0  0  0
   -1.6566   -4.9959    3.0574 H   0  0  0  0  0  0  0  0  0  0  0  0
    1.1645    0.8823   -2.6939 N   0  0  0  0  0  0  0  0  0  0  0  0
    1.6129    1.5868   -3.8735 C   0  0  2  0  0  0  0  0  0  0  0  0
    0.4611    2.4492   -4.3725 C   0  0  0  0  0  0  0  0  0  0  0  0
   -0.7156    2.2188   -4.1017 O   0  0  0  0  0  0  0  0  0  0  0  0
    2.0756    0.6204   -4.9527 C   0  0  0  0  0  0  0  0  0  0  0  0
    1.3113   -0.1217   -2.6468 H   0  0  0  0  0  0  0  0  0  0  0  0
    2.4429    2.2299   -3.5613 H   0  0  0  0  0  0  0  0  0  0  0  0
    1.2574   -0.0324   -5.2782 H   0  0  0  0  0  0  0  0  0  0  0  0
    2.4416    1.1563   -5.8347 H   0  0  0  0  0  0  0  0  0  0  0  0
    2.8839   -0.0193   -4.5825 H   0  0  0  0  0  0  0  0  0  0  0  0
    0.8983    3.4812   -5.1910 N   0  0  0  0  0  0  0  0  0  0  0  0
   -0.0049    4.4298   -5.7995 C   0  0  0  0  0  0  0  0  0  0  0  0
    1.8941    3.6084   -5.3459 H   0  0  0  0  0  0  0  0  0  0  0  0
   -0.2901    4.0750   -6.8009 H   0  0  0  0  0  0  0  0  0  0  0  0
   -0.9055    4.5302   -5.1759 H   0  0  0  0  0  0  0  0  0  0  0  0
    0.4928    5.4070   -5.8848 H   0  0  0  0  0  0  0  0  0  0  0  0
 23 25  2  0  0  0  0
 22 23  1  0  0  0  0
 24 26  1  0  0  0  0
 22 24  2  0  0  0  0
 25 27  1  0  0  0  0
 26 27  2  0  0  0  0
 21 22  1  0  0  0  0
 27 28  1  0  0  0  0
  1  3  1  0  0  0  0
  1  7  1  0  0  0  0
  1  2  2  0  0  0  0
 39 40  1  0  0  0  0
 40 48  1  0  0  0  0
 40 41  2  0  0  0  0
  8  9  1  0  0  0  0
  9 17  1  0  0  0  0
  9 10  2  0  0  0  0
 18 19  1  0  0  0  0
 19 38  1  0  0  0  0
 19 20  2  0  0  0  0
 39 42  1  0  0  0  0
  8 11  1  0  0  0  0
 48 49  1  0  0  0  0
 18 21  1  0  0  0  0
 38 39  1  0  0  0  0
  7  8  1  0  0  0  0
 17 18  1  0  0  0  0
 23 33  1  0  0  0  0
 24 34  1  0  0  0  0
 25 35  1  0  0  0  0
 26 36  1  0  0  0  0
  3  4  1  0  0  0  0
  3  5  1  0  0  0  0
  3  6  1  0  0  0  0
 42 45  1  0  0  0  0
 42 46  1  0  0  0  0
 42 47  1  0  0  0  0
 11 14  1  0  0  0  0
 11 15  1  0  0  0  0
 11 16  1  0  0  0  0
 49 51  1  0  0  0  0
 49 52  1  0  0  0  0
 49 53  1  0  0  0  0
 21 31  1  0  0  0  0
 21 32  1  0  0  0  0
 39 44  1  0  0  0  0
  8 13  1  0  0  0  0
 18 30  1  0  0  0  0
 48 50  1  0  0  0  0
  7 12  1  0  0  0  0
 38 43  1  0  0  0  0
 17 29  1  0  0  0  0
 28 37  1  0  0  0  0
M  END
$$$$

  -OEChem-05262214473D

 53 53  0     1  0  0  0  0  0999 V2000
   -1.9298    0.2574    3.9747 C   0  0  0  0  0  0  0  0  0  0  0  0
   -0.9825   -0.3573    3.4990 O   0  0  0  0  0  0  0  0  0  0  0  0
   -2.3617   -0.0250    5.3754 C   0  0  0  0  0  0  0  0  0  0  0  0
   -3.1214   -0.8213    5.4288 H   0  0  0  0  0  0  0  0  0  0  0  0
   -1.5305   -0.3726    6.0097 H   0  0  0  0  0  0  0  0  0  0  0  0
   -2.7997    0.8299    5.9150 H   0  0  0  0  0  0  0  0  0  0  0  0
   -2.6795    1.2298    3.3336 N   0  0  0  0  0  0  0  0  0  0  0  0
   -2.4327    1.6559    1.9812 C   0  0  2  0  0  0  0  0  0  0  0  0
   -1.0977    1.0705    1.5400 C   0  0  0  0  0  0  0  0  0  0  0  0
   -0.2256    0.7177    2.3313 O   0  0  0  0  0  0  0  0  0  0  0  0
   -2.4239    3.1726    1.8718 C   0  0  0  0  0  0  0  0  0  0  0  0
   -3.4446    1.6657    3.8454 H   0  0  0  0  0  0  0  0  0  0  0  0
   -3.2368    1.2374    1.3661 H   0  0  0  0  0  0  0  0  0  0  0  0
   -1.6248    3.6099    2.4815 H   0  0  0  0  0  0  0  0  0  0  0  0
   -2.2644    3.4949    0.8375 H   0  0  0  0  0  0  0  0  0  0  0  0
   -3.3741    3.5939    2.2175 H   0  0  0  0  0  0  0  0  0  0  0  0
   -0.9750    1.0274    0.1566 N   0  0  0  0  0  0  0  0  0  0  0  0
    0.2023    0.5266   -0.5070 C   0  0  2  0  0  0  0  0  0  0  0  0
    0.5434    1.5085   -1.6222 C   0  0  0  0  0  0  0  0  0  0  0  0
    0.5796    2.7256   -1.4542 O   0  0  0  0  0  0  0  0  0  0  0  0
   -0.0104   -0.8789   -1.0811 C   0  0  0  0  0  0  0  0  0  0  0  0
   -0.1977   -1.9248   -0.0093 C   0  0  0  0  0  0  0  0  0  0  0  0
    0.9123   -2.4629    0.6420 C   0  0  0  0  0  0  0  0  0  0  0  0
   -1.4810   -2.3539    0.3295 C   0  0  0  0  0  0  0  0  0  0  0  0
    0.7390   -3.4300    1.6321 C   0  0  0  0  0  0  0  0  0  0  0  0
   -1.6543   -3.3211    1.3196 C   0  0  0  0  0  0  0  0  0  0  0  0
   -0.5443   -3.8591    1.9709 C   0  0  0  0  0  0  0  0  0  0  0  0
   -0.7131   -4.8037    2.9361 O   0  0  0  0  0  0  0  0  0  0  0  0
   -1.7582    1.3241   -0.4207 H   0  0  0  0  0  0  0  0  0  0  0  0
    1.0075    0.5346    0.2369 H   0  0  0  0  0  0  0  0  0  0  0  0
    0.8338   -1.1581   -1.7261 H   0  0  0  0  0  0  0  0  0  0  0  0
   -0.8914   -0.8964   -1.7362 H   0  0  0  0  0  0  0  0  0  0  0  0
    1.9156   -2.1344    0.3845 H   0  0  0  0  0  0  0  0  0  0  0  0
   -2.3517   -1.9401   -0.1727 H   0  0  0  0  0  0  0  0  0  0  0  0
    1.6077   -3.8456    2.1357 H   0  0  0  0  0  0  0  0  0  0  0  0
   -2.6563   -3.6513    1.5787 H   0  0  0  0  0  0  0  0  0  0  0  0
   -1.6566   -4.9959    3.0574 H   0  0  0  0  0  0  0  0  0  0  0  0
    0.8501    0.8595   -2.8102 N   0  0  0  0  0  0  0  0  0  0  0  0
    1.2308    1.5545   -4.0188 C   0  0  2  0  0  0  0  0  0  0  0  0
    0.2034    2.6491   -4.2753 C   0  0  0  0  0  0  0  0  0  0  0  0
   -0.9364    2.6203   -3.8158 O   0  0  0  0  0  0  0  0  0  0  0  0
    1.3169    0.6019   -5.2011 C   0  0  0  0  0  0  0  0  0  0  0  0
    0.8047   -0.1551   -2.8311 H   0  0  0  0  0  0  0  0  0  0  0  0
    2.2091    2.0087   -3.8276 H   0  0  0  0  0  0  0  0  0  0  0  0
    0.3459    0.1371   -5.4078 H   0  0  0  0  0  0  0  0  0  0  0  0
    1.6331    1.1248   -6.1097 H   0  0  0  0  0  0  0  0  0  0  0  0
    2.0345   -0.2016   -5.0028 H   0  0  0  0  0  0  0  0  0  0  0  0
    0.6950    3.6403   -5.1131 N   0  0  0  0  0  0  0  0  0  0  0  0
   -0.0928    4.7816   -5.5165 C   0  0  0  0  0  0  0  0  0  0  0  0
    1.6583    3.5928   -5.4317 H   0  0  0  0  0  0  0  0  0  0  0  0
   -0.5990    4.5606   -6.4678 H   0  0  0  0  0  0  0  0  0  0  0  0
   -0.8443    5.0000   -4.7435 H   0  0  0  0  0  0  0  0  0  0  0  0
    0.5649    5.6539   -5.6454 H   0  0  0  0  0  0  0  0  0  0  0  0
 23 25  2  0  0  0  0
 22 23  1  0  0  0  0
 24 26  1  0  0  0  0
 22 24  2  0  0  0  0
 25 27  1  0  0  0  0
 26 27  2  0  0  0  0
 21 22  1  0  0  0  0
 27 28  1  0  0  0  0
  1  3  1  0  0  0  0
  1  7  1  0  0  0  0
  1  2  2  0  0  0  0
 39 40  1  0  0  0  0
 40 48  1  0  0  0  0
 40 41  2  0  0  0  0
  8  9  1  0  0  0  0
  9 17  1  0  0  0  0
  9 10  2  0  0  0  0
 18 19  1  0  0  0  0
 19 38  1  0  0  0  0
 19 20  2  0  0  0  0
 39 42  1  0  0  0  0
  8 11  1  0  0  0  0
 48 49  1  0  0  0  0
 18 21  1  0  0  0  0
 38 39  1  0  0  0  0
  7  8  1  0  0  0  0
 17 18  1  0  0  0  0
 23 33  1  0  0  0  0
 24 34  1  0  0  0  0
 25 35  1  0  0  0  0
 26 36  1  0  0  0  0
  3  4  1  0  0  0  0
  3  5  1  0  0  0  0
  3  6  1  0  0  0  0
 42 45  1  0  0  0  0
 42 46  1  0  0  0  0
 42 47  1  0  0  0  0
 11 14  1  0  0  0  0
 11 15  1  0  0  0  0
 11 16  1  0  0  0  0
 49 51  1  0  0  0  0
 49 52  1  0  0  0  0
 49 53  1  0  0  0  0
 21 31  1  0  0  0  0
 21 32  1  0  0  0  0
 39 44  1  0  0  0  0
  8 13  1  0  0  0  0
 18 30  1  0  0  0  0
 48 50  1  0  0  0  0
  7 12  1  0  0  0  0
 38 43  1  0  0  0  0
 17 29  1  0  0  0  0
 28 37  1  0  0  0  0
M  END
$$$$

  -OEChem-05262214473D

 53 53  0     1  0  0  0  0  0999 V2000
   -1.9298    0.2574    3.9747 C   0  0  0  0  0  0  0  0  0  0  0  0
   -0.9825   -0.3573    3.4990 O   0  0  0  0  0  0  0  0  0  0  0  0
   -2.3617   -0.0250    5.3754 C   0  0  0  0  0  0  0  0  0  0  0  0
   -3.1214   -0.8213    5.4288 H   0  0  0  0  0  0  0  0  0  0  0  0
   -1.5305   -0.3726    6.0097 H   0  0  0  0  0  0  0  0  0  0  0  0
   -2.7997    0.8299    5.9150 H   0  0  0  0  0  0  0  0  0  0  0  0
   -2.6795    1.2298    3.3336 N   0  0  0  0  0  0  0  0  0  0  0  0
   -2.4327    1.6559    1.9812 C   0  0  2  0  0  0  0  0  0  0  0  0
   -1.0977    1.0705    1.5400 C   0  0  0  0  0  0  0  0  0  0  0  0
   -0.2256    0.7177    2.3313 O   0  0  0  0  0  0  0  0  0  0  0  0
   -2.4239    3.1726    1.8718 C   0  0  0  0  0  0  0  0  0  0  0  0
   -3.4446    1.6657    3.8454 H   0  0  0  0  0  0  0  0  0  0  0  0
   -3.2368    1.2374    1.3661 H   0  0  0  0  0  0  0  0  0  0  0  0
   -1.6248    3.6099    2.4815 H   0  0  0  0  0  0  0  0  0  0  0  0
   -2.2644    3.4949    0.8375 H   0  0  0  0  0  0  0  0  0  0  0  0
   -3.3741    3.5939    2.2175 H   0  0  0  0  0  0  0  0  0  0  0  0
   -0.9750    1.0274    0.1566 N   0  0  0  0  0  0  0  0  0  0  0  0
    0.2023    0.5266   -0.5070 C   0  0  2  0  0  0  0  0  0  0  0  0
    0.5434    1.5085   -1.6222 C   0  0  0  0  0  0  0  0  0  0  0  0
    0.8419    2.6822   -1.4122 O   0  0  0  0  0  0  0  0  0  0  0  0
   -0.0104   -0.8789   -1.0811 C   0  0  0  0  0  0  0  0  0  0  0  0
   -0.1977   -1.9248   -0.0093 C   0  0  0  0  0  0  0  0  0  0  0  0
    0.9123   -2.4629    0.6420 C   0  0  0  0  0  0  0  0  0  0  0  0
   -1.4810   -2.3539    0.3295 C   0  0  0  0  0  0  0  0  0  0  0  0
    0.7390   -3.4300    1.6321 C   0  0  0  0  0  0  0  0  0  0  0  0
   -1.6543   -3.3211    1.3196 C   0  0  0  0  0  0  0  0  0  0  0  0
   -0.5443   -3.8591    1.9709 C   0  0  0  0  0  0  0  0  0  0  0  0
   -0.7131   -4.8037    2.9361 O   0  0  0  0  0  0  0  0  0  0  0  0
   -1.7582    1.3241   -0.4207 H   0  0  0  0  0  0  0  0  0  0  0  0
    1.0075    0.5346    0.2369 H   0  0  0  0  0  0  0  0  0  0  0  0
    0.8338   -1.1581   -1.7261 H   0  0  0  0  0  0  0  0  0  0  0  0
   -0.8914   -0.8964   -1.7362 H   0  0  0  0  0  0  0  0  0  0  0  0
    1.9156   -2.1344    0.3845 H   0  0  0  0  0  0  0  0  0  0  0  0
   -2.3517   -1.9401   -0.1727 H   0  0  0  0  0  0  0  0  0  0  0  0
    1.6077   -3.8456    2.1357 H   0  0  0  0  0  0  0  0  0  0  0  0
   -2.6563   -3.6513    1.5787 H   0  0  0  0  0  0  0  0  0  0  0  0
   -1.6566   -4.9959    3.0574 H   0  0  0  0  0  0  0  0  0  0  0  0
    0.5227    0.9037   -2.8713 N   0  0  0  0  0  0  0  0  0  0  0  0
    0.8313    1.6041   -4.0973 C   0  0  2  0  0  0  0  0  0  0  0  0
    0.0084    2.8853   -4.1270 C   0  0  0  0  0  0  0  0  0  0  0  0
   -1.0260    3.0332   -3.4796 O   0  0  0  0  0  0  0  0  0  0  0  0
    0.5391    0.7420   -5.3156 C   0  0  0  0  0  0  0  0  0  0  0  0
    0.2783   -0.0807   -2.9266 H   0  0  0  0  0  0  0  0  0  0  0  0
    1.8970    1.8546   -4.0587 H   0  0  0  0  0  0  0  0  0  0  0  0
   -0.5240    0.4809   -5.3712 H   0  0  0  0  0  0  0  0  0  0  0  0
    0.8002    1.2634   -6.2424 H   0  0  0  0  0  0  0  0  0  0  0  0
    1.1094   -0.1924   -5.2777 H   0  0  0  0  0  0  0  0  0  0  0  0
    0.5417    3.8281   -4.9947 N   0  0  0  0  0  0  0  0  0  0  0  0
   -0.0639    5.1217   -5.2083 C   0  0  0  0  0  0  0  0  0  0  0  0
    1.4133    3.6274   -5.4762 H   0  0  0  0  0  0  0  0  0  0  0  0
   -0.7499    5.0688   -6.0665 H   0  0  0  0  0  0  0  0  0  0  0  0
   -0.6241    5.4172   -4.3089 H   0  0  0  0  0  0  0  0  0  0  0  0
    0.7212    5.8649   -5.4118 H   0  0  0  0  0  0  0  0  0  0  0  0
 23 25  2  0  0  0  0
 22 23  1  0  0  0  0
 24 26  1  0  0  0  0
 22 24  2  0  0  0  0
 25 27  1  0  0  0  0
 26 27  2  0  0  0  0
 21 22  1  0  0  0  0
 27 28  1  0  0  0  0
  1  3  1  0  0  0  0
  1  7  1  0  0  0  0
  1  2  2  0  0  0  0
 39 40  1  0  0  0  0
 40 48  1  0  0  0  0
 40 41  2  0  0  0  0
  8  9  1  0  0  0  0
  9 17  1  0  0  0  0
  9 10  2  0  0  0  0
 18 19  1  0  0  0  0
 19 38  1  0  0  0  0
 19 20  2  0  0  0  0
 39 42  1  0  0  0  0
  8 11  1  0  0  0  0
 48 49  1  0  0  0  0
 18 21  1  0  0  0  0
 38 39  1  0  0  0  0
  7  8  1  0  0  0  0
 17 18  1  0  0  0  0
 23 33  1  0  0  0  0
 24 34  1  0  0  0  0
 25 35  1  0  0  0  0
 26 36  1  0  0  0  0
  3  4  1  0  0  0  0
  3  5  1  0  0  0  0
  3  6  1  0  0  0  0
 42 45  1  0  0  0  0
 42 46  1  0  0  0  0
 42 47  1  0  0  0  0
 11 14  1  0  0  0  0
 11 15  1  0  0  0  0
 11 16  1  0  0  0  0
 49 51  1  0  0  0  0
 49 52  1  0  0  0  0
 49 53  1  0  0  0  0
 21 31  1  0  0  0  0
 21 32  1  0  0  0  0
 39 44  1  0  0  0  0
  8 13  1  0  0  0  0
 18 30  1  0  0  0  0
 48 50  1  0  0  0  0
  7 12  1  0  0  0  0
 38 43  1  0  0  0  0
 17 29  1  0  0  0  0
 28 37  1  0  0  0  0
M  END
$$$$

  -OEChem-05262214473D

 53 53  0     1  0  0  0  0  0999 V2000
   -1.9298    0.2574    3.9747 C   0  0  0  0  0  0  0  0  0  0  0  0
   -0.9825   -0.3573    3.4990 O   0  0  0  0  0  0  0  0  0  0  0  0
   -2.3617   -0.0250    5.3754 C   0  0  0  0  0  0  0  0  0  0  0  0
   -3.1214   -0.8213    5.4288 H   0  0  0  0  0  0  0  0  0  0  0  0
   -1.5305   -0.3726    6.0097 H   0  0  0  0  0  0  0  0  0  0  0  0
   -2.7997    0.8299    5.9150 H   0  0  0  0  0  0  0  0  0  0  0  0
   -2.6795    1.2298    3.3336 N   0  0  0  0  0  0  0  0  0  0  0  0
   -2.4327    1.6559    1.9812 C   0  0  2  0  0  0  0  0  0  0  0  0
   -1.0977    1.0705    1.5400 C   0  0  0  0  0  0  0  0  0  0  0  0
   -0.2256    0.7177    2.3313 O   0  0  0  0  0  0  0  0  0  0  0  0
   -2.4239    3.1726    1.8718 C   0  0  0  0  0  0  0  0  0  0  0  0
   -3.4446    1.6657    3.8454 H   0  0  0  0  0  0  0  0  0  0  0  0
   -3.2368    1.2374    1.3661 H   0  0  0  0  0  0  0  0  0  0  0  0
   -1.6248    3.6099    2.4815 H   0  0  0  0  0  0  0  0  0  0  0  0
   -2.2644    3.4949    0.8375 H   0  0  0  0  0  0  0  0  0  0  0  0
   -3.3741    3.5939    2.2175 H   0  0  0  0  0  0  0  0  0  0  0  0
   -0.9750    1.0274    0.1566 N   0  0  0  0  0  0  0  0  0  0  0  0
    0.2023    0.5266   -0.5070 C   0  0  2  0  0  0  0  0  0  0  0  0
    0.5434    1.5085   -1.6222 C   0  0  0  0  0  0  0  0  0  0  0  0
    1.0940    2.5883   -1.4178 O   0  0  0  0  0  0  0  0  0  0  0  0
   -0.0104   -0.8789   -1.0811 C   0  0  0  0  0  0  0  0  0  0  0  0
   -0.1977   -1.9248   -0.0093 C   0  0  0  0  0  0  0  0  0  0  0  0
    0.9123   -2.4629    0.6420 C   0  0  0  0  0  0  0  0  0  0  0  0
   -1.4810   -2.3539    0.3295 C   0  0  0  0  0  0  0  0  0  0  0  0
    0.7390   -3.4300    1.6321 C   0  0  0  0  0  0  0  0  0  0  0  0
   -1.6543   -3.3211    1.3196 C   0  0  0  0  0  0  0  0  0  0  0  0
   -0.5443   -3.8591    1.9709 C   0  0  0  0  0  0  0  0  0  0  0  0
   -0.7131   -4.8037    2.9361 O   0  0  0  0  0  0  0  0  0  0  0  0
   -1.7582    1.3241   -0.4207 H   0  0  0  0  0  0  0  0  0  0  0  0
    1.0075    0.5346    0.2369 H   0  0  0  0  0  0  0  0  0  0  0  0
    0.8338   -1.1581   -1.7261 H   0  0  0  0  0  0  0  0  0  0  0  0
   -0.8914   -0.8964   -1.7362 H   0  0  0  0  0  0  0  0  0  0  0  0
    1.9156   -2.1344    0.3845 H   0  0  0  0  0  0  0  0  0  0  0  0
   -2.3517   -1.9401   -0.1727 H   0  0  0  0  0  0  0  0  0  0  0  0
    1.6077   -3.8456    2.1357 H   0  0  0  0  0  0  0  0  0  0  0  0
   -2.6563   -3.6513    1.5787 H   0  0  0  0  0  0  0  0  0  0  0  0
   -1.6566   -4.9959    3.0574 H   0  0  0  0  0  0  0  0  0  0  0  0
    0.2046    1.0120   -2.8733 N   0  0  0  0  0  0  0  0  0  0  0  0
    0.4418    1.7321   -4.1037 C   0  0  2  0  0  0  0  0  0  0  0  0
   -0.1104    3.1417   -3.9375 C   0  0  0  0  0  0  0  0  0  0  0  0
   -0.9783    3.4296   -3.1160 O   0  0  0  0  0  0  0  0  0  0  0  0
   -0.2047    1.0313   -5.2885 C   0  0  0  0  0  0  0  0  0  0  0  0
   -0.2319    0.0964   -2.9268 H   0  0  0  0  0  0  0  0  0  0  0  0
    1.5279    1.7783   -4.2389 H   0  0  0  0  0  0  0  0  0  0  0  0
   -1.2931    0.9755   -5.1710 H   0  0  0  0  0  0  0  0  0  0  0  0
   -0.0001    1.5627   -6.2238 H   0  0  0  0  0  0  0  0  0  0  0  0
    0.1717    0.0075   -5.3885 H   0  0  0  0  0  0  0  0  0  0  0  0
    0.4490    4.0316   -4.8439 N   0  0  0  0  0  0  0  0  0  0  0  0
    0.0798    5.4269   -4.8956 C   0  0  0  0  0  0  0  0  0  0  0  0
    1.1758    3.7098   -5.4764 H   0  0  0  0  0  0  0  0  0  0  0  0
   -0.7326    5.5651   -5.6242 H   0  0  0  0  0  0  0  0  0  0  0  0
   -0.2599    5.7533   -3.9016 H   0  0  0  0  0  0  0  0  0  0  0  0
    0.9510    6.0255   -5.2001 H   0  0  0  0  0  0  0  0  0  0  0  0
 23 25  2  0  0  0  0
 22 23  1  0  0  0  0
 24 26  1  0  0  0  0
 22 24  2  0  0  0  0
 25 27  1  0  0  0  0
 26 27  2  0  0  0  0
 21 22  1  0  0  0  0
 27 28  1  0  0  0  0
  1  3  1  0  0  0  0
  1  7  1  0  0  0  0
  1  2  2  0  0  0  0
 39 40  1  0  0  0  0
 40 48  1  0  0  0  0
 40 41  2  0  0  0  0
  8  9  1  0  0  0  0
  9 17  1  0  0  0  0
  9 10  2  0  0  0  0
 18 19  1  0  0  0  0
 19 38  1  0  0  0  0
 19 20  2  0  0  0  0
 39 42  1  0  0  0  0
  8 11  1  0  0  0  0
 48 49  1  0  0  0  0
 18 21  1  0  0  0  0
 38 39  1  0  0  0  0
  7  8  1  0  0  0  0
 17 18  1  0  0  0  0
 23 33  1  0  0  0  0
 24 34  1  0  0  0  0
 25 35  1  0  0  0  0
 26 36  1  0  0  0  0
  3  4  1  0  0  0  0
  3  5  1  0  0  0  0
  3  6  1  0  0  0  0
 42 45  1  0  0  0  0
 42 46  1  0  0  0  0
 42 47  1  0  0  0  0
 11 14  1  0  0  0  0
 11 15  1  0  0  0  0
 11 16  1  0  0  0  0
 49 51  1  0  0  0  0
 49 52  1  0  0  0  0
 49 53  1  0  0  0  0
 21 31  1  0  0  0  0
 21 32  1  0  0  0  0
 39 44  1  0  0  0  0
  8 13  1  0  0  0  0
 18 30  1  0  0  0  0
 48 50  1  0  0  0  0
  7 12  1  0  0  0  0
 38 43  1  0  0  0  0
 17 29  1  0  0  0  0
 28 37  1  0  0  0  0
M  END
$$$$

  -OEChem-05262214473D

 53 53  0     1  0  0  0  0  0999 V2000
   -1.9298    0.2574    3.9747 C   0  0  0  0  0  0  0  0  0  0  0  0
   -0.9825   -0.3573    3.4990 O   0  0  0  0  0  0  0  0  0  0  0  0
   -2.3617   -0.0250    5.3754 C   0  0  0  0  0  0  0  0  0  0  0  0
   -3.1214   -0.8213    5.4288 H   0  0  0  0  0  0  0  0  0  0  0  0
   -1.5305   -0.3726    6.0097 H   0  0  0  0  0  0  0  0  0  0  0  0
   -2.7997    0.8299    5.9150 H   0  0  0  0  0  0  0  0  0  0  0  0
   -2.6795    1.2298    3.3336 N   0  0  0  0  0  0  0  0  0  0  0  0
   -2.4327    1.6559    1.9812 C   0  0  2  0  0  0  0  0  0  0  0  0
   -1.0977    1.0705    1.5400 C   0  0  0  0  0  0  0  0  0  0  0  0
   -0.2256    0.7177    2.3313 O   0  0  0  0  0  0  0  0  0  0  0  0
   -2.4239    3.1726    1.8718 C   0  0  0  0  0  0  0  0  0  0  0  0
   -3.4446    1.6657    3.8454 H   0  0  0  0  0  0  0  0  0  0  0  0
   -3.2368    1.2374    1.3661 H   0  0  0  0  0  0  0  0  0  0  0  0
   -1.6248    3.6099    2.4815 H   0  0  0  0  0  0  0  0  0  0  0  0
   -2.2644    3.4949    0.8375 H   0  0  0  0  0  0  0  0  0  0  0  0
   -3.3741    3.5939    2.2175 H   0  0  0  0  0  0  0  0  0  0  0  0
   -0.9750    1.0274    0.1566 N   0  0  0  0  0  0  0  0  0  0  0  0
    0.2023    0.5266   -0.5070 C   0  0  2  0  0  0  0  0  0  0  0  0
    0.5434    1.5085   -1.6222 C   0  0  0  0  0  0  0  0  0  0  0  0
    1.3189    2.4501   -1.4707 O   0  0  0  0  0  0  0  0  0  0  0  0
   -0.0104   -0.8789   -1.0811 C   0  0  0  0  0  0  0  0  0  0  0  0
   -0.1977   -1.9248   -0.0093 C   0  0  0  0  0  0  0  0  0  0  0  0
    0.9123   -2.4629    0.6420 C   0  0  0  0  0  0  0  0  0  0  0  0
   -1.4810   -2.3539    0.3295 C   0  0  0  0  0  0  0  0  0  0  0  0
    0.7390   -3.4300    1.6321 C   0  0  0  0  0  0  0  0  0  0  0  0
   -1.6543   -3.3211    1.3196 C   0  0  0  0  0  0  0  0  0  0  0  0
   -0.5443   -3.8591    1.9709 C   0  0  0  0  0  0  0  0  0  0  0  0
   -0.7131   -4.8037    2.9361 O   0  0  0  0  0  0  0  0  0  0  0  0
   -1.7582    1.3241   -0.4207 H   0  0  0  0  0  0  0  0  0  0  0  0
    1.0075    0.5346    0.2369 H   0  0  0  0  0  0  0  0  0  0  0  0
    0.8338   -1.1581   -1.7261 H   0  0  0  0  0  0  0  0  0  0  0  0
   -0.8914   -0.8964   -1.7362 H   0  0  0  0  0  0  0  0  0  0  0  0
    1.9156   -2.1344    0.3845 H   0  0  0  0  0  0  0  0  0  0  0  0
   -2.3517   -1.9401   -0.1727 H   0  0  0  0  0  0  0  0  0  0  0  0
    1.6077   -3.8456    2.1357 H   0  0  0  0  0  0  0  0  0  0  0  0
   -2.6563   -3.6513    1.5787 H   0  0  0  0  0  0  0  0  0  0  0  0
   -1.6566   -4.9959    3.0574 H   0  0  0  0  0  0  0  0  0  0  0  0
   -0.0824    1.1769   -2.8159 N   0  0  0  0  0  0  0  0  0  0  0  0
    0.0887    1.9300   -4.0376 C   0  0  2  0  0  0  0  0  0  0  0  0
   -0.1450    3.4010   -3.7199 C   0  0  0  0  0  0  0  0  0  0  0  0
   -0.7965    3.7824   -2.7498 O   0  0  0  0  0  0  0  0  0  0  0  0
   -0.8639    1.4499   -5.1215 C   0  0  0  0  0  0  0  0  0  0  0  0
   -0.6913    0.3640   -2.8317 H   0  0  0  0  0  0  0  0  0  0  0  0
    1.1268    1.7849   -4.3557 H   0  0  0  0  0  0  0  0  0  0  0  0
   -1.9089    1.5873   -4.8207 H   0  0  0  0  0  0  0  0  0  0  0  0
   -0.7134    2.0022   -6.0550 H   0  0  0  0  0  0  0  0  0  0  0  0
   -0.7147    0.3846   -5.3276 H   0  0  0  0  0  0  0  0  0  0  0  0
    0.4230    4.2370   -4.6710 N   0  0  0  0  0  0  0  0  0  0  0  0
    0.3285    5.6764   -4.5999 C   0  0  0  0  0  0  0  0  0  0  0  0
    0.9619    3.8344   -5.4321 H   0  0  0  0  0  0  0  0  0  0  0  0
   -0.5481    6.0155   -5.1712 H   0  0  0  0  0  0  0  0  0  0  0  0
    0.2233    5.9854   -3.5494 H   0  0  0  0  0  0  0  0  0  0  0  0
    1.2387    6.1249   -5.0246 H   0  0  0  0  0  0  0  0  0  0  0  0
 23 25  2  0  0  0  0
 22 23  1  0  0  0  0
 24 26  1  0  0  0  0
 22 24  2  0  0  0  0
 25 27  1  0  0  0  0
 26 27  2  0  0  0  0
 21 22  1  0  0  0  0
 27 28  1  0  0  0  0
  1  3  1  0  0  0  0
  1  7  1  0  0  0  0
  1  2  2  0  0  0  0
 39 40  1  0  0  0  0
 40 48  1  0  0  0  0
 40 41  2  0  0  0  0
  8  9  1  0  0  0  0
  9 17  1  0  0  0  0
  9 10  2  0  0  0  0
 18 19  1  0  0  0  0
 19 38  1  0  0  0  0
 19 20  2  0  0  0  0
 39 42  1  0  0  0  0
  8 11  1  0  0  0  0
 48 49  1  0  0  0  0
 18 21  1  0  0  0  0
 38 39  1  0  0  0  0
  7  8  1  0  0  0  0
 17 18  1  0  0  0  0
 23 33  1  0  0  0  0
 24 34  1  0  0  0  0
 25 35  1  0  0  0  0
 26 36  1  0  0  0  0
  3  4  1  0  0  0  0
  3  5  1  0  0  0  0
  3  6  1  0  0  0  0
 42 45  1  0  0  0  0
 42 46  1  0  0  0  0
 42 47  1  0  0  0  0
 11 14  1  0  0  0  0
 11 15  1  0  0  0  0
 11 16  1  0  0  0  0
 49 51  1  0  0  0  0
 49 52  1  0  0  0  0
 49 53  1  0  0  0  0
 21 31  1  0  0  0  0
 21 32  1  0  0  0  0
 39 44  1  0  0  0  0
  8 13  1  0  0  0  0
 18 30  1  0  0  0  0
 48 50  1  0  0  0  0
  7 12  1  0  0  0  0
 38 43  1  0  0  0  0
 17 29  1  0  0  0  0
 28 37  1  0  0  0  0
M  END
$$$$

  -OEChem-05262214473D

 53 53  0     1  0  0  0  0  0999 V2000
   -1.9298    0.2574    3.9747 C   0  0  0  0  0  0  0  0  0  0  0  0
   -0.9825   -0.3573    3.4990 O   0  0  0  0  0  0  0  0  0  0  0  0
   -2.3617   -0.0250    5.3754 C   0  0  0  0  0  0  0  0  0  0  0  0
   -3.1214   -0.8213    5.4288 H   0  0  0  0  0  0  0  0  0  0  0  0
   -1.5305   -0.3726    6.0097 H   0  0  0  0  0  0  0  0  0  0  0  0
   -2.7997    0.8299    5.9150 H   0  0  0  0  0  0  0  0  0  0  0  0
   -2.6795    1.2298    3.3336 N   0  0  0  0  0  0  0  0  0  0  0  0
   -2.4327    1.6559    1.9812 C   0  0  2  0  0  0  0  0  0  0  0  0
   -1.0977    1.0705    1.5400 C   0  0  0  0  0  0  0  0  0  0  0  0
   -0.2256    0.7177    2.3313 O   0  0  0  0  0  0  0  0  0  0  0  0
   -2.4239    3.1726    1.8718 C   0  0  0  0  0  0  0  0  0  0  0  0
   -3.4446    1.6657    3.8454 H   0  0  0  0  0  0  0  0  0  0  0  0
   -3.2368    1.2374    1.3661 H   0  0  0  0  0  0  0  0  0  0  0  0
   -1.6248    3.6099    2.4815 H   0  0  0  0  0  0  0  0  0  0  0  0
   -2.2644    3.4949    0.8375 H   0  0  0  0  0  0  0  0  0  0  0  0
   -3.3741    3.5939    2.2175 H   0  0  0  0  0  0  0  0  0  0  0  0
   -0.9750    1.0274    0.1566 N   0  0  0  0  0  0  0  0  0  0  0  0
    0.2023    0.5266   -0.5070 C   0  0  2  0  0  0  0  0  0  0  0  0
    0.5434    1.5085   -1.6222 C   0  0  0  0  0  0  0  0  0  0  0  0
    1.5011    2.2771   -1.5673 O   0  0  0  0  0  0  0  0  0  0  0  0
   -0.0104   -0.8789   -1.0811 C   0  0  0  0  0  0  0  0  0  0  0  0
   -0.1977   -1.9248   -0.0093 C   0  0  0  0  0  0  0  0  0  0  0  0
    0.9123   -2.4629    0.6420 C   0  0  0  0  0  0  0  0  0  0  0  0
   -1.4810   -2.3539    0.3295 C   0  0  0  0  0  0  0  0  0  0  0  0
    0.7390   -3.4300    1.6321 C   0  0  0  0  0  0  0  0  0  0  0  0
   -1.6543   -3.3211    1.3196 C   0  0  0  0  0  0  0  0  0  0  0  0
   -0.5443   -3.8591    1.9709 C   0  0  0  0  0  0  0  0  0  0  0  0
   -0.7131   -4.8037    2.9361 O   0  0  0  0  0  0  0  0  0  0  0  0
   -1.7582    1.3241   -0.4207 H   0  0  0  0  0  0  0  0  0  0  0  0
    1.0075    0.5346    0.2369 H   0  0  0  0  0  0  0  0  0  0  0  0
    0.8338   -1.1581   -1.7261 H   0  0  0  0  0  0  0  0  0  0  0  0
   -0.8914   -0.8964   -1.7362 H   0  0  0  0  0  0  0  0  0  0  0  0
    1.9156   -2.1344    0.3845 H   0  0  0  0  0  0  0  0  0  0  0  0
   -2.3517   -1.9401   -0.1727 H   0  0  0  0  0  0  0  0  0  0  0  0
    1.6077   -3.8456    2.1357 H   0  0  0  0  0  0  0  0  0  0  0  0
   -2.6563   -3.6513    1.5787 H   0  0  0  0  0  0  0  0  0  0  0  0
   -1.6566   -4.9959    3.0574 H   0  0  0  0  0  0  0  0  0  0  0  0
   -0.3189    1.3872   -2.7031 N   0  0  0  0  0  0  0  0  0  0  0  0
   -0.2039    2.1841   -3.9033 C   0  0  2  0  0  0  0  0  0  0  0  0
   -0.0931    3.6454   -3.4888 C   0  0  0  0  0  0  0  0  0  0  0  0
   -0.4932    4.0676   -2.4059 O   0  0  0  0  0  0  0  0  0  0  0  0
   -1.3935    1.9695   -4.8261 C   0  0  0  0  0  0  0  0  0  0  0  0
   -1.0685    0.7040   -2.6477 H   0  0  0  0  0  0  0  0  0  0  0  0
    0.7212    1.8740   -4.4014 H   0  0  0  0  0  0  0  0  0  0  0  0
   -2.3296    2.2745   -4.3442 H   0  0  0  0  0  0  0  0  0  0  0  0
   -1.2910    2.5520   -5.7476 H   0  0  0  0  0  0  0  0  0  0  0  0
   -1.4893    0.9131   -5.0993 H   0  0  0  0  0  0  0  0  0  0  0  0
    0.4657    4.4302   -4.4877 N   0  0  0  0  0  0  0  0  0  0  0  0
    0.6653    5.8532   -4.3412 C   0  0  0  0  0  0  0  0  0  0  0  0
    0.7863    3.9926   -5.3465 H   0  0  0  0  0  0  0  0  0  0  0  0
   -0.2092    6.3894   -4.7383 H   0  0  0  0  0  0  0  0  0  0  0  0
    0.7928    6.0977   -3.2763 H   0  0  0  0  0  0  0  0  0  0  0  0
    1.5647    6.1563   -4.8972 H   0  0  0  0  0  0  0  0  0  0  0  0
 23 25  2  0  0  0  0
 22 23  1  0  0  0  0
 24 26  1  0  0  0  0
 22 24  2  0  0  0  0
 25 27  1  0  0  0  0
 26 27  2  0  0  0  0
 21 22  1  0  0  0  0
 27 28  1  0  0  0  0
  1  3  1  0  0  0  0
  1  7  1  0  0  0  0
  1  2  2  0  0  0  0
 39 40  1  0  0  0  0
 40 48  1  0  0  0  0
 40 41  2  0  0  0  0
  8  9  1  0  0  0  0
  9 17  1  0  0  0  0
  9 10  2  0  0  0  0
 18 19  1  0  0  0  0
 19 38  1  0  0  0  0
 19 20  2  0  0  0  0
 39 42  1  0  0  0  0
  8 11  1  0  0  0  0
 48 49  1  0  0  0  0
 18 21  1  0  0  0  0
 38 39  1  0  0  0  0
  7  8  1  0  0  0  0
 17 18  1  0  0  0  0
 23 33  1  0  0  0  0
 24 34  1  0  0  0  0
 25 35  1  0  0  0  0
 26 36  1  0  0  0  0
  3  4  1  0  0  0  0
  3  5  1  0  0  0  0
  3  6  1  0  0  0  0
 42 45  1  0  0  0  0
 42 46  1  0  0  0  0
 42 47  1  0  0  0  0
 11 14  1  0  0  0  0
 11 15  1  0  0  0  0
 11 16  1  0  0  0  0
 49 51  1  0  0  0  0
 49 52  1  0  0  0  0
 49 53  1  0  0  0  0
 21 31  1  0  0  0  0
 21 32  1  0  0  0  0
 39 44  1  0  0  0  0
  8 13  1  0  0  0  0
 18 30  1  0  0  0  0
 48 50  1  0  0  0  0
  7 12  1  0  0  0  0
 38 43  1  0  0  0  0
 17 29  1  0  0  0  0
 28 37  1  0  0  0  0
M  END
$$$$

  -OEChem-05262214473D

 53 53  0     1  0  0  0  0  0999 V2000
   -1.9298    0.2574    3.9747 C   0  0  0  0  0  0  0  0  0  0  0  0
   -0.9825   -0.3573    3.4990 O   0  0  0  0  0  0  0  0  0  0  0  0
   -2.3617   -0.0250    5.3754 C   0  0  0  0  0  0  0  0  0  0  0  0
   -3.1214   -0.8213    5.4288 H   0  0  0  0  0  0  0  0  0  0  0  0
   -1.5305   -0.3726    6.0097 H   0  0  0  0  0  0  0  0  0  0  0  0
   -2.7997    0.8299    5.9150 H   0  0  0  0  0  0  0  0  0  0  0  0
   -2.6795    1.2298    3.3336 N   0  0  0  0  0  0  0  0  0  0  0  0
   -2.4327    1.6559    1.9812 C   0  0  2  0  0  0  0  0  0  0  0  0
   -1.0977    1.0705    1.5400 C   0  0  0  0  0  0  0  0  0  0  0  0
   -0.2256    0.7177    2.3313 O   0  0  0  0  0  0  0  0  0  0  0  0
   -2.4239    3.1726    1.8718 C   0  0  0  0  0  0  0  0  0  0  0  0
   -3.4446    1.6657    3.8454 H   0  0  0  0  0  0  0  0  0  0  0  0
   -3.2368    1.2374    1.3661 H   0  0  0  0  0  0  0  0  0  0  0  0
   -1.6248    3.6099    2.4815 H   0  0  0  0  0  0  0  0  0  0  0  0
   -2.2644    3.4949    0.8375 H   0  0  0  0  0  0  0  0  0  0  0  0
   -3.3741    3.5939    2.2175 H   0  0  0  0  0  0  0  0  0  0  0  0
   -0.9750    1.0274    0.1566 N   0  0  0  0  0  0  0  0  0  0  0  0
    0.2023    0.5266   -0.5070 C   0  0  2  0  0  0  0  0  0  0  0  0
    0.5434    1.5085   -1.6222 C   0  0  0  0  0  0  0  0  0  0  0  0
    1.6282    2.0811   -1.7010 O   0  0  0  0  0  0  0  0  0  0  0  0
   -0.0104   -0.8789   -1.0811 C   0  0  0  0  0  0  0  0  0  0  0  0
   -0.1977   -1.9248   -0.0093 C   0  0  0  0  0  0  0  0  0  0  0  0
    0.9123   -2.4629    0.6420 C   0  0  0  0  0  0  0  0  0  0  0  0
   -1.4810   -2.3539    0.3295 C   0  0  0  0  0  0  0  0  0  0  0  0
    0.7390   -3.4300    1.6321 C   0  0  0  0  0  0  0  0  0  0  0  0
   -1.6543   -3.3211    1.3196 C   0  0  0  0  0  0  0  0  0  0  0  0
   -0.5443   -3.8591    1.9709 C   0  0  0  0  0  0  0  0  0  0  0  0
   -0.7131   -4.8037    2.9361 O   0  0  0  0  0  0  0  0  0  0  0  0
   -1.7582    1.3241   -0.4207 H   0  0  0  0  0  0  0  0  0  0  0  0
    1.0075    0.5346    0.2369 H   0  0  0  0  0  0  0  0  0  0  0  0
    0.8338   -1.1581   -1.7261 H   0  0  0  0  0  0  0  0  0  0  0  0
   -0.8914   -0.8964   -1.7362 H   0  0  0  0  0  0  0  0  0  0  0  0
    1.9156   -2.1344    0.3845 H   0  0  0  0  0  0  0  0  0  0  0  0
   -2.3517   -1.9401   -0.1727 H   0  0  0  0  0  0  0  0  0  0  0  0
    1.6077   -3.8456    2.1357 H   0  0  0  0  0  0  0  0  0  0  0  0
   -2.6563   -3.6513    1.5787 H   0  0  0  0  0  0  0  0  0  0  0  0
   -1.6566   -4.9959    3.0574 H   0  0  0  0  0  0  0  0  0  0  0  0
   -0.4887    1.6286   -2.5425 N   0  0  0  0  0  0  0  0  0  0  0  0
   -0.4160    2.4771   -3.7102 C   0  0  2  0  0  0  0  0  0  0  0  0
    0.0418    3.8582   -3.2602 C   0  0  0  0  0  0  0  0  0  0  0  0
   -0.0888    4.2657   -2.1078 O   0  0  0  0  0  0  0  0  0  0  0  0
   -1.7575    2.5544   -4.4223 C   0  0  0  0  0  0  0  0  0  0  0  0
   -1.3378    1.0931   -2.3875 H   0  0  0  0  0  0  0  0  0  0  0  0
    0.3387    2.0394   -4.3727 H   0  0  0  0  0  0  0  0  0  0  0  0
   -2.5264    2.9904   -3.7741 H   0  0  0  0  0  0  0  0  0  0  0  0
   -1.6936    3.1746   -5.3225 H   0  0  0  0  0  0  0  0  0  0  0  0
   -2.0994    1.5570   -4.7189 H   0  0  0  0  0  0  0  0  0  0  0  0
    0.5740    4.5983   -4.3067 N   0  0  0  0  0  0  0  0  0  0  0  0
    1.0672    5.9452   -4.1373 C   0  0  0  0  0  0  0  0  0  0  0  0
    0.6609    4.1738   -5.2254 H   0  0  0  0  0  0  0  0  0  0  0  0
    0.2612    6.6614   -4.3550 H   0  0  0  0  0  0  0  0  0  0  0  0
    1.4096    6.0825   -3.1010 H   0  0  0  0  0  0  0  0  0  0  0  0
    1.9068    6.1175   -4.8268 H   0  0  0  0  0  0  0  0  0  0  0  0
 23 25  2  0  0  0  0
 22 23  1  0  0  0  0
 24 26  1  0  0  0  0
 22 24  2  0  0  0  0
 25 27  1  0  0  0  0
 26 27  2  0  0  0  0
 21 22  1  0  0  0  0
 27 28  1  0  0  0  0
  1  3  1  0  0  0  0
  1  7  1  0  0  0  0
  1  2  2  0  0  0  0
 39 40  1  0  0  0  0
 40 48  1  0  0  0  0
 40 41  2  0  0  0  0
  8  9  1  0  0  0  0
  9 17  1  0  0  0  0
  9 10  2  0  0  0  0
 18 19  1  0  0  0  0
 19 38  1  0  0  0  0
 19 20  2  0  0  0  0
 39 42  1  0  0  0  0
  8 11  1  0  0  0  0
 48 49  1  0  0  0  0
 18 21  1  0  0  0  0
 38 39  1  0  0  0  0
  7  8  1  0  0  0  0
 17 18  1  0  0  0  0
 23 33  1  0  0  0  0
 24 34  1  0  0  0  0
 25 35  1  0  0  0  0
 26 36  1  0  0  0  0
  3  4  1  0  0  0  0
  3  5  1  0  0  0  0
  3  6  1  0  0  0  0
 42 45  1  0  0  0  0
 42 46  1  0  0  0  0
 42 47  1  0  0  0  0
 11 14  1  0  0  0  0
 11 15  1  0  0  0  0
 11 16  1  0  0  0  0
 49 51  1  0  0  0  0
 49 52  1  0  0  0  0
 49 53  1  0  0  0  0
 21 31  1  0  0  0  0
 21 32  1  0  0  0  0
 39 44  1  0  0  0  0
  8 13  1  0  0  0  0
 18 30  1  0  0  0  0
 48 50  1  0  0  0  0
  7 12  1  0  0  0  0
 38 43  1  0  0  0  0
 17 29  1  0  0  0  0
 28 37  1  0  0  0  0
M  END
$$$$

  -OEChem-05262214473D

 53 53  0     1  0  0  0  0  0999 V2000
   -1.9298    0.2574    3.9747 C   0  0  0  0  0  0  0  0  0  0  0  0
   -0.9825   -0.3573    3.4990 O   0  0  0  0  0  0  0  0  0  0  0  0
   -2.3617   -0.0250    5.3754 C   0  0  0  0  0  0  0  0  0  0  0  0
   -3.1214   -0.8213    5.4288 H   0  0  0  0  0  0  0  0  0  0  0  0
   -1.5305   -0.3726    6.0097 H   0  0  0  0  0  0  0  0  0  0  0  0
   -2.7997    0.8299    5.9150 H   0  0  0  0  0  0  0  0  0  0  0  0
   -2.6795    1.2298    3.3336 N   0  0  0  0  0  0  0  0  0  0  0  0
   -2.4327    1.6559    1.9812 C   0  0  2  0  0  0  0  0  0  0  0  0
   -1.0977    1.0705    1.5400 C   0  0  0  0  0  0  0  0  0  0  0  0
   -0.2256    0.7177    2.3313 O   0  0  0  0  0  0  0  0  0  0  0  0
   -2.4239    3.1726    1.8718 C   0  0  0  0  0  0  0  0  0  0  0  0
   -3.4446    1.6657    3.8454 H   0  0  0  0  0  0  0  0  0  0  0  0
   -3.2368    1.2374    1.3661 H   0  0  0  0  0  0  0  0  0  0  0  0
   -1.6248    3.6099    2.4815 H   0  0  0  0  0  0  0  0  0  0  0  0
   -2.2644    3.4949    0.8375 H   0  0  0  0  0  0  0  0  0  0  0  0
   -3.3741    3.5939    2.2175 H   0  0  0  0  0  0  0  0  0  0  0  0
   -0.9750    1.0274    0.1566 N   0  0  0  0  0  0  0  0  0  0  0  0
    0.2023    0.5266   -0.5070 C   0  0  2  0  0  0  0  0  0  0  0  0
    0.5434    1.5085   -1.6222 C   0  0  0  0  0  0  0  0  0  0  0  0
    1.6916    1.8754   -1.8627 O   0  0  0  0  0  0  0  0  0  0  0  0
   -0.0104   -0.8789   -1.0811 C   0  0  0  0  0  0  0  0  0  0  0  0
   -0.1977   -1.9248   -0.0093 C   0  0  0  0  0  0  0  0  0  0  0  0
    0.9123   -2.4629    0.6420 C   0  0  0  0  0  0  0  0  0  0  0  0
   -1.4810   -2.3539    0.3295 C   0  0  0  0  0  0  0  0  0  0  0  0
    0.7390   -3.4300    1.6321 C   0  0  0  0  0  0  0  0  0  0  0  0
   -1.6543   -3.3211    1.3196 C   0  0  0  0  0  0  0  0  0  0  0  0
   -0.5443   -3.8591    1.9709 C   0  0  0  0  0  0  0  0  0  0  0  0
   -0.7131   -4.8037    2.9361 O   0  0  0  0  0  0  0  0  0  0  0  0
   -1.7582    1.3241   -0.4207 H   0  0  0  0  0  0  0  0  0  0  0  0
    1.0075    0.5346    0.2369 H   0  0  0  0  0  0  0  0  0  0  0  0
    0.8338   -1.1581   -1.7261 H   0  0  0  0  0  0  0  0  0  0  0  0
   -0.8914   -0.8964   -1.7362 H   0  0  0  0  0  0  0  0  0  0  0  0
    1.9156   -2.1344    0.3845 H   0  0  0  0  0  0  0  0  0  0  0  0
   -2.3517   -1.9401   -0.1727 H   0  0  0  0  0  0  0  0  0  0  0  0
    1.6077   -3.8456    2.1357 H   0  0  0  0  0  0  0  0  0  0  0  0
   -2.6563   -3.6513    1.5787 H   0  0  0  0  0  0  0  0  0  0  0  0
   -1.6566   -4.9959    3.0574 H   0  0  0  0  0  0  0  0  0  0  0  0
   -0.5802    1.8846   -2.3451 N   0  0  0  0  0  0  0  0  0  0  0  0
   -0.5332    2.7892   -3.4713 C   0  0  2  0  0  0  0  0  0  0  0  0
    0.2505    4.0250   -3.0495 C   0  0  0  0  0  0  0  0  0  0  0  0
    0.3890    4.3632   -1.8758 O   0  0  0  0  0  0  0  0  0  0  0  0
   -1.9310    3.1650   -3.9378 C   0  0  0  0  0  0  0  0  0  0  0  0
   -1.4809    1.5050   -2.0687 H   0  0  0  0  0  0  0  0  0  0  0  0
    0.0053    2.2701   -4.2716 H   0  0  0  0  0  0  0  0  0  0  0  0
   -2.4859    3.6862   -3.1491 H   0  0  0  0  0  0  0  0  0  0  0  0
   -1.8938    3.8276   -4.8088 H   0  0  0  0  0  0  0  0  0  0  0  0
   -2.5033    2.2724   -4.2126 H   0  0  0  0  0  0  0  0  0  0  0  0
    0.7407    4.7296   -4.1401 N   0  0  0  0  0  0  0  0  0  0  0  0
    1.5068    5.9461   -4.0020 C   0  0  0  0  0  0  0  0  0  0  0  0
    0.5942    4.3655   -5.0770 H   0  0  0  0  0  0  0  0  0  0  0  0
    0.8309    6.8128   -4.0474 H   0  0  0  0  0  0  0  0  0  0  0  0
    2.0317    5.9410   -3.0354 H   0  0  0  0  0  0  0  0  0  0  0  0
    2.2416    6.0112   -4.8180 H   0  0  0  0  0  0  0  0  0  0  0  0
 23 25  2  0  0  0  0
 22 23  1  0  0  0  0
 24 26  1  0  0  0  0
 22 24  2  0  0  0  0
 25 27  1  0  0  0  0
 26 27  2  0  0  0  0
 21 22  1  0  0  0  0
 27 28  1  0  0  0  0
  1  3  1  0  0  0  0
  1  7  1  0  0  0  0
  1  2  2  0  0  0  0
 39 40  1  0  0  0  0
 40 48  1  0  0  0  0
 40 41  2  0  0  0  0
  8  9  1  0  0  0  0
  9 17  1  0  0  0  0
  9 10  2  0  0  0  0
 18 19  1  0  0  0  0
 19 38  1  0  0  0  0
 19 20  2  0  0  0  0
 39 42  1  0  0  0  0
  8 11  1  0  0  0  0
 48 49  1  0  0  0  0
 18 21  1  0  0  0  0
 38 39  1  0  0  0  0
  7  8  1  0  0  0  0
 17 18  1  0  0  0  0
 23 33  1  0  0  0  0
 24 34  1  0  0  0  0
 25 35  1  0  0  0  0
 26 36  1  0  0  0  0
  3  4  1  0  0  0  0
  3  5  1  0  0  0  0
  3  6  1  0  0  0  0
 42 45  1  0  0  0  0
 42 46  1  0  0  0  0
 42 47  1  0  0  0  0
 11 14  1  0  0  0  0
 11 15  1  0  0  0  0
 11 16  1  0  0  0  0
 49 51  1  0  0  0  0
 49 52  1  0  0  0  0
 49 53  1  0  0  0  0
 21 31  1  0  0  0  0
 21 32  1  0  0  0  0
 39 44  1  0  0  0  0
  8 13  1  0  0  0  0
 18 30  1  0  0  0  0
 48 50  1  0  0  0  0
  7 12  1  0  0  0  0
 38 43  1  0  0  0  0
 17 29  1  0  0  0  0
 28 37  1  0  0  0  0
M  END
$$$$

  -OEChem-05262214473D

 53 53  0     1  0  0  0  0  0999 V2000
   -1.9298    0.2574    3.9747 C   0  0  0  0  0  0  0  0  0  0  0  0
   -0.9825   -0.3573    3.4990 O   0  0  0  0  0  0  0  0  0  0  0  0
   -2.3617   -0.0250    5.3754 C   0  0  0  0  0  0  0  0  0  0  0  0
   -3.1214   -0.8213    5.4288 H   0  0  0  0  0  0  0  0  0  0  0  0
   -1.5305   -0.3726    6.0097 H   0  0  0  0  0  0  0  0  0  0  0  0
   -2.7997    0.8299    5.9150 H   0  0  0  0  0  0  0  0  0  0  0  0
   -2.6795    1.2298    3.3336 N   0  0  0  0  0  0  0  0  0  0  0  0
   -2.4327    1.6559    1.9812 C   0  0  2  0  0  0  0  0  0  0  0  0
   -1.0977    1.0705    1.5400 C   0  0  0  0  0  0  0  0  0  0  0  0
   -0.2256    0.7177    2.3313 O   0  0  0  0  0  0  0  0  0  0  0  0
   -2.4239    3.1726    1.8718 C   0  0  0  0  0  0  0  0  0  0  0  0
   -3.4446    1.6657    3.8454 H   0  0  0  0  0  0  0  0  0  0  0  0
   -3.2368    1.2374    1.3661 H   0  0  0  0  0  0  0  0  0  0  0  0
   -1.6248    3.6099    2.4815 H   0  0  0  0  0  0  0  0  0  0  0  0
   -2.2644    3.4949    0.8375 H   0  0  0  0  0  0  0  0  0  0  0  0
   -3.3741    3.5939    2.2175 H   0  0  0  0  0  0  0  0  0  0  0  0
   -0.9750    1.0274    0.1566 N   0  0  0  0  0  0  0  0  0  0  0  0
    0.2023    0.5266   -0.5070 C   0  0  2  0  0  0  0  0  0  0  0  0
    0.5434    1.5085   -1.6222 C   0  0  0  0  0  0  0  0  0  0  0  0
    1.6870    1.6741   -2.0413 O   0  0  0  0  0  0  0  0  0  0  0  0
   -0.0104   -0.8789   -1.0811 C   0  0  0  0  0  0  0  0  0  0  0  0
   -0.1977   -1.9248   -0.0093 C   0  0  0  0  0  0  0  0  0  0  0  0
    0.9123   -2.4629    0.6420 C   0  0  0  0  0  0  0  0  0  0  0  0
   -1.4810   -2.3539    0.3295 C   0  0  0  0  0  0  0  0  0  0  0  0
    0.7390   -3.4300    1.6321 C   0  0  0  0  0  0  0  0  0  0  0  0
   -1.6543   -3.3211    1.3196 C   0  0  0  0  0  0  0  0  0  0  0  0
   -0.5443   -3.8591    1.9709 C   0  0  0  0  0  0  0  0  0  0  0  0
   -0.7131   -4.8037    2.9361 O   0  0  0  0  0  0  0  0  0  0  0  0
   -1.7582    1.3241   -0.4207 H   0  0  0  0  0  0  0  0  0  0  0  0
    1.0075    0.5346    0.2369 H   0  0  0  0  0  0  0  0  0  0  0  0
    0.8338   -1.1581   -1.7261 H   0  0  0  0  0  0  0  0  0  0  0  0
   -0.8914   -0.8964   -1.7362 H   0  0  0  0  0  0  0  0  0  0  0  0
    1.9156   -2.1344    0.3845 H   0  0  0  0  0  0  0  0  0  0  0  0
   -2.3517   -1.9401   -0.1727 H   0  0  0  0  0  0  0  0  0  0  0  0
    1.6077   -3.8456    2.1357 H   0  0  0  0  0  0  0  0  0  0  0  0
   -2.6563   -3.6513    1.5787 H   0  0  0  0  0  0  0  0  0  0  0  0
   -1.6566   -4.9959    3.0574 H   0  0  0  0  0  0  0  0  0  0  0  0
   -0.5873    2.1378   -2.1243 N   0  0  0  0  0  0  0  0  0  0  0  0
   -0.5475    3.0989   -3.2029 C   0  0  2  0  0  0  0  0  0  0  0  0
    0.5188    4.1344   -2.8711 C   0  0  0  0  0  0  0  0  0  0  0  0
    0.9076    4.3535   -1.7257 O   0  0  0  0  0  0  0  0  0  0  0  0
   -1.9022    3.7596   -3.4055 C   0  0  0  0  0  0  0  0  0  0  0  0
   -1.4880    1.9114   -1.7130 H   0  0  0  0  0  0  0  0  0  0  0  0
   -0.2563    2.5501   -4.1051 H   0  0  0  0  0  0  0  0  0  0  0  0
   -2.2109    4.3143   -2.5119 H   0  0  0  0  0  0  0  0  0  0  0  0
   -1.8779    4.4665   -4.2414 H   0  0  0  0  0  0  0  0  0  0  0  0
   -2.6737    3.0106   -3.6147 H   0  0  0  0  0  0  0  0  0  0  0  0
    0.9543    4.8152   -3.9994 N   0  0  0  0  0  0  0  0  0  0  0  0
    1.9541    5.8560   -3.9445 C   0  0  0  0  0  0  0  0  0  0  0  0
    0.5909    4.5546   -4.9114 H   0  0  0  0  0  0  0  0  0  0  0  0
    1.4612    6.8334   -3.8365 H   0  0  0  0  0  0  0  0  0  0  0  0
    2.6168    5.6826   -3.0838 H   0  0  0  0  0  0  0  0  0  0  0  0
    2.5463    5.8446   -4.8714 H   0  0  0  0  0  0  0  0  0  0  0  0
 23 25  2  0  0  0  0
 22 23  1  0  0  0  0
 24 26  1  0  0  0  0
 22 24  2  0  0  0  0
 25 27  1  0  0  0  0
 26 27  2  0  0  0  0
 21 22  1  0  0  0  0
 27 28  1  0  0  0  0
  1  3  1  0  0  0  0
  1  7  1  0  0  0  0
  1  2  2  0  0  0  0
 39 40  1  0  0  0  0
 40 48  1  0  0  0  0
 40 41  2  0  0  0  0
  8  9  1  0  0  0  0
  9 17  1  0  0  0  0
  9 10  2  0  0  0  0
 18 19  1  0  0  0  0
 19 38  1  0  0  0  0
 19 20  2  0  0  0  0
 39 42  1  0  0  0  0
  8 11  1  0  0  0  0
 48 49  1  0  0  0  0
 18 21  1  0  0  0  0
 38 39  1  0  0  0  0
  7  8  1  0  0  0  0
 17 18  1  0  0  0  0
 23 33  1  0  0  0  0
 24 34  1  0  0  0  0
 25 35  1  0  0  0  0
 26 36  1  0  0  0  0
  3  4  1  0  0  0  0
  3  5  1  0  0  0  0
  3  6  1  0  0  0  0
 42 45  1  0  0  0  0
 42 46  1  0  0  0  0
 42 47  1  0  0  0  0
 11 14  1  0  0  0  0
 11 15  1  0  0  0  0
 11 16  1  0  0  0  0
 49 51  1  0  0  0  0
 49 52  1  0  0  0  0
 49 53  1  0  0  0  0
 21 31  1  0  0  0  0
 21 32  1  0  0  0  0
 39 44  1  0  0  0  0
  8 13  1  0  0  0  0
 18 30  1  0  0  0  0
 48 50  1  0  0  0  0
  7 12  1  0  0  0  0
 38 43  1  0  0  0  0
 17 29  1  0  0  0  0
 28 37  1  0  0  0  0
M  END
$$$$

  -OEChem-05262214473D

 53 53  0     1  0  0  0  0  0999 V2000
   -1.9298    0.2574    3.9747 C   0  0  0  0  0  0  0  0  0  0  0  0
   -0.9825   -0.3573    3.4990 O   0  0  0  0  0  0  0  0  0  0  0  0
   -2.3617   -0.0250    5.3754 C   0  0  0  0  0  0  0  0  0  0  0  0
   -3.1214   -0.8213    5.4288 H   0  0  0  0  0  0  0  0  0  0  0  0
   -1.5305   -0.3726    6.0097 H   0  0  0  0  0  0  0  0  0  0  0  0
   -2.7997    0.8299    5.9150 H   0  0  0  0  0  0  0  0  0  0  0  0
   -2.6795    1.2298    3.3336 N   0  0  0  0  0  0  0  0  0  0  0  0
   -2.4327    1.6559    1.9812 C   0  0  2  0  0  0  0  0  0  0  0  0
   -1.0977    1.0705    1.5400 C   0  0  0  0  0  0  0  0  0  0  0  0
   -0.2256    0.7177    2.3313 O   0  0  0  0  0  0  0  0  0  0  0  0
   -2.4239    3.1726    1.8718 C   0  0  0  0  0  0  0  0  0  0  0  0
   -3.4446    1.6657    3.8454 H   0  0  0  0  0  0  0  0  0  0  0  0
   -3.2368    1.2374    1.3661 H   0  0  0  0  0  0  0  0  0  0  0  0
   -1.6248    3.6099    2.4815 H   0  0  0  0  0  0  0  0  0  0  0  0
   -2.2644    3.4949    0.8375 H   0  0  0  0  0  0  0  0  0  0  0  0
   -3.3741    3.5939    2.2175 H   0  0  0  0  0  0  0  0  0  0  0  0
   -0.9750    1.0274    0.1566 N   0  0  0  0  0  0  0  0  0  0  0  0
    0.2023    0.5266   -0.5070 C   0  0  2  0  0  0  0  0  0  0  0  0
    0.5434    1.5085   -1.6222 C   0  0  0  0  0  0  0  0  0  0  0  0
    1.6146    1.4909   -2.2248 O   0  0  0  0  0  0  0  0  0  0  0  0
   -0.0104   -0.8789   -1.0811 C   0  0  0  0  0  0  0  0  0  0  0  0
   -0.1977   -1.9248   -0.0093 C   0  0  0  0  0  0  0  0  0  0  0  0
    0.9123   -2.4629    0.6420 C   0  0  0  0  0  0  0  0  0  0  0  0
   -1.4810   -2.3539    0.3295 C   0  0  0  0  0  0  0  0  0  0  0  0
    0.7390   -3.4300    1.6321 C   0  0  0  0  0  0  0  0  0  0  0  0
   -1.6543   -3.3211    1.3196 C   0  0  0  0  0  0  0  0  0  0  0  0
   -0.5443   -3.8591    1.9709 C   0  0  0  0  0  0  0  0  0  0  0  0
   -0.7131   -4.8037    2.9361 O   0  0  0  0  0  0  0  0  0  0  0  0
   -1.7582    1.3241   -0.4207 H   0  0  0  0  0  0  0  0  0  0  0  0
    1.0075    0.5346    0.2369 H   0  0  0  0  0  0  0  0  0  0  0  0
    0.8338   -1.1581   -1.7261 H   0  0  0  0  0  0  0  0  0  0  0  0
   -0.8914   -0.8964   -1.7362 H   0  0  0  0  0  0  0  0  0  0  0  0
    1.9156   -2.1344    0.3845 H   0  0  0  0  0  0  0  0  0  0  0  0
   -2.3517   -1.9401   -0.1727 H   0  0  0  0  0  0  0  0  0  0  0  0
    1.6077   -3.8456    2.1357 H   0  0  0  0  0  0  0  0  0  0  0  0
   -2.6563   -3.6513    1.5787 H   0  0  0  0  0  0  0  0  0  0  0  0
   -1.6566   -4.9959    3.0574 H   0  0  0  0  0  0  0  0  0  0  0  0
   -0.5094    2.3709   -1.8952 N   0  0  0  0  0  0  0  0  0  0  0  0
   -0.4580    3.3853   -2.9234 C   0  0  2  0  0  0  0  0  0  0  0  0
    0.8285    4.1789   -2.7371 C   0  0  0  0  0  0  0  0  0  0  0  0
    1.4318    4.2373   -1.6677 O   0  0  0  0  0  0  0  0  0  0  0  0
   -1.6732    4.2976   -2.8617 C   0  0  0  0  0  0  0  0  0  0  0  0
   -1.3586    2.2847   -1.3447 H   0  0  0  0  0  0  0  0  0  0  0  0
   -0.4281    2.8604   -3.8844 H   0  0  0  0  0  0  0  0  0  0  0  0
   -1.7201    4.8321   -1.9059 H   0  0  0  0  0  0  0  0  0  0  0  0
   -1.6469    5.0478   -3.6590 H   0  0  0  0  0  0  0  0  0  0  0  0
   -2.5988    3.7214   -2.9660 H   0  0  0  0  0  0  0  0  0  0  0  0
    1.2002    4.8493   -3.8941 N   0  0  0  0  0  0  0  0  0  0  0  0
    2.3787    5.6809   -3.9688 C   0  0  0  0  0  0  0  0  0  0  0  0
    0.6511    4.7284   -4.7400 H   0  0  0  0  0  0  0  0  0  0  0  0
    2.1090    6.7218   -3.7367 H   0  0  0  0  0  0  0  0  0  0  0  0
    3.1250    5.3251   -3.2432 H   0  0  0  0  0  0  0  0  0  0  0  0
    2.8002    5.6291   -4.9835 H   0  0  0  0  0  0  0  0  0  0  0  0
 23 25  2  0  0  0  0
 22 23  1  0  0  0  0
 24 26  1  0  0  0  0
 22 24  2  0  0  0  0
 25 27  1  0  0  0  0
 26 27  2  0  0  0  0
 21 22  1  0  0  0  0
 27 28  1  0  0  0  0
  1  3  1  0  0  0  0
  1  7  1  0  0  0  0
  1  2  2  0  0  0  0
 39 40  1  0  0  0  0
 40 48  1  0  0  0  0
 40 41  2  0  0  0  0
  8  9  1  0  0  0  0
  9 17  1  0  0  0  0
  9 10  2  0  0  0  0
 18 19  1  0  0  0  0
 19 38  1  0  0  0  0
 19 20  2  0  0  0  0
 39 42  1  0  0  0  0
  8 11  1  0  0  0  0
 48 49  1  0  0  0  0
 18 21  1  0  0  0  0
 38 39  1  0  0  0  0
  7  8  1  0  0  0  0
 17 18  1  0  0  0  0
 23 33  1  0  0  0  0
 24 34  1  0  0  0  0
 25 35  1  0  0  0  0
 26 36  1  0  0  0  0
  3  4  1  0  0  0  0
  3  5  1  0  0  0  0
  3  6  1  0  0  0  0
 42 45  1  0  0  0  0
 42 46  1  0  0  0  0
 42 47  1  0  0  0  0
 11 14  1  0  0  0  0
 11 15  1  0  0  0  0
 11 16  1  0  0  0  0
 49 51  1  0  0  0  0
 49 52  1  0  0  0  0
 49 53  1  0  0  0  0
 21 31  1  0  0  0  0
 21 32  1  0  0  0  0
 39 44  1  0  0  0  0
  8 13  1  0  0  0  0
 18 30  1  0  0  0  0
 48 50  1  0  0  0  0
  7 12  1  0  0  0  0
 38 43  1  0  0  0  0
 17 29  1  0  0  0  0
 28 37  1  0  0  0  0
M  END
$$$$

  -OEChem-05262214473D

 53 53  0     1  0  0  0  0  0999 V2000
   -1.9298    0.2574    3.9747 C   0  0  0  0  0  0  0  0  0  0  0  0
   -0.9825   -0.3573    3.4990 O   0  0  0  0  0  0  0  0  0  0  0  0
   -2.3617   -0.0250    5.3754 C   0  0  0  0  0  0  0  0  0  0  0  0
   -3.1214   -0.8213    5.4288 H   0  0  0  0  0  0  0  0  0  0  0  0
   -1.5305   -0.3726    6.0097 H   0  0  0  0  0  0  0  0  0  0  0  0
   -2.7997    0.8299    5.9150 H   0  0  0  0  0  0  0  0  0  0  0  0
   -2.6795    1.2298    3.3336 N   0  0  0  0  0  0  0  0  0  0  0  0
   -2.4327    1.6559    1.9812 C   0  0  2  0  0  0  0  0  0  0  0  0
   -1.0977    1.0705    1.5400 C   0  0  0  0  0  0  0  0  0  0  0  0
   -0.2256    0.7177    2.3313 O   0  0  0  0  0  0  0  0  0  0  0  0
   -2.4239    3.1726    1.8718 C   0  0  0  0  0  0  0  0  0  0  0  0
   -3.4446    1.6657    3.8454 H   0  0  0  0  0  0  0  0  0  0  0  0
   -3.2368    1.2374    1.3661 H   0  0  0  0  0  0  0  0  0  0  0  0
   -1.6248    3.6099    2.4815 H   0  0  0  0  0  0  0  0  0  0  0  0
   -2.2644    3.4949    0.8375 H   0  0  0  0  0  0  0  0  0  0  0  0
   -3.3741    3.5939    2.2175 H   0  0  0  0  0  0  0  0  0  0  0  0
   -0.9750    1.0274    0.1566 N   0  0  0  0  0  0  0  0  0  0  0  0
    0.2023    0.5266   -0.5070 C   0  0  2  0  0  0  0  0  0  0  0  0
    0.5434    1.5085   -1.6222 C   0  0  0  0  0  0  0  0  0  0  0  0
    1.4794    1.3383   -2.4005 O   0  0  0  0  0  0  0  0  0  0  0  0
   -0.0104   -0.8789   -1.0811 C   0  0  0  0  0  0  0  0  0  0  0  0
   -0.1977   -1.9248   -0.0093 C   0  0  0  0  0  0  0  0  0  0  0  0
    0.9123   -2.4629    0.6420 C   0  0  0  0  0  0  0  0  0  0  0  0
   -1.4810   -2.3539    0.3295 C   0  0  0  0  0  0  0  0  0  0  0  0
    0.7390   -3.4300    1.6321 C   0  0  0  0  0  0  0  0  0  0  0  0
   -1.6543   -3.3211    1.3196 C   0  0  0  0  0  0  0  0  0  0  0  0
   -0.5443   -3.8591    1.9709 C   0  0  0  0  0  0  0  0  0  0  0  0
   -0.7131   -4.8037    2.9361 O   0  0  0  0  0  0  0  0  0  0  0  0
   -1.7582    1.3241   -0.4207 H   0  0  0  0  0  0  0  0  0  0  0  0
    1.0075    0.5346    0.2369 H   0  0  0  0  0  0  0  0  0  0  0  0
    0.8338   -1.1581   -1.7261 H   0  0  0  0  0  0  0  0  0  0  0  0
   -0.8914   -0.8964   -1.7362 H   0  0  0  0  0  0  0  0  0  0  0  0
    1.9156   -2.1344    0.3845 H   0  0  0  0  0  0  0  0  0  0  0  0
   -2.3517   -1.9401   -0.1727 H   0  0  0  0  0  0  0  0  0  0  0  0
    1.6077   -3.8456    2.1357 H   0  0  0  0  0  0  0  0  0  0  0  0
   -2.6563   -3.6513    1.5787 H   0  0  0  0  0  0  0  0  0  0  0  0
   -1.6566   -4.9959    3.0574 H   0  0  0  0  0  0  0  0  0  0  0  0
   -0.3518    2.5680   -1.6735 N   0  0  0  0  0  0  0  0  0  0  0  0
   -0.2707    3.6288   -2.6517 C   0  0  2  0  0  0  0  0  0  0  0  0
    1.1583    4.1556   -2.6568 C   0  0  0  0  0  0  0  0  0  0  0  0
    1.9258    4.0224   -1.7058 O   0  0  0  0  0  0  0  0  0  0  0  0
   -1.2594    4.7425   -2.3435 C   0  0  0  0  0  0  0  0  0  0  0  0
   -1.1016    2.5994   -0.9890 H   0  0  0  0  0  0  0  0  0  0  0  0
   -0.4985    3.1799   -3.6246 H   0  0  0  0  0  0  0  0  0  0  0  0
   -1.0469    5.2043   -1.3724 H   0  0  0  0  0  0  0  0  0  0  0  0
   -1.2167    5.5318   -3.1012 H   0  0  0  0  0  0  0  0  0  0  0  0
   -2.2838    4.3561   -2.3108 H   0  0  0  0  0  0  0  0  0  0  0  0
    1.4619    4.8296   -3.8314 N   0  0  0  0  0  0  0  0  0  0  0  0
    2.7517    5.4328   -4.0732 C   0  0  0  0  0  0  0  0  0  0  0  0
    0.7707    4.8750   -4.5744 H   0  0  0  0  0  0  0  0  0  0  0  0
    2.7303    6.4855   -3.7547 H   0  0  0  0  0  0  0  0  0  0  0  0
    3.5216    4.8928   -3.5025 H   0  0  0  0  0  0  0  0  0  0  0  0
    2.9860    5.3793   -5.1466 H   0  0  0  0  0  0  0  0  0  0  0  0
 23 25  2  0  0  0  0
 22 23  1  0  0  0  0
 24 26  1  0  0  0  0
 22 24  2  0  0  0  0
 25 27  1  0  0  0  0
 26 27  2  0  0  0  0
 21 22  1  0  0  0  0
 27 28  1  0  0  0  0
  1  3  1  0  0  0  0
  1  7  1  0  0  0  0
  1  2  2  0  0  0  0
 39 40  1  0  0  0  0
 40 48  1  0  0  0  0
 40 41  2  0  0  0  0
  8  9  1  0  0  0  0
  9 17  1  0  0  0  0
  9 10  2  0  0  0  0
 18 19  1  0  0  0  0
 19 38  1  0  0  0  0
 19 20  2  0  0  0  0
 39 42  1  0  0  0  0
  8 11  1  0  0  0  0
 48 49  1  0  0  0  0
 18 21  1  0  0  0  0
 38 39  1  0  0  0  0
  7  8  1  0  0  0  0
 17 18  1  0  0  0  0
 23 33  1  0  0  0  0
 24 34  1  0  0  0  0
 25 35  1  0  0  0  0
 26 36  1  0  0  0  0
  3  4  1  0  0  0  0
  3  5  1  0  0  0  0
  3  6  1  0  0  0  0
 42 45  1  0  0  0  0
 42 46  1  0  0  0  0
 42 47  1  0  0  0  0
 11 14  1  0  0  0  0
 11 15  1  0  0  0  0
 11 16  1  0  0  0  0
 49 51  1  0  0  0  0
 49 52  1  0  0  0  0
 49 53  1  0  0  0  0
 21 31  1  0  0  0  0
 21 32  1  0  0  0  0
 39 44  1  0  0  0  0
  8 13  1  0  0  0  0
 18 30  1  0  0  0  0
 48 50  1  0  0  0  0
  7 12  1  0  0  0  0
 38 43  1  0  0  0  0
 17 29  1  0  0  0  0
 28 37  1  0  0  0  0
M  END
$$$$

  -OEChem-05262214473D

 53 53  0     1  0  0  0  0  0999 V2000
   -1.9298    0.2574    3.9747 C   0  0  0  0  0  0  0  0  0  0  0  0
   -0.9825   -0.3573    3.4990 O   0  0  0  0  0  0  0  0  0  0  0  0
   -2.3617   -0.0250    5.3754 C   0  0  0  0  0  0  0  0  0  0  0  0
   -3.1214   -0.8213    5.4288 H   0  0  0  0  0  0  0  0  0  0  0  0
   -1.5305   -0.3726    6.0097 H   0  0  0  0  0  0  0  0  0  0  0  0
   -2.7997    0.8299    5.9150 H   0  0  0  0  0  0  0  0  0  0  0  0
   -2.6795    1.2298    3.3336 N   0  0  0  0  0  0  0  0  0  0  0  0
   -2.4327    1.6559    1.9812 C   0  0  2  0  0  0  0  0  0  0  0  0
   -1.0977    1.0705    1.5400 C   0  0  0  0  0  0  0  0  0  0  0  0
   -0.2256    0.7177    2.3313 O   0  0  0  0  0  0  0  0  0  0  0  0
   -2.4239    3.1726    1.8718 C   0  0  0  0  0  0  0  0  0  0  0  0
   -3.4446    1.6657    3.8454 H   0  0  0  0  0  0  0  0  0  0  0  0
   -3.2368    1.2374    1.3661 H   0  0  0  0  0  0  0  0  0  0  0  0
   -1.6248    3.6099    2.4815 H   0  0  0  0  0  0  0  0  0  0  0  0
   -2.2644    3.4949    0.8375 H   0  0  0  0  0  0  0  0  0  0  0  0
   -3.3741    3.5939    2.2175 H   0  0  0  0  0  0  0  0  0  0  0  0
   -0.9750    1.0274    0.1566 N   0  0  0  0  0  0  0  0  0  0  0  0
    0.2023    0.5266   -0.5070 C   0  0  2  0  0  0  0  0  0  0  0  0
    0.5434    1.5085   -1.6222 C   0  0  0  0  0  0  0  0  0  0  0  0
    1.2907    1.2266   -2.5566 O   0  0  0  0  0  0  0  0  0  0  0  0
   -0.0104   -0.8789   -1.0811 C   0  0  0  0  0  0  0  0  0  0  0  0
   -0.1977   -1.9248   -0.0093 C   0  0  0  0  0  0  0  0  0  0  0  0
    0.9123   -2.4629    0.6420 C   0  0  0  0  0  0  0  0  0  0  0  0
   -1.4810   -2.3539    0.3295 C   0  0  0  0  0  0  0  0  0  0  0  0
    0.7390   -3.4300    1.6321 C   0  0  0  0  0  0  0  0  0  0  0  0
   -1.6543   -3.3211    1.3196 C   0  0  0  0  0  0  0  0  0  0  0  0
   -0.5443   -3.8591    1.9709 C   0  0  0  0  0  0  0  0  0  0  0  0
   -0.7131   -4.8037    2.9361 O   0  0  0  0  0  0  0  0  0  0  0  0
   -1.7582    1.3241   -0.4207 H   0  0  0  0  0  0  0  0  0  0  0  0
    1.0075    0.5346    0.2369 H   0  0  0  0  0  0  0  0  0  0  0  0
    0.8338   -1.1581   -1.7261 H   0  0  0  0  0  0  0  0  0  0  0  0
   -0.8914   -0.8964   -1.7362 H   0  0  0  0  0  0  0  0  0  0  0  0
    1.9156   -2.1344    0.3845 H   0  0  0  0  0  0  0  0  0  0  0  0
   -2.3517   -1.9401   -0.1727 H   0  0  0  0  0  0  0  0  0  0  0  0
    1.6077   -3.8456    2.1357 H   0  0  0  0  0  0  0  0  0  0  0  0
   -2.6563   -3.6513    1.5787 H   0  0  0  0  0  0  0  0  0  0  0  0
   -1.6566   -4.9959    3.0574 H   0  0  0  0  0  0  0  0  0  0  0  0
   -0.1252    2.7158   -1.4741 N   0  0  0  0  0  0  0  0  0  0  0  0
    0.0017    3.8128   -2.4064 C   0  0  2  0  0  0  0  0  0  0  0  0
    1.4859    4.0659   -2.6356 C   0  0  0  0  0  0  0  0  0  0  0  0
    2.3558    3.7235   -1.8374 O   0  0  0  0  0  0  0  0  0  0  0  0
   -0.6891    5.0638   -1.8861 C   0  0  0  0  0  0  0  0  0  0  0  0
   -0.7344    2.8342   -0.6700 H   0  0  0  0  0  0  0  0  0  0  0  0
   -0.4628    3.4869   -3.3434 H   0  0  0  0  0  0  0  0  0  0  0  0
   -0.2373    5.4054   -0.9477 H   0  0  0  0  0  0  0  0  0  0  0  0
   -0.6166    5.8856   -2.6062 H   0  0  0  0  0  0  0  0  0  0  0  0
   -1.7501    4.8716   -1.6936 H   0  0  0  0  0  0  0  0  0  0  0  0
    1.7213    4.7574   -3.8156 N   0  0  0  0  0  0  0  0  0  0  0  0
    3.0476    5.1286   -4.2505 C   0  0  0  0  0  0  0  0  0  0  0  0
    0.9416    4.9843   -4.4259 H   0  0  0  0  0  0  0  0  0  0  0  0
    3.2826    6.1407   -3.8893 H   0  0  0  0  0  0  0  0  0  0  0  0
    3.7796    4.4152   -3.8441 H   0  0  0  0  0  0  0  0  0  0  0  0
    3.0909    5.1124   -5.3495 H   0  0  0  0  0  0  0  0  0  0  0  0
 23 25  2  0  0  0  0
 22 23  1  0  0  0  0
 24 26  1  0  0  0  0
 22 24  2  0  0  0  0
 25 27  1  0  0  0  0
 26 27  2  0  0  0  0
 21 22  1  0  0  0  0
 27 28  1  0  0  0  0
  1  3  1  0  0  0  0
  1  7  1  0  0  0  0
  1  2  2  0  0  0  0
 39 40  1  0  0  0  0
 40 48  1  0  0  0  0
 40 41  2  0  0  0  0
  8  9  1  0  0  0  0
  9 17  1  0  0  0  0
  9 10  2  0  0  0  0
 18 19  1  0  0  0  0
 19 38  1  0  0  0  0
 19 20  2  0  0  0  0
 39 42  1  0  0  0  0
  8 11  1  0  0  0  0
 48 49  1  0  0  0  0
 18 21  1  0  0  0  0
 38 39  1  0  0  0  0
  7  8  1  0  0  0  0
 17 18  1  0  0  0  0
 23 33  1  0  0  0  0
 24 34  1  0  0  0  0
 25 35  1  0  0  0  0
 26 36  1  0  0  0  0
  3  4  1  0  0  0  0
  3  5  1  0  0  0  0
  3  6  1  0  0  0  0
 42 45  1  0  0  0  0
 42 46  1  0  0  0  0
 42 47  1  0  0  0  0
 11 14  1  0  0  0  0
 11 15  1  0  0  0  0
 11 16  1  0  0  0  0
 49 51  1  0  0  0  0
 49 52  1  0  0  0  0
 49 53  1  0  0  0  0
 21 31  1  0  0  0  0
 21 32  1  0  0  0  0
 39 44  1  0  0  0  0
  8 13  1  0  0  0  0
 18 30  1  0  0  0  0
 48 50  1  0  0  0  0
  7 12  1  0  0  0  0
 38 43  1  0  0  0  0
 17 29  1  0  0  0  0
 28 37  1  0  0  0  0
M  END
$$$$

  -OEChem-05262214473D

 53 53  0     1  0  0  0  0  0999 V2000
   -1.9298    0.2574    3.9747 C   0  0  0  0  0  0  0  0  0  0  0  0
   -0.9825   -0.3573    3.4990 O   0  0  0  0  0  0  0  0  0  0  0  0
   -2.3617   -0.0250    5.3754 C   0  0  0  0  0  0  0  0  0  0  0  0
   -3.1214   -0.8213    5.4288 H   0  0  0  0  0  0  0  0  0  0  0  0
   -1.5305   -0.3726    6.0097 H   0  0  0  0  0  0  0  0  0  0  0  0
   -2.7997    0.8299    5.9150 H   0  0  0  0  0  0  0  0  0  0  0  0
   -2.6795    1.2298    3.3336 N   0  0  0  0  0  0  0  0  0  0  0  0
   -2.4327    1.6559    1.9812 C   0  0  2  0  0  0  0  0  0  0  0  0
   -1.0977    1.0705    1.5400 C   0  0  0  0  0  0  0  0  0  0  0  0
   -0.2256    0.7177    2.3313 O   0  0  0  0  0  0  0  0  0  0  0  0
   -2.4239    3.1726    1.8718 C   0  0  0  0  0  0  0  0  0  0  0  0
   -3.4446    1.6657    3.8454 H   0  0  0  0  0  0  0  0  0  0  0  0
   -3.2368    1.2374    1.3661 H   0  0  0  0  0  0  0  0  0  0  0  0
   -1.6248    3.6099    2.4815 H   0  0  0  0  0  0  0  0  0  0  0  0
   -2.2644    3.4949    0.8375 H   0  0  0  0  0  0  0  0  0  0  0  0
   -3.3741    3.5939    2.2175 H   0  0  0  0  0  0  0  0  0  0  0  0
   -0.9750    1.0274    0.1566 N   0  0  0  0  0  0  0  0  0  0  0  0
    0.2023    0.5266   -0.5070 C   0  0  2  0  0  0  0  0  0  0  0  0
    0.5434    1.5085   -1.6222 C   0  0  0  0  0  0  0  0  0  0  0  0
    1.0612    1.1635   -2.6823 O   0  0  0  0  0  0  0  0  0  0  0  0
   -0.0104   -0.8789   -1.0811 C   0  0  0  0  0  0  0  0  0  0  0  0
   -0.1977   -1.9248   -0.0093 C   0  0  0  0  0  0  0  0  0  0  0  0
    0.9123   -2.4629    0.6420 C   0  0  0  0  0  0  0  0  0  0  0  0
   -1.4810   -2.3539    0.3295 C   0  0  0  0  0  0  0  0  0  0  0  0
    0.7390   -3.4300    1.6321 C   0  0  0  0  0  0  0  0  0  0  0  0
   -1.6543   -3.3211    1.3196 C   0  0  0  0  0  0  0  0  0  0  0  0
   -0.5443   -3.8591    1.9709 C   0  0  0  0  0  0  0  0  0  0  0  0
   -0.7131   -4.8037    2.9361 O   0  0  0  0  0  0  0  0  0  0  0  0
   -1.7582    1.3241   -0.4207 H   0  0  0  0  0  0  0  0  0  0  0  0
    1.0075    0.5346    0.2369 H   0  0  0  0  0  0  0  0  0  0  0  0
    0.8338   -1.1581   -1.7261 H   0  0  0  0  0  0  0  0  0  0  0  0
   -0.8914   -0.8964   -1.7362 H   0  0  0  0  0  0  0  0  0  0  0  0
    1.9156   -2.1344    0.3845 H   0  0  0  0  0  0  0  0  0  0  0  0
   -2.3517   -1.9401   -0.1727 H   0  0  0  0  0  0  0  0  0  0  0  0
    1.6077   -3.8456    2.1357 H   0  0  0  0  0  0  0  0  0  0  0  0
   -2.6563   -3.6513    1.5787 H   0  0  0  0  0  0  0  0  0  0  0  0
   -1.6566   -4.9959    3.0574 H   0  0  0  0  0  0  0  0  0  0  0  0
    0.1548    2.8040   -1.3107 N   0  0  0  0  0  0  0  0  0  0  0  0
    0.3405    3.9248   -2.2042 C   0  0  2  0  0  0  0  0  0  0  0  0
    1.7889    3.9160   -2.6748 C   0  0  0  0  0  0  0  0  0  0  0  0
    2.6927    3.3610   -2.0535 O   0  0  0  0  0  0  0  0  0  0  0  0
   -0.0011    5.2397   -1.5208 C   0  0  0  0  0  0  0  0  0  0  0  0
   -0.2821    2.9730   -0.4094 H   0  0  0  0  0  0  0  0  0  0  0  0
   -0.3233    3.7603   -3.0600 H   0  0  0  0  0  0  0  0  0  0  0  0
    0.6535    5.4217   -0.6607 H   0  0  0  0  0  0  0  0  0  0  0  0
    0.1126    6.0850   -2.2075 H   0  0  0  0  0  0  0  0  0  0  0  0
   -1.0341    5.2328   -1.1566 H   0  0  0  0  0  0  0  0  0  0  0  0
    1.9608    4.6376   -3.8478 N   0  0  0  0  0  0  0  0  0  0  0  0
    3.2462    4.7890   -4.4888 C   0  0  0  0  0  0  0  0  0  0  0  0
    1.1521    5.0489   -4.3046 H   0  0  0  0  0  0  0  0  0  0  0  0
    3.7284    5.7108   -4.1314 H   0  0  0  0  0  0  0  0  0  0  0  0
    3.8815    3.9247   -4.2448 H   0  0  0  0  0  0  0  0  0  0  0  0
    3.1079    4.8464   -5.5785 H   0  0  0  0  0  0  0  0  0  0  0  0
 23 25  2  0  0  0  0
 22 23  1  0  0  0  0
 24 26  1  0  0  0  0
 22 24  2  0  0  0  0
 25 27  1  0  0  0  0
 26 27  2  0  0  0  0
 21 22  1  0  0  0  0
 27 28  1  0  0  0  0
  1  3  1  0  0  0  0
  1  7  1  0  0  0  0
  1  2  2  0  0  0  0
 39 40  1  0  0  0  0
 40 48  1  0  0  0  0
 40 41  2  0  0  0  0
  8  9  1  0  0  0  0
  9 17  1  0  0  0  0
  9 10  2  0  0  0  0
 18 19  1  0  0  0  0
 19 38  1  0  0  0  0
 19 20  2  0  0  0  0
 39 42  1  0  0  0  0
  8 11  1  0  0  0  0
 48 49  1  0  0  0  0
 18 21  1  0  0  0  0
 38 39  1  0  0  0  0
  7  8  1  0  0  0  0
 17 18  1  0  0  0  0
 23 33  1  0  0  0  0
 24 34  1  0  0  0  0
 25 35  1  0  0  0  0
 26 36  1  0  0  0  0
  3  4  1  0  0  0  0
  3  5  1  0  0  0  0
  3  6  1  0  0  0  0
 42 45  1  0  0  0  0
 42 46  1  0  0  0  0
 42 47  1  0  0  0  0
 11 14  1  0  0  0  0
 11 15  1  0  0  0  0
 11 16  1  0  0  0  0
 49 51  1  0  0  0  0
 49 52  1  0  0  0  0
 49 53  1  0  0  0  0
 21 31  1  0  0  0  0
 21 32  1  0  0  0  0
 39 44  1  0  0  0  0
  8 13  1  0  0  0  0
 18 30  1  0  0  0  0
 48 50  1  0  0  0  0
  7 12  1  0  0  0  0
 38 43  1  0  0  0  0
 17 29  1  0  0  0  0
 28 37  1  0  0  0  0
M  END
$$$$

  -OEChem-05262214473D

 53 53  0     1  0  0  0  0  0999 V2000
   -1.9298    0.2574    3.9747 C   0  0  0  0  0  0  0  0  0  0  0  0
   -0.9825   -0.3573    3.4990 O   0  0  0  0  0  0  0  0  0  0  0  0
   -2.3617   -0.0250    5.3754 C   0  0  0  0  0  0  0  0  0  0  0  0
   -3.1214   -0.8213    5.4288 H   0  0  0  0  0  0  0  0  0  0  0  0
   -1.5305   -0.3726    6.0097 H   0  0  0  0  0  0  0  0  0  0  0  0
   -2.7997    0.8299    5.9150 H   0  0  0  0  0  0  0  0  0  0  0  0
   -2.6795    1.2298    3.3336 N   0  0  0  0  0  0  0  0  0  0  0  0
   -2.4327    1.6559    1.9812 C   0  0  2  0  0  0  0  0  0  0  0  0
   -1.0977    1.0705    1.5400 C   0  0  0  0  0  0  0  0  0  0  0  0
   -0.2256    0.7177    2.3313 O   0  0  0  0  0  0  0  0  0  0  0  0
   -2.4239    3.1726    1.8718 C   0  0  0  0  0  0  0  0  0  0  0  0
   -3.4446    1.6657    3.8454 H   0  0  0  0  0  0  0  0  0  0  0  0
   -3.2368    1.2374    1.3661 H   0  0  0  0  0  0  0  0  0  0  0  0
   -1.6248    3.6099    2.4815 H   0  0  0  0  0  0  0  0  0  0  0  0
   -2.2644    3.4949    0.8375 H   0  0  0  0  0  0  0  0  0  0  0  0
   -3.3741    3.5939    2.2175 H   0  0  0  0  0  0  0  0  0  0  0  0
   -0.9750    1.0274    0.1566 N   0  0  0  0  0  0  0  0  0  0  0  0
    0.2023    0.5266   -0.5070 C   0  0  2  0  0  0  0  0  0  0  0  0
    0.5434    1.5085   -1.6222 C   0  0  0  0  0  0  0  0  0  0  0  0
    0.8066    1.1533   -2.7692 O   0  0  0  0  0  0  0  0  0  0  0  0
   -0.0104   -0.8789   -1.0811 C   0  0  0  0  0  0  0  0  0  0  0  0
   -0.1977   -1.9248   -0.0093 C   0  0  0  0  0  0  0  0  0  0  0  0
    0.9123   -2.4629    0.6420 C   0  0  0  0  0  0  0  0  0  0  0  0
   -1.4810   -2.3539    0.3295 C   0  0  0  0  0  0  0  0  0  0  0  0
    0.7390   -3.4300    1.6321 C   0  0  0  0  0  0  0  0  0  0  0  0
   -1.6543   -3.3211    1.3196 C   0  0  0  0  0  0  0  0  0  0  0  0
   -0.5443   -3.8591    1.9709 C   0  0  0  0  0  0  0  0  0  0  0  0
   -0.7131   -4.8037    2.9361 O   0  0  0  0  0  0  0  0  0  0  0  0
   -1.7582    1.3241   -0.4207 H   0  0  0  0  0  0  0  0  0  0  0  0
    1.0075    0.5346    0.2369 H   0  0  0  0  0  0  0  0  0  0  0  0
    0.8338   -1.1581   -1.7261 H   0  0  0  0  0  0  0  0  0  0  0  0
   -0.8914   -0.8964   -1.7362 H   0  0  0  0  0  0  0  0  0  0  0  0
    1.9156   -2.1344    0.3845 H   0  0  0  0  0  0  0  0  0  0  0  0
   -2.3517   -1.9401   -0.1727 H   0  0  0  0  0  0  0  0  0  0  0  0
    1.6077   -3.8456    2.1357 H   0  0  0  0  0  0  0  0  0  0  0  0
   -2.6563   -3.6513    1.5787 H   0  0  0  0  0  0  0  0  0  0  0  0
   -1.6566   -4.9959    3.0574 H   0  0  0  0  0  0  0  0  0  0  0  0
    0.4692    2.8268   -1.1945 N   0  0  0  0  0  0  0  0  0  0  0  0
    0.7226    3.9570   -2.0589 C   0  0  2  0  0  0  0  0  0  0  0  0
    2.0466    3.7162   -2.7720 C   0  0  0  0  0  0  0  0  0  0  0  0
    2.9135    2.9596   -2.3394 O   0  0  0  0  0  0  0  0  0  0  0  0
    0.7576    5.2582   -1.2724 C   0  0  0  0  0  0  0  0  0  0  0  0
    0.2245    3.0063   -0.2251 H   0  0  0  0  0  0  0  0  0  0  0  0
   -0.0895    3.9816   -2.7937 H   0  0  0  0  0  0  0  0  0  0  0  0
    1.5650    5.2523   -0.5311 H   0  0  0  0  0  0  0  0  0  0  0  0
    0.9212    6.1165   -1.9325 H   0  0  0  0  0  0  0  0  0  0  0  0
   -0.1846    5.4150   -0.7363 H   0  0  0  0  0  0  0  0  0  0  0  0
    2.1641    4.4785   -3.9258 N   0  0  0  0  0  0  0  0  0  0  0  0
    3.3341    4.4371   -4.7717 C   0  0  0  0  0  0  0  0  0  0  0  0
    1.3879    5.0645   -4.2188 H   0  0  0  0  0  0  0  0  0  0  0  0
    4.0373    5.2252   -4.4645 H   0  0  0  0  0  0  0  0  0  0  0  0
    3.8202    3.4549   -4.6772 H   0  0  0  0  0  0  0  0  0  0  0  0
    3.0358    4.5995   -5.8179 H   0  0  0  0  0  0  0  0  0  0  0  0
 23 25  2  0  0  0  0
 22 23  1  0  0  0  0
 24 26  1  0  0  0  0
 22 24  2  0  0  0  0
 25 27  1  0  0  0  0
 26 27  2  0  0  0  0
 21 22  1  0  0  0  0
 27 28  1  0  0  0  0
  1  3  1  0  0  0  0
  1  7  1  0  0  0  0
  1  2  2  0  0  0  0
 39 40  1  0  0  0  0
 40 48  1  0  0  0  0
 40 41  2  0  0  0  0
  8  9  1  0  0  0  0
  9 17  1  0  0  0  0
  9 10  2  0  0  0  0
 18 19  1  0  0  0  0
 19 38  1  0  0  0  0
 19 20  2  0  0  0  0
 39 42  1  0  0  0  0
  8 11  1  0  0  0  0
 48 49  1  0  0  0  0
 18 21  1  0  0  0  0
 38 39  1  0  0  0  0
  7  8  1  0  0  0  0
 17 18  1  0  0  0  0
 23 33  1  0  0  0  0
 24 34  1  0  0  0  0
 25 35  1  0  0  0  0
 26 36  1  0  0  0  0
  3  4  1  0  0  0  0
  3  5  1  0  0  0  0
  3  6  1  0  0  0  0
 42 45  1  0  0  0  0
 42 46  1  0  0  0  0
 42 47  1  0  0  0  0
 11 14  1  0  0  0  0
 11 15  1  0  0  0  0
 11 16  1  0  0  0  0
 49 51  1  0  0  0  0
 49 52  1  0  0  0  0
 49 53  1  0  0  0  0
 21 31  1  0  0  0  0
 21 32  1  0  0  0  0
 39 44  1  0  0  0  0
  8 13  1  0  0  0  0
 18 30  1  0  0  0  0
 48 50  1  0  0  0  0
  7 12  1  0  0  0  0
 38 43  1  0  0  0  0
 17 29  1  0  0  0  0
 28 37  1  0  0  0  0
M  END
$$$$

  -OEChem-05262214473D

 53 53  0     1  0  0  0  0  0999 V2000
   -1.9298    0.2574    3.9747 C   0  0  0  0  0  0  0  0  0  0  0  0
   -0.9825   -0.3573    3.4990 O   0  0  0  0  0  0  0  0  0  0  0  0
   -2.3617   -0.0250    5.3754 C   0  0  0  0  0  0  0  0  0  0  0  0
   -3.1214   -0.8213    5.4288 H   0  0  0  0  0  0  0  0  0  0  0  0
   -1.5305   -0.3726    6.0097 H   0  0  0  0  0  0  0  0  0  0  0  0
   -2.7997    0.8299    5.9150 H   0  0  0  0  0  0  0  0  0  0  0  0
   -2.6795    1.2298    3.3336 N   0  0  0  0  0  0  0  0  0  0  0  0
   -2.4327    1.6559    1.9812 C   0  0  2  0  0  0  0  0  0  0  0  0
   -1.0977    1.0705    1.5400 C   0  0  0  0  0  0  0  0  0  0  0  0
   -0.2256    0.7177    2.3313 O   0  0  0  0  0  0  0  0  0  0  0  0
   -2.4239    3.1726    1.8718 C   0  0  0  0  0  0  0  0  0  0  0  0
   -3.4446    1.6657    3.8454 H   0  0  0  0  0  0  0  0  0  0  0  0
   -3.2368    1.2374    1.3661 H   0  0  0  0  0  0  0  0  0  0  0  0
   -1.6248    3.6099    2.4815 H   0  0  0  0  0  0  0  0  0  0  0  0
   -2.2644    3.4949    0.8375 H   0  0  0  0  0  0  0  0  0  0  0  0
   -3.3741    3.5939    2.2175 H   0  0  0  0  0  0  0  0  0  0  0  0
   -0.9750    1.0274    0.1566 N   0  0  0  0  0  0  0  0  0  0  0  0
    0.2023    0.5266   -0.5070 C   0  0  2  0  0  0  0  0  0  0  0  0
    0.5434    1.5085   -1.6222 C   0  0  0  0  0  0  0  0  0  0  0  0
    0.5443    1.1967   -2.8112 O   0  0  0  0  0  0  0  0  0  0  0  0
   -0.0104   -0.8789   -1.0811 C   0  0  0  0  0  0  0  0  0  0  0  0
   -0.1977   -1.9248   -0.0093 C   0  0  0  0  0  0  0  0  0  0  0  0
    0.9123   -2.4629    0.6420 C   0  0  0  0  0  0  0  0  0  0  0  0
   -1.4810   -2.3539    0.3295 C   0  0  0  0  0  0  0  0  0  0  0  0
    0.7390   -3.4300    1.6321 C   0  0  0  0  0  0  0  0  0  0  0  0
   -1.6543   -3.3211    1.3196 C   0  0  0  0  0  0  0  0  0  0  0  0
   -0.5443   -3.8591    1.9709 C   0  0  0  0  0  0  0  0  0  0  0  0
   -0.7131   -4.8037    2.9361 O   0  0  0  0  0  0  0  0  0  0  0  0
   -1.7582    1.3241   -0.4207 H   0  0  0  0  0  0  0  0  0  0  0  0
    1.0075    0.5346    0.2369 H   0  0  0  0  0  0  0  0  0  0  0  0
    0.8338   -1.1581   -1.7261 H   0  0  0  0  0  0  0  0  0  0  0  0
   -0.8914   -0.8964   -1.7362 H   0  0  0  0  0  0  0  0  0  0  0  0
    1.9156   -2.1344    0.3845 H   0  0  0  0  0  0  0  0  0  0  0  0
   -2.3517   -1.9401   -0.1727 H   0  0  0  0  0  0  0  0  0  0  0  0
    1.6077   -3.8456    2.1357 H   0  0  0  0  0  0  0  0  0  0  0  0
   -2.6563   -3.6513    1.5787 H   0  0  0  0  0  0  0  0  0  0  0  0
   -1.6566   -4.9959    3.0574 H   0  0  0  0  0  0  0  0  0  0  0  0
    0.7966    2.7826   -1.1333 N   0  0  0  0  0  0  0  0  0  0  0  0
    1.1220    3.9075   -1.9803 C   0  0  2  0  0  0  0  0  0  0  0  0
    2.2415    3.4800   -2.9203 C   0  0  0  0  0  0  0  0  0  0  0  0
    3.0031    2.5466   -2.6757 O   0  0  0  0  0  0  0  0  0  0  0  0
    1.5354    5.1181   -1.1579 C   0  0  0  0  0  0  0  0  0  0  0  0
    0.7508    2.9319   -0.1296 H   0  0  0  0  0  0  0  0  0  0  0  0
    0.2226    4.1356   -2.5626 H   0  0  0  0  0  0  0  0  0  0  0  0
    2.4349    4.9085   -0.5677 H   0  0  0  0  0  0  0  0  0  0  0  0
    1.7540    5.9779   -1.7998 H   0  0  0  0  0  0  0  0  0  0  0  0
    0.7405    5.4059   -0.4614 H   0  0  0  0  0  0  0  0  0  0  0  0
    2.3174    4.2907   -4.0442 N   0  0  0  0  0  0  0  0  0  0  0  0
    3.3052    4.0970   -5.0800 C   0  0  0  0  0  0  0  0  0  0  0  0
    1.6329    5.0299   -4.1743 H   0  0  0  0  0  0  0  0  0  0  0  0
    4.1882    4.7170   -4.8658 H   0  0  0  0  0  0  0  0  0  0  0  0
    3.6000    3.0378   -5.1118 H   0  0  0  0  0  0  0  0  0  0  0  0
    2.8795    4.3886   -6.0515 H   0  0  0  0  0  0  0  0  0  0  0  0
 23 25  2  0  0  0  0
 22 23  1  0  0  0  0
 24 26  1  0  0  0  0
 22 24  2  0  0  0  0
 25 27  1  0  0  0  0
 26 27  2  0  0  0  0
 21 22  1  0  0  0  0
 27 28  1  0  0  0  0
  1  3  1  0  0  0  0
  1  7  1  0  0  0  0
  1  2  2  0  0  0  0
 39 40  1  0  0  0  0
 40 48  1  0  0  0  0
 40 41  2  0  0  0  0
  8  9  1  0  0  0  0
  9 17  1  0  0  0  0
  9 10  2  0  0  0  0
 18 19  1  0  0  0  0
 19 38  1  0  0  0  0
 19 20  2  0  0  0  0
 39 42  1  0  0  0  0
  8 11  1  0  0  0  0
 48 49  1  0  0  0  0
 18 21  1  0  0  0  0
 38 39  1  0  0  0  0
  7  8  1  0  0  0  0
 17 18  1  0  0  0  0
 23 33  1  0  0  0  0
 24 34  1  0  0  0  0
 25 35  1  0  0  0  0
 26 36  1  0  0  0  0
  3  4  1  0  0  0  0
  3  5  1  0  0  0  0
  3  6  1  0  0  0  0
 42 45  1  0  0  0  0
 42 46  1  0  0  0  0
 42 47  1  0  0  0  0
 11 14  1  0  0  0  0
 11 15  1  0  0  0  0
 11 16  1  0  0  0  0
 49 51  1  0  0  0  0
 49 52  1  0  0  0  0
 49 53  1  0  0  0  0
 21 31  1  0  0  0  0
 21 32  1  0  0  0  0
 39 44  1  0  0  0  0
  8 13  1  0  0  0  0
 18 30  1  0  0  0  0
 48 50  1  0  0  0  0
  7 12  1  0  0  0  0
 38 43  1  0  0  0  0
 17 29  1  0  0  0  0
 28 37  1  0  0  0  0
M  END
$$$$

  -OEChem-05262214473D

 53 53  0     1  0  0  0  0  0999 V2000
   -1.9298    0.2574    3.9747 C   0  0  0  0  0  0  0  0  0  0  0  0
   -0.9825   -0.3573    3.4990 O   0  0  0  0  0  0  0  0  0  0  0  0
   -2.3617   -0.0250    5.3754 C   0  0  0  0  0  0  0  0  0  0  0  0
   -3.1214   -0.8213    5.4288 H   0  0  0  0  0  0  0  0  0  0  0  0
   -1.5305   -0.3726    6.0097 H   0  0  0  0  0  0  0  0  0  0  0  0
   -2.7997    0.8299    5.9150 H   0  0  0  0  0  0  0  0  0  0  0  0
   -2.6795    1.2298    3.3336 N   0  0  0  0  0  0  0  0  0  0  0  0
   -2.4327    1.6559    1.9812 C   0  0  2  0  0  0  0  0  0  0  0  0
   -1.0977    1.0705    1.5400 C   0  0  0  0  0  0  0  0  0  0  0  0
   -0.2256    0.7177    2.3313 O   0  0  0  0  0  0  0  0  0  0  0  0
   -2.4239    3.1726    1.8718 C   0  0  0  0  0  0  0  0  0  0  0  0
   -3.4446    1.6657    3.8454 H   0  0  0  0  0  0  0  0  0  0  0  0
   -3.2368    1.2374    1.3661 H   0  0  0  0  0  0  0  0  0  0  0  0
   -1.6248    3.6099    2.4815 H   0  0  0  0  0  0  0  0  0  0  0  0
   -2.2644    3.4949    0.8375 H   0  0  0  0  0  0  0  0  0  0  0  0
   -3.3741    3.5939    2.2175 H   0  0  0  0  0  0  0  0  0  0  0  0
   -0.9750    1.0274    0.1566 N   0  0  0  0  0  0  0  0  0  0  0  0
    0.2023    0.5266   -0.5070 C   0  0  2  0  0  0  0  0  0  0  0  0
    0.5434    1.5085   -1.6222 C   0  0  0  0  0  0  0  0  0  0  0  0
    0.2921    1.2907   -2.8056 O   0  0  0  0  0  0  0  0  0  0  0  0
   -0.0104   -0.8789   -1.0811 C   0  0  0  0  0  0  0  0  0  0  0  0
   -0.1977   -1.9248   -0.0093 C   0  0  0  0  0  0  0  0  0  0  0  0
    0.9123   -2.4629    0.6420 C   0  0  0  0  0  0  0  0  0  0  0  0
   -1.4810   -2.3539    0.3295 C   0  0  0  0  0  0  0  0  0  0  0  0
    0.7390   -3.4300    1.6321 C   0  0  0  0  0  0  0  0  0  0  0  0
   -1.6543   -3.3211    1.3196 C   0  0  0  0  0  0  0  0  0  0  0  0
   -0.5443   -3.8591    1.9709 C   0  0  0  0  0  0  0  0  0  0  0  0
   -0.7131   -4.8037    2.9361 O   0  0  0  0  0  0  0  0  0  0  0  0
   -1.7582    1.3241   -0.4207 H   0  0  0  0  0  0  0  0  0  0  0  0
    1.0075    0.5346    0.2369 H   0  0  0  0  0  0  0  0  0  0  0  0
    0.8338   -1.1581   -1.7261 H   0  0  0  0  0  0  0  0  0  0  0  0
   -0.8914   -0.8964   -1.7362 H   0  0  0  0  0  0  0  0  0  0  0  0
    1.9156   -2.1344    0.3845 H   0  0  0  0  0  0  0  0  0  0  0  0
   -2.3517   -1.9401   -0.1727 H   0  0  0  0  0  0  0  0  0  0  0  0
    1.6077   -3.8456    2.1357 H   0  0  0  0  0  0  0  0  0  0  0  0
   -2.6563   -3.6513    1.5787 H   0  0  0  0  0  0  0  0  0  0  0  0
   -1.6566   -4.9959    3.0574 H   0  0  0  0  0  0  0  0  0  0  0  0
    1.1146    2.6743   -1.1313 N   0  0  0  0  0  0  0  0  0  0  0  0
    1.5116    3.7794   -1.9739 C   0  0  2  0  0  0  0  0  0  0  0  0
    2.3603    3.2235   -3.1098 C   0  0  0  0  0  0  0  0  0  0  0  0
    2.9554    2.1502   -3.0393 O   0  0  0  0  0  0  0  0  0  0  0  0
    2.2792    4.8288   -1.1851 C   0  0  0  0  0  0  0  0  0  0  0  0
    1.2611    2.7549   -0.1294 H   0  0  0  0  0  0  0  0  0  0  0  0
    0.5918    4.2119   -2.3825 H   0  0  0  0  0  0  0  0  0  0  0  0
    3.2040    4.4139   -0.7680 H   0  0  0  0  0  0  0  0  0  0  0  0
    2.5544    5.6786   -1.8185 H   0  0  0  0  0  0  0  0  0  0  0  0
    1.6781    5.2060   -0.3506 H   0  0  0  0  0  0  0  0  0  0  0  0
    2.4102    4.0872   -4.1950 N   0  0  0  0  0  0  0  0  0  0  0  0
    3.1615    3.7919   -5.3926 C   0  0  0  0  0  0  0  0  0  0  0  0
    1.8705    4.9475   -4.1742 H   0  0  0  0  0  0  0  0  0  0  0  0
    4.1708    4.2208   -5.3080 H   0  0  0  0  0  0  0  0  0  0  0  0
    3.2359    2.7017   -5.5191 H   0  0  0  0  0  0  0  0  0  0  0  0
    2.6497    4.2279   -6.2632 H   0  0  0  0  0  0  0  0  0  0  0  0
 23 25  2  0  0  0  0
 22 23  1  0  0  0  0
 24 26  1  0  0  0  0
 22 24  2  0  0  0  0
 25 27  1  0  0  0  0
 26 27  2  0  0  0  0
 21 22  1  0  0  0  0
 27 28  1  0  0  0  0
  1  3  1  0  0  0  0
  1  7  1  0  0  0  0
  1  2  2  0  0  0  0
 39 40  1  0  0  0  0
 40 48  1  0  0  0  0
 40 41  2  0  0  0  0
  8  9  1  0  0  0  0
  9 17  1  0  0  0  0
  9 10  2  0  0  0  0
 18 19  1  0  0  0  0
 19 38  1  0  0  0  0
 19 20  2  0  0  0  0
 39 42  1  0  0  0  0
  8 11  1  0  0  0  0
 48 49  1  0  0  0  0
 18 21  1  0  0  0  0
 38 39  1  0  0  0  0
  7  8  1  0  0  0  0
 17 18  1  0  0  0  0
 23 33  1  0  0  0  0
 24 34  1  0  0  0  0
 25 35  1  0  0  0  0
 26 36  1  0  0  0  0
  3  4  1  0  0  0  0
  3  5  1  0  0  0  0
  3  6  1  0  0  0  0
 42 45  1  0  0  0  0
 42 46  1  0  0  0  0
 42 47  1  0  0  0  0
 11 14  1  0  0  0  0
 11 15  1  0  0  0  0
 11 16  1  0  0  0  0
 49 51  1  0  0  0  0
 49 52  1  0  0  0  0
 49 53  1  0  0  0  0
 21 31  1  0  0  0  0
 21 32  1  0  0  0  0
 39 44  1  0  0  0  0
  8 13  1  0  0  0  0
 18 30  1  0  0  0  0
 48 50  1  0  0  0  0
  7 12  1  0  0  0  0
 38 43  1  0  0  0  0
 17 29  1  0  0  0  0
 28 37  1  0  0  0  0
M  END
$$$$

  -OEChem-05262214473D

 53 53  0     1  0  0  0  0  0999 V2000
   -1.9298    0.2574    3.9747 C   0  0  0  0  0  0  0  0  0  0  0  0
   -0.9825   -0.3573    3.4990 O   0  0  0  0  0  0  0  0  0  0  0  0
   -2.3617   -0.0250    5.3754 C   0  0  0  0  0  0  0  0  0  0  0  0
   -3.1214   -0.8213    5.4288 H   0  0  0  0  0  0  0  0  0  0  0  0
   -1.5305   -0.3726    6.0097 H   0  0  0  0  0  0  0  0  0  0  0  0
   -2.7997    0.8299    5.9150 H   0  0  0  0  0  0  0  0  0  0  0  0
   -2.6795    1.2298    3.3336 N   0  0  0  0  0  0  0  0  0  0  0  0
   -2.4327    1.6559    1.9812 C   0  0  2  0  0  0  0  0  0  0  0  0
   -1.0977    1.0705    1.5400 C   0  0  0  0  0  0  0  0  0  0  0  0
   -0.2256    0.7177    2.3313 O   0  0  0  0  0  0  0  0  0  0  0  0
   -2.4239    3.1726    1.8718 C   0  0  0  0  0  0  0  0  0  0  0  0
   -3.4446    1.6657    3.8454 H   0  0  0  0  0  0  0  0  0  0  0  0
   -3.2368    1.2374    1.3661 H   0  0  0  0  0  0  0  0  0  0  0  0
   -1.6248    3.6099    2.4815 H   0  0  0  0  0  0  0  0  0  0  0  0
   -2.2644    3.4949    0.8375 H   0  0  0  0  0  0  0  0  0  0  0  0
   -3.3741    3.5939    2.2175 H   0  0  0  0  0  0  0  0  0  0  0  0
   -0.9750    1.0274    0.1566 N   0  0  0  0  0  0  0  0  0  0  0  0
    0.2023    0.5266   -0.5070 C   0  0  2  0  0  0  0  0  0  0  0  0
    0.5434    1.5085   -1.6222 C   0  0  0  0  0  0  0  0  0  0  0  0
    0.0673    1.4289   -2.7527 O   0  0  0  0  0  0  0  0  0  0  0  0
   -0.0104   -0.8789   -1.0811 C   0  0  0  0  0  0  0  0  0  0  0  0
   -0.1977   -1.9248   -0.0093 C   0  0  0  0  0  0  0  0  0  0  0  0
    0.9123   -2.4629    0.6420 C   0  0  0  0  0  0  0  0  0  0  0  0
   -1.4810   -2.3539    0.3295 C   0  0  0  0  0  0  0  0  0  0  0  0
    0.7390   -3.4300    1.6321 C   0  0  0  0  0  0  0  0  0  0  0  0
   -1.6543   -3.3211    1.3196 C   0  0  0  0  0  0  0  0  0  0  0  0
   -0.5443   -3.8591    1.9709 C   0  0  0  0  0  0  0  0  0  0  0  0
   -0.7131   -4.8037    2.9361 O   0  0  0  0  0  0  0  0  0  0  0  0
   -1.7582    1.3241   -0.4207 H   0  0  0  0  0  0  0  0  0  0  0  0
    1.0075    0.5346    0.2369 H   0  0  0  0  0  0  0  0  0  0  0  0
    0.8338   -1.1581   -1.7261 H   0  0  0  0  0  0  0  0  0  0  0  0
   -0.8914   -0.8964   -1.7362 H   0  0  0  0  0  0  0  0  0  0  0  0
    1.9156   -2.1344    0.3845 H   0  0  0  0  0  0  0  0  0  0  0  0
   -2.3517   -1.9401   -0.1727 H   0  0  0  0  0  0  0  0  0  0  0  0
    1.6077   -3.8456    2.1357 H   0  0  0  0  0  0  0  0  0  0  0  0
   -2.6563   -3.6513    1.5787 H   0  0  0  0  0  0  0  0  0  0  0  0
   -1.6566   -4.9959    3.0574 H   0  0  0  0  0  0  0  0  0  0  0  0
    1.4017    2.5094   -1.1887 N   0  0  0  0  0  0  0  0  0  0  0  0
    1.8647    3.5816   -2.0401 C   0  0  2  0  0  0  0  0  0  0  0  0
    2.3950    2.9643   -3.3274 C   0  0  0  0  0  0  0  0  0  0  0  0
    2.7736    1.7974   -3.4055 O   0  0  0  0  0  0  0  0  0  0  0  0
    2.9384    4.4102   -1.3521 C   0  0  0  0  0  0  0  0  0  0  0  0
    1.7205    2.4873   -0.2245 H   0  0  0  0  0  0  0  0  0  0  0  0
    0.9928    4.2053   -2.2656 H   0  0  0  0  0  0  0  0  0  0  0  0
    3.8199    3.8021   -1.1183 H   0  0  0  0  0  0  0  0  0  0  0  0
    3.2677    5.2391   -1.9872 H   0  0  0  0  0  0  0  0  0  0  0  0
    2.5645    4.8289   -0.4115 H   0  0  0  0  0  0  0  0  0  0  0  0
    2.4361    3.8818   -4.3679 N   0  0  0  0  0  0  0  0  0  0  0  0
    2.9127    3.5424   -5.6883 C   0  0  0  0  0  0  0  0  0  0  0  0
    2.0843    4.8229   -4.2184 H   0  0  0  0  0  0  0  0  0  0  0  0
    3.9864    3.7703   -5.7610 H   0  0  0  0  0  0  0  0  0  0  0  0
    2.7526    2.4696   -5.8713 H   0  0  0  0  0  0  0  0  0  0  0  0
    2.3620    4.1285   -6.4387 H   0  0  0  0  0  0  0  0  0  0  0  0
 23 25  2  0  0  0  0
 22 23  1  0  0  0  0
 24 26  1  0  0  0  0
 22 24  2  0  0  0  0
 25 27  1  0  0  0  0
 26 27  2  0  0  0  0
 21 22  1  0  0  0  0
 27 28  1  0  0  0  0
  1  3  1  0  0  0  0
  1  7  1  0  0  0  0
  1  2  2  0  0  0  0
 39 40  1  0  0  0  0
 40 48  1  0  0  0  0
 40 41  2  0  0  0  0
  8  9  1  0  0  0  0
  9 17  1  0  0  0  0
  9 10  2  0  0  0  0
 18 19  1  0  0  0  0
 19 38  1  0  0  0  0
 19 20  2  0  0  0  0
 39 42  1  0  0  0  0
  8 11  1  0  0  0  0
 48 49  1  0  0  0  0
 18 21  1  0  0  0  0
 38 39  1  0  0  0  0
  7  8  1  0  0  0  0
 17 18  1  0  0  0  0
 23 33  1  0  0  0  0
 24 34  1  0  0  0  0
 25 35  1  0  0  0  0
 26 36  1  0  0  0  0
  3  4  1  0  0  0  0
  3  5  1  0  0  0  0
  3  6  1  0  0  0  0
 42 45  1  0  0  0  0
 42 46  1  0  0  0  0
 42 47  1  0  0  0  0
 11 14  1  0  0  0  0
 11 15  1  0  0  0  0
 11 16  1  0  0  0  0
 49 51  1  0  0  0  0
 49 52  1  0  0  0  0
 49 53  1  0  0  0  0
 21 31  1  0  0  0  0
 21 32  1  0  0  0  0
 39 44  1  0  0  0  0
  8 13  1  0  0  0  0
 18 30  1  0  0  0  0
 48 50  1  0  0  0  0
  7 12  1  0  0  0  0
 38 43  1  0  0  0  0
 17 29  1  0  0  0  0
 28 37  1  0  0  0  0
M  END
$$$$

  -OEChem-05262214473D

 53 53  0     1  0  0  0  0  0999 V2000
   -1.9298    0.2574    3.9747 C   0  0  0  0  0  0  0  0  0  0  0  0
   -0.9825   -0.3573    3.4990 O   0  0  0  0  0  0  0  0  0  0  0  0
   -2.3617   -0.0250    5.3754 C   0  0  0  0  0  0  0  0  0  0  0  0
   -3.1214   -0.8213    5.4288 H   0  0  0  0  0  0  0  0  0  0  0  0
   -1.5305   -0.3726    6.0097 H   0  0  0  0  0  0  0  0  0  0  0  0
   -2.7997    0.8299    5.9150 H   0  0  0  0  0  0  0  0  0  0  0  0
   -2.6795    1.2298    3.3336 N   0  0  0  0  0  0  0  0  0  0  0  0
   -2.4327    1.6559    1.9812 C   0  0  2  0  0  0  0  0  0  0  0  0
   -1.0977    1.0705    1.5400 C   0  0  0  0  0  0  0  0  0  0  0  0
   -0.2256    0.7177    2.3313 O   0  0  0  0  0  0  0  0  0  0  0  0
   -2.4239    3.1726    1.8718 C   0  0  0  0  0  0  0  0  0  0  0  0
   -3.4446    1.6657    3.8454 H   0  0  0  0  0  0  0  0  0  0  0  0
   -3.2368    1.2374    1.3661 H   0  0  0  0  0  0  0  0  0  0  0  0
   -1.6248    3.6099    2.4815 H   0  0  0  0  0  0  0  0  0  0  0  0
   -2.2644    3.4949    0.8375 H   0  0  0  0  0  0  0  0  0  0  0  0
   -3.3741    3.5939    2.2175 H   0  0  0  0  0  0  0  0  0  0  0  0
   -0.9750    1.0274    0.1566 N   0  0  0  0  0  0  0  0  0  0  0  0
    0.2023    0.5266   -0.5070 C   0  0  2  0  0  0  0  0  0  0  0  0
    0.5434    1.5085   -1.6222 C   0  0  0  0  0  0  0  0  0  0  0  0
   -0.1149    1.6019   -2.6561 O   0  0  0  0  0  0  0  0  0  0  0  0
   -0.0104   -0.8789   -1.0811 C   0  0  0  0  0  0  0  0  0  0  0  0
   -0.1977   -1.9248   -0.0093 C   0  0  0  0  0  0  0  0  0  0  0  0
    0.9123   -2.4629    0.6420 C   0  0  0  0  0  0  0  0  0  0  0  0
   -1.4810   -2.3539    0.3295 C   0  0  0  0  0  0  0  0  0  0  0  0
    0.7390   -3.4300    1.6321 C   0  0  0  0  0  0  0  0  0  0  0  0
   -1.6543   -3.3211    1.3196 C   0  0  0  0  0  0  0  0  0  0  0  0
   -0.5443   -3.8591    1.9709 C   0  0  0  0  0  0  0  0  0  0  0  0
   -0.7131   -4.8037    2.9361 O   0  0  0  0  0  0  0  0  0  0  0  0
   -1.7582    1.3241   -0.4207 H   0  0  0  0  0  0  0  0  0  0  0  0
    1.0075    0.5346    0.2369 H   0  0  0  0  0  0  0  0  0  0  0  0
    0.8338   -1.1581   -1.7261 H   0  0  0  0  0  0  0  0  0  0  0  0
   -0.8914   -0.8964   -1.7362 H   0  0  0  0  0  0  0  0  0  0  0  0
    1.9156   -2.1344    0.3845 H   0  0  0  0  0  0  0  0  0  0  0  0
   -2.3517   -1.9401   -0.1727 H   0  0  0  0  0  0  0  0  0  0  0  0
    1.6077   -3.8456    2.1357 H   0  0  0  0  0  0  0  0  0  0  0  0
   -2.6563   -3.6513    1.5787 H   0  0  0  0  0  0  0  0  0  0  0  0
   -1.6566   -4.9959    3.0574 H   0  0  0  0  0  0  0  0  0  0  0  0
    1.6382    2.2991   -1.3016 N   0  0  0  0  0  0  0  0  0  0  0  0
    2.1573    3.3275   -2.1743 C   0  0  2  0  0  0  0  0  0  0  0  0
    2.3431    2.7199   -3.5585 C   0  0  0  0  0  0  0  0  0  0  0  0
    2.4702    1.5122   -3.7494 O   0  0  0  0  0  0  0  0  0  0  0  0
    3.4680    3.8906   -1.6475 C   0  0  0  0  0  0  0  0  0  0  0  0
    2.0977    2.1473   -0.4085 H   0  0  0  0  0  0  0  0  0  0  0  0
    1.3985    4.1163   -2.2200 H   0  0  0  0  0  0  0  0  0  0  0  0
    4.2405    3.1149   -1.5947 H   0  0  0  0  0  0  0  0  0  0  0  0
    3.8453    4.6893   -2.2946 H   0  0  0  0  0  0  0  0  0  0  0  0
    3.3391    4.3004   -0.6399 H   0  0  0  0  0  0  0  0  0  0  0  0
    2.3935    3.6885   -4.5511 N   0  0  0  0  0  0  0  0  0  0  0  0
    2.5760    3.3656   -5.9470 C   0  0  0  0  0  0  0  0  0  0  0  0
    2.2599    4.6647   -4.3040 H   0  0  0  0  0  0  0  0  0  0  0  0
    3.6475    3.3964   -6.1939 H   0  0  0  0  0  0  0  0  0  0  0  0
    2.1832    2.3573   -6.1443 H   0  0  0  0  0  0  0  0  0  0  0  0
    2.0360    4.0971   -6.5661 H   0  0  0  0  0  0  0  0  0  0  0  0
 23 25  2  0  0  0  0
 22 23  1  0  0  0  0
 24 26  1  0  0  0  0
 22 24  2  0  0  0  0
 25 27  1  0  0  0  0
 26 27  2  0  0  0  0
 21 22  1  0  0  0  0
 27 28  1  0  0  0  0
  1  3  1  0  0  0  0
  1  7  1  0  0  0  0
  1  2  2  0  0  0  0
 39 40  1  0  0  0  0
 40 48  1  0  0  0  0
 40 41  2  0  0  0  0
  8  9  1  0  0  0  0
  9 17  1  0  0  0  0
  9 10  2  0  0  0  0
 18 19  1  0  0  0  0
 19 38  1  0  0  0  0
 19 20  2  0  0  0  0
 39 42  1  0  0  0  0
  8 11  1  0  0  0  0
 48 49  1  0  0  0  0
 18 21  1  0  0  0  0
 38 39  1  0  0  0  0
  7  8  1  0  0  0  0
 17 18  1  0  0  0  0
 23 33  1  0  0  0  0
 24 34  1  0  0  0  0
 25 35  1  0  0  0  0
 26 36  1  0  0  0  0
  3  4  1  0  0  0  0
  3  5  1  0  0  0  0
  3  6  1  0  0  0  0
 42 45  1  0  0  0  0
 42 46  1  0  0  0  0
 42 47  1  0  0  0  0
 11 14  1  0  0  0  0
 11 15  1  0  0  0  0
 11 16  1  0  0  0  0
 49 51  1  0  0  0  0
 49 52  1  0  0  0  0
 49 53  1  0  0  0  0
 21 31  1  0  0  0  0
 21 32  1  0  0  0  0
 39 44  1  0  0  0  0
  8 13  1  0  0  0  0
 18 30  1  0  0  0  0
 48 50  1  0  0  0  0
  7 12  1  0  0  0  0
 38 43  1  0  0  0  0
 17 29  1  0  0  0  0
 28 37  1  0  0  0  0
M  END
$$$$

  -OEChem-05262214473D

 53 53  0     1  0  0  0  0  0999 V2000
   -1.9298    0.2574    3.9747 C   0  0  0  0  0  0  0  0  0  0  0  0
   -0.9825   -0.3573    3.4990 O   0  0  0  0  0  0  0  0  0  0  0  0
   -2.3617   -0.0250    5.3754 C   0  0  0  0  0  0  0  0  0  0  0  0
   -3.1214   -0.8213    5.4288 H   0  0  0  0  0  0  0  0  0  0  0  0
   -1.5305   -0.3726    6.0097 H   0  0  0  0  0  0  0  0  0  0  0  0
   -2.7997    0.8299    5.9150 H   0  0  0  0  0  0  0  0  0  0  0  0
   -2.6795    1.2298    3.3336 N   0  0  0  0  0  0  0  0  0  0  0  0
   -2.4327    1.6559    1.9812 C   0  0  2  0  0  0  0  0  0  0  0  0
   -1.0977    1.0705    1.5400 C   0  0  0  0  0  0  0  0  0  0  0  0
   -0.2256    0.7177    2.3313 O   0  0  0  0  0  0  0  0  0  0  0  0
   -2.4239    3.1726    1.8718 C   0  0  0  0  0  0  0  0  0  0  0  0
   -3.4446    1.6657    3.8454 H   0  0  0  0  0  0  0  0  0  0  0  0
   -3.2368    1.2374    1.3661 H   0  0  0  0  0  0  0  0  0  0  0  0
   -1.6248    3.6099    2.4815 H   0  0  0  0  0  0  0  0  0  0  0  0
   -2.2644    3.4949    0.8375 H   0  0  0  0  0  0  0  0  0  0  0  0
   -3.3741    3.5939    2.2175 H   0  0  0  0  0  0  0  0  0  0  0  0
   -0.9750    1.0274    0.1566 N   0  0  0  0  0  0  0  0  0  0  0  0
    0.2023    0.5266   -0.5070 C   0  0  2  0  0  0  0  0  0  0  0  0
    0.5434    1.5085   -1.6222 C   0  0  0  0  0  0  0  0  0  0  0  0
   -0.2420    1.7979   -2.5224 O   0  0  0  0  0  0  0  0  0  0  0  0
   -0.0104   -0.8789   -1.0811 C   0  0  0  0  0  0  0  0  0  0  0  0
   -0.1977   -1.9248   -0.0093 C   0  0  0  0  0  0  0  0  0  0  0  0
    0.9123   -2.4629    0.6420 C   0  0  0  0  0  0  0  0  0  0  0  0
   -1.4810   -2.3539    0.3295 C   0  0  0  0  0  0  0  0  0  0  0  0
    0.7390   -3.4300    1.6321 C   0  0  0  0  0  0  0  0  0  0  0  0
   -1.6543   -3.3211    1.3196 C   0  0  0  0  0  0  0  0  0  0  0  0
   -0.5443   -3.8591    1.9709 C   0  0  0  0  0  0  0  0  0  0  0  0
   -0.7131   -4.8037    2.9361 O   0  0  0  0  0  0  0  0  0  0  0  0
   -1.7582    1.3241   -0.4207 H   0  0  0  0  0  0  0  0  0  0  0  0
    1.0075    0.5346    0.2369 H   0  0  0  0  0  0  0  0  0  0  0  0
    0.8338   -1.1581   -1.7261 H   0  0  0  0  0  0  0  0  0  0  0  0
   -0.8914   -0.8964   -1.7362 H   0  0  0  0  0  0  0  0  0  0  0  0
    1.9156   -2.1344    0.3845 H   0  0  0  0  0  0  0  0  0  0  0  0
   -2.3517   -1.9401   -0.1727 H   0  0  0  0  0  0  0  0  0  0  0  0
    1.6077   -3.8456    2.1357 H   0  0  0  0  0  0  0  0  0  0  0  0
   -2.6563   -3.6513    1.5787 H   0  0  0  0  0  0  0  0  0  0  0  0
   -1.6566   -4.9959    3.0574 H   0  0  0  0  0  0  0  0  0  0  0  0
    1.8080    2.0577   -1.4621 N   0  0  0  0  0  0  0  0  0  0  0  0
    2.3694    3.0344   -2.3675 C   0  0  2  0  0  0  0  0  0  0  0  0
    2.2082    2.5071   -3.7871 C   0  0  0  0  0  0  0  0  0  0  0  0
    2.0659    1.3141   -4.0475 O   0  0  0  0  0  0  0  0  0  0  0  0
    3.8320    3.3057   -2.0512 C   0  0  0  0  0  0  0  0  0  0  0  0
    2.3670    1.7581   -0.6687 H   0  0  0  0  0  0  0  0  0  0  0  0
    1.7810    3.9508   -2.2486 H   0  0  0  0  0  0  0  0  0  0  0  0
    4.4373    2.3990   -2.1648 H   0  0  0  0  0  0  0  0  0  0  0  0
    4.2479    4.0667   -2.7197 H   0  0  0  0  0  0  0  0  0  0  0  0
    3.9492    3.6565   -1.0202 H   0  0  0  0  0  0  0  0  0  0  0  0
    2.2851    3.5205   -4.7322 N   0  0  0  0  0  0  0  0  0  0  0  0
    2.1741    3.2736   -6.1509 C   0  0  0  0  0  0  0  0  0  0  0  0
    2.3853    4.4835   -4.4251 H   0  0  0  0  0  0  0  0  0  0  0  0
    3.1771    3.1245   -6.5772 H   0  0  0  0  0  0  0  0  0  0  0  0
    1.5664    2.3724   -6.3197 H   0  0  0  0  0  0  0  0  0  0  0  0
    1.6939    4.1359   -6.6365 H   0  0  0  0  0  0  0  0  0  0  0  0
 23 25  2  0  0  0  0
 22 23  1  0  0  0  0
 24 26  1  0  0  0  0
 22 24  2  0  0  0  0
 25 27  1  0  0  0  0
 26 27  2  0  0  0  0
 21 22  1  0  0  0  0
 27 28  1  0  0  0  0
  1  3  1  0  0  0  0
  1  7  1  0  0  0  0
  1  2  2  0  0  0  0
 39 40  1  0  0  0  0
 40 48  1  0  0  0  0
 40 41  2  0  0  0  0
  8  9  1  0  0  0  0
  9 17  1  0  0  0  0
  9 10  2  0  0  0  0
 18 19  1  0  0  0  0
 19 38  1  0  0  0  0
 19 20  2  0  0  0  0
 39 42  1  0  0  0  0
  8 11  1  0  0  0  0
 48 49  1  0  0  0  0
 18 21  1  0  0  0  0
 38 39  1  0  0  0  0
  7  8  1  0  0  0  0
 17 18  1  0  0  0  0
 23 33  1  0  0  0  0
 24 34  1  0  0  0  0
 25 35  1  0  0  0  0
 26 36  1  0  0  0  0
  3  4  1  0  0  0  0
  3  5  1  0  0  0  0
  3  6  1  0  0  0  0
 42 45  1  0  0  0  0
 42 46  1  0  0  0  0
 42 47  1  0  0  0  0
 11 14  1  0  0  0  0
 11 15  1  0  0  0  0
 11 16  1  0  0  0  0
 49 51  1  0  0  0  0
 49 52  1  0  0  0  0
 49 53  1  0  0  0  0
 21 31  1  0  0  0  0
 21 32  1  0  0  0  0
 39 44  1  0  0  0  0
  8 13  1  0  0  0  0
 18 30  1  0  0  0  0
 48 50  1  0  0  0  0
  7 12  1  0  0  0  0
 38 43  1  0  0  0  0
 17 29  1  0  0  0  0
 28 37  1  0  0  0  0
M  END
$$$$

  -OEChem-05262214473D

 53 53  0     1  0  0  0  0  0999 V2000
   -1.9298    0.2574    3.9747 C   0  0  0  0  0  0  0  0  0  0  0  0
   -0.9825   -0.3573    3.4990 O   0  0  0  0  0  0  0  0  0  0  0  0
   -2.3617   -0.0250    5.3754 C   0  0  0  0  0  0  0  0  0  0  0  0
   -3.1214   -0.8213    5.4288 H   0  0  0  0  0  0  0  0  0  0  0  0
   -1.5305   -0.3726    6.0097 H   0  0  0  0  0  0  0  0  0  0  0  0
   -2.7997    0.8299    5.9150 H   0  0  0  0  0  0  0  0  0  0  0  0
   -2.6795    1.2298    3.3336 N   0  0  0  0  0  0  0  0  0  0  0  0
   -2.4327    1.6559    1.9812 C   0  0  2  0  0  0  0  0  0  0  0  0
   -1.0977    1.0705    1.5400 C   0  0  0  0  0  0  0  0  0  0  0  0
   -0.2256    0.7177    2.3313 O   0  0  0  0  0  0  0  0  0  0  0  0
   -2.4239    3.1726    1.8718 C   0  0  0  0  0  0  0  0  0  0  0  0
   -3.4446    1.6657    3.8454 H   0  0  0  0  0  0  0  0  0  0  0  0
   -3.2368    1.2374    1.3661 H   0  0  0  0  0  0  0  0  0  0  0  0
   -1.6248    3.6099    2.4815 H   0  0  0  0  0  0  0  0  0  0  0  0
   -2.2644    3.4949    0.8375 H   0  0  0  0  0  0  0  0  0  0  0  0
   -3.3741    3.5939    2.2175 H   0  0  0  0  0  0  0  0  0  0  0  0
   -0.9750    1.0274    0.1566 N   0  0  0  0  0  0  0  0  0  0  0  0
    0.2023    0.5266   -0.5070 C   0  0  2  0  0  0  0  0  0  0  0  0
    0.5434    1.5085   -1.6222 C   0  0  0  0  0  0  0  0  0  0  0  0
   -0.3054    2.0035   -2.3607 O   0  0  0  0  0  0  0  0  0  0  0  0
   -0.0104   -0.8789   -1.0811 C   0  0  0  0  0  0  0  0  0  0  0  0
   -0.1977   -1.9248   -0.0093 C   0  0  0  0  0  0  0  0  0  0  0  0
    0.9123   -2.4629    0.6420 C   0  0  0  0  0  0  0  0  0  0  0  0
   -1.4810   -2.3539    0.3295 C   0  0  0  0  0  0  0  0  0  0  0  0
    0.7390   -3.4300    1.6321 C   0  0  0  0  0  0  0  0  0  0  0  0
   -1.6543   -3.3211    1.3196 C   0  0  0  0  0  0  0  0  0  0  0  0
   -0.5443   -3.8591    1.9709 C   0  0  0  0  0  0  0  0  0  0  0  0
   -0.7131   -4.8037    2.9361 O   0  0  0  0  0  0  0  0  0  0  0  0
   -1.7582    1.3241   -0.4207 H   0  0  0  0  0  0  0  0  0  0  0  0
    1.0075    0.5346    0.2369 H   0  0  0  0  0  0  0  0  0  0  0  0
    0.8338   -1.1581   -1.7261 H   0  0  0  0  0  0  0  0  0  0  0  0
   -0.8914   -0.8964   -1.7362 H   0  0  0  0  0  0  0  0  0  0  0  0
    1.9156   -2.1344    0.3845 H   0  0  0  0  0  0  0  0  0  0  0  0
   -2.3517   -1.9401   -0.1727 H   0  0  0  0  0  0  0  0  0  0  0  0
    1.6077   -3.8456    2.1357 H   0  0  0  0  0  0  0  0  0  0  0  0
   -2.6563   -3.6513    1.5787 H   0  0  0  0  0  0  0  0  0  0  0  0
   -1.6566   -4.9959    3.0574 H   0  0  0  0  0  0  0  0  0  0  0  0
    1.8995    1.8017   -1.6595 N   0  0  0  0  0  0  0  0  0  0  0  0
    2.4866    2.7224   -2.6064 C   0  0  2  0  0  0  0  0  0  0  0  0
    1.9994    2.3403   -3.9978 C   0  0  0  0  0  0  0  0  0  0  0  0
    1.5881    1.2166   -4.2795 O   0  0  0  0  0  0  0  0  0  0  0  0
    4.0055    2.6951   -2.5357 C   0  0  0  0  0  0  0  0  0  0  0  0
    2.5101    1.3463   -0.9876 H   0  0  0  0  0  0  0  0  0  0  0  0
    2.1144    3.7202   -2.3497 H   0  0  0  0  0  0  0  0  0  0  0  0
    4.3968    1.7032   -2.7898 H   0  0  0  0  0  0  0  0  0  0  0  0
    4.4481    3.4137   -3.2334 H   0  0  0  0  0  0  0  0  0  0  0  0
    4.3532    2.9411   -1.5266 H   0  0  0  0  0  0  0  0  0  0  0  0
    2.1185    3.3892   -4.8988 N   0  0  0  0  0  0  0  0  0  0  0  0
    1.7345    3.2727   -6.2862 C   0  0  0  0  0  0  0  0  0  0  0  0
    2.4520    4.2918   -4.5735 H   0  0  0  0  0  0  0  0  0  0  0  0
    2.6074    2.9730   -6.8848 H   0  0  0  0  0  0  0  0  0  0  0  0
    0.9442    2.5140   -6.3853 H   0  0  0  0  0  0  0  0  0  0  0  0
    1.3591    4.2423   -6.6453 H   0  0  0  0  0  0  0  0  0  0  0  0
 23 25  2  0  0  0  0
 22 23  1  0  0  0  0
 24 26  1  0  0  0  0
 22 24  2  0  0  0  0
 25 27  1  0  0  0  0
 26 27  2  0  0  0  0
 21 22  1  0  0  0  0
 27 28  1  0  0  0  0
  1  3  1  0  0  0  0
  1  7  1  0  0  0  0
  1  2  2  0  0  0  0
 39 40  1  0  0  0  0
 40 48  1  0  0  0  0
 40 41  2  0  0  0  0
  8  9  1  0  0  0  0
  9 17  1  0  0  0  0
  9 10  2  0  0  0  0
 18 19  1  0  0  0  0
 19 38  1  0  0  0  0
 19 20  2  0  0  0  0
 39 42  1  0  0  0  0
  8 11  1  0  0  0  0
 48 49  1  0  0  0  0
 18 21  1  0  0  0  0
 38 39  1  0  0  0  0
  7  8  1  0  0  0  0
 17 18  1  0  0  0  0
 23 33  1  0  0  0  0
 24 34  1  0  0  0  0
 25 35  1  0  0  0  0
 26 36  1  0  0  0  0
  3  4  1  0  0  0  0
  3  5  1  0  0  0  0
  3  6  1  0  0  0  0
 42 45  1  0  0  0  0
 42 46  1  0  0  0  0
 42 47  1  0  0  0  0
 11 14  1  0  0  0  0
 11 15  1  0  0  0  0
 11 16  1  0  0  0  0
 49 51  1  0  0  0  0
 49 52  1  0  0  0  0
 49 53  1  0  0  0  0
 21 31  1  0  0  0  0
 21 32  1  0  0  0  0
 39 44  1  0  0  0  0
  8 13  1  0  0  0  0
 18 30  1  0  0  0  0
 48 50  1  0  0  0  0
  7 12  1  0  0  0  0
 38 43  1  0  0  0  0
 17 29  1  0  0  0  0
 28 37  1  0  0  0  0
M  END
$$$$

  -OEChem-05262214473D

 53 53  0     1  0  0  0  0  0999 V2000
   -1.9298    0.2574    3.9747 C   0  0  0  0  0  0  0  0  0  0  0  0
   -0.9825   -0.3573    3.4990 O   0  0  0  0  0  0  0  0  0  0  0  0
   -2.3617   -0.0250    5.3754 C   0  0  0  0  0  0  0  0  0  0  0  0
   -3.1214   -0.8213    5.4288 H   0  0  0  0  0  0  0  0  0  0  0  0
   -1.5305   -0.3726    6.0097 H   0  0  0  0  0  0  0  0  0  0  0  0
   -2.7997    0.8299    5.9150 H   0  0  0  0  0  0  0  0  0  0  0  0
   -2.6795    1.2298    3.3336 N   0  0  0  0  0  0  0  0  0  0  0  0
   -2.4327    1.6559    1.9812 C   0  0  2  0  0  0  0  0  0  0  0  0
   -1.0977    1.0705    1.5400 C   0  0  0  0  0  0  0  0  0  0  0  0
   -0.2256    0.7177    2.3313 O   0  0  0  0  0  0  0  0  0  0  0  0
   -2.4239    3.1726    1.8718 C   0  0  0  0  0  0  0  0  0  0  0  0
   -3.4446    1.6657    3.8454 H   0  0  0  0  0  0  0  0  0  0  0  0
   -3.2368    1.2374    1.3661 H   0  0  0  0  0  0  0  0  0  0  0  0
   -1.6248    3.6099    2.4815 H   0  0  0  0  0  0  0  0  0  0  0  0
   -2.2644    3.4949    0.8375 H   0  0  0  0  0  0  0  0  0  0  0  0
   -3.3741    3.5939    2.2175 H   0  0  0  0  0  0  0  0  0  0  0  0
   -0.9750    1.0274    0.1566 N   0  0  0  0  0  0  0  0  0  0  0  0
    0.2023    0.5266   -0.5070 C   0  0  2  0  0  0  0  0  0  0  0  0
    0.5434    1.5085   -1.6222 C   0  0  0  0  0  0  0  0  0  0  0  0
   -0.3008    2.2048   -2.1821 O   0  0  0  0  0  0  0  0  0  0  0  0
   -0.0104   -0.8789   -1.0811 C   0  0  0  0  0  0  0  0  0  0  0  0
   -0.1977   -1.9248   -0.0093 C   0  0  0  0  0  0  0  0  0  0  0  0
    0.9123   -2.4629    0.6420 C   0  0  0  0  0  0  0  0  0  0  0  0
   -1.4810   -2.3539    0.3295 C   0  0  0  0  0  0  0  0  0  0  0  0
    0.7390   -3.4300    1.6321 C   0  0  0  0  0  0  0  0  0  0  0  0
   -1.6543   -3.3211    1.3196 C   0  0  0  0  0  0  0  0  0  0  0  0
   -0.5443   -3.8591    1.9709 C   0  0  0  0  0  0  0  0  0  0  0  0
   -0.7131   -4.8037    2.9361 O   0  0  0  0  0  0  0  0  0  0  0  0
   -1.7582    1.3241   -0.4207 H   0  0  0  0  0  0  0  0  0  0  0  0
    1.0075    0.5346    0.2369 H   0  0  0  0  0  0  0  0  0  0  0  0
    0.8338   -1.1581   -1.7261 H   0  0  0  0  0  0  0  0  0  0  0  0
   -0.8914   -0.8964   -1.7362 H   0  0  0  0  0  0  0  0  0  0  0  0
    1.9156   -2.1344    0.3845 H   0  0  0  0  0  0  0  0  0  0  0  0
   -2.3517   -1.9401   -0.1727 H   0  0  0  0  0  0  0  0  0  0  0  0
    1.6077   -3.8456    2.1357 H   0  0  0  0  0  0  0  0  0  0  0  0
   -2.6563   -3.6513    1.5787 H   0  0  0  0  0  0  0  0  0  0  0  0
   -1.6566   -4.9959    3.0574 H   0  0  0  0  0  0  0  0  0  0  0  0
    1.9066    1.5485   -1.8803 N   0  0  0  0  0  0  0  0  0  0  0  0
    2.5009    2.4126   -2.8748 C   0  0  2  0  0  0  0  0  0  0  0  0
    1.7311    2.2309   -4.1762 C   0  0  0  0  0  0  0  0  0  0  0  0
    1.0695    1.2263   -4.4296 O   0  0  0  0  0  0  0  0  0  0  0  0
    3.9767    2.1005   -3.0680 C   0  0  0  0  0  0  0  0  0  0  0  0
    2.5172    0.9399   -1.3432 H   0  0  0  0  0  0  0  0  0  0  0  0
    2.3759    3.4402   -2.5163 H   0  0  0  0  0  0  0  0  0  0  0  0
    4.1218    1.0751   -3.4270 H   0  0  0  0  0  0  0  0  0  0  0  0
    4.4322    2.7747   -3.8008 H   0  0  0  0  0  0  0  0  0  0  0  0
    4.5235    2.2028   -2.1245 H   0  0  0  0  0  0  0  0  0  0  0  0
    1.9049    3.3036   -5.0395 N   0  0  0  0  0  0  0  0  0  0  0  0
    1.2872    3.3628   -6.3437 C   0  0  0  0  0  0  0  0  0  0  0  0
    2.4553    4.1027   -4.7391 H   0  0  0  0  0  0  0  0  0  0  0  0
    1.9771    2.9525   -7.0957 H   0  0  0  0  0  0  0  0  0  0  0  0
    0.3591    2.7723   -6.3368 H   0  0  0  0  0  0  0  0  0  0  0  0
    1.0544    4.4088   -6.5919 H   0  0  0  0  0  0  0  0  0  0  0  0
 23 25  2  0  0  0  0
 22 23  1  0  0  0  0
 24 26  1  0  0  0  0
 22 24  2  0  0  0  0
 25 27  1  0  0  0  0
 26 27  2  0  0  0  0
 21 22  1  0  0  0  0
 27 28  1  0  0  0  0
  1  3  1  0  0  0  0
  1  7  1  0  0  0  0
  1  2  2  0  0  0  0
 39 40  1  0  0  0  0
 40 48  1  0  0  0  0
 40 41  2  0  0  0  0
  8  9  1  0  0  0  0
  9 17  1  0  0  0  0
  9 10  2  0  0  0  0
 18 19  1  0  0  0  0
 19 38  1  0  0  0  0
 19 20  2  0  0  0  0
 39 42  1  0  0  0  0
  8 11  1  0  0  0  0
 48 49  1  0  0  0  0
 18 21  1  0  0  0  0
 38 39  1  0  0  0  0
  7  8  1  0  0  0  0
 17 18  1  0  0  0  0
 23 33  1  0  0  0  0
 24 34  1  0  0  0  0
 25 35  1  0  0  0  0
 26 36  1  0  0  0  0
  3  4  1  0  0  0  0
  3  5  1  0  0  0  0
  3  6  1  0  0  0  0
 42 45  1  0  0  0  0
 42 46  1  0  0  0  0
 42 47  1  0  0  0  0
 11 14  1  0  0  0  0
 11 15  1  0  0  0  0
 11 16  1  0  0  0  0
 49 51  1  0  0  0  0
 49 52  1  0  0  0  0
 49 53  1  0  0  0  0
 21 31  1  0  0  0  0
 21 32  1  0  0  0  0
 39 44  1  0  0  0  0
  8 13  1  0  0  0  0
 18 30  1  0  0  0  0
 48 50  1  0  0  0  0
  7 12  1  0  0  0  0
 38 43  1  0  0  0  0
 17 29  1  0  0  0  0
 28 37  1  0  0  0  0
M  END
$$$$

  -OEChem-05262214473D

 53 53  0     1  0  0  0  0  0999 V2000
   -1.9298    0.2574    3.9747 C   0  0  0  0  0  0  0  0  0  0  0  0
   -0.9825   -0.3573    3.4990 O   0  0  0  0  0  0  0  0  0  0  0  0
   -2.3617   -0.0250    5.3754 C   0  0  0  0  0  0  0  0  0  0  0  0
   -3.1214   -0.8213    5.4288 H   0  0  0  0  0  0  0  0  0  0  0  0
   -1.5305   -0.3726    6.0097 H   0  0  0  0  0  0  0  0  0  0  0  0
   -2.7997    0.8299    5.9150 H   0  0  0  0  0  0  0  0  0  0  0  0
   -2.6795    1.2298    3.3336 N   0  0  0  0  0  0  0  0  0  0  0  0
   -2.4327    1.6559    1.9812 C   0  0  2  0  0  0  0  0  0  0  0  0
   -1.0977    1.0705    1.5400 C   0  0  0  0  0  0  0  0  0  0  0  0
   -0.2256    0.7177    2.3313 O   0  0  0  0  0  0  0  0  0  0  0  0
   -2.4239    3.1726    1.8718 C   0  0  0  0  0  0  0  0  0  0  0  0
   -3.4446    1.6657    3.8454 H   0  0  0  0  0  0  0  0  0  0  0  0
   -3.2368    1.2374    1.3661 H   0  0  0  0  0  0  0  0  0  0  0  0
   -1.6248    3.6099    2.4815 H   0  0  0  0  0  0  0  0  0  0  0  0
   -2.2644    3.4949    0.8375 H   0  0  0  0  0  0  0  0  0  0  0  0
   -3.3741    3.5939    2.2175 H   0  0  0  0  0  0  0  0  0  0  0  0
   -0.9750    1.0274    0.1566 N   0  0  0  0  0  0  0  0  0  0  0  0
    0.2023    0.5266   -0.5070 C   0  0  2  0  0  0  0  0  0  0  0  0
    0.5434    1.5085   -1.6222 C   0  0  0  0  0  0  0  0  0  0  0  0
   -0.2284    2.3880   -1.9986 O   0  0  0  0  0  0  0  0  0  0  0  0
   -0.0104   -0.8789   -1.0811 C   0  0  0  0  0  0  0  0  0  0  0  0
   -0.1977   -1.9248   -0.0093 C   0  0  0  0  0  0  0  0  0  0  0  0
    0.9123   -2.4629    0.6420 C   0  0  0  0  0  0  0  0  0  0  0  0
   -1.4810   -2.3539    0.3295 C   0  0  0  0  0  0  0  0  0  0  0  0
    0.7390   -3.4300    1.6321 C   0  0  0  0  0  0  0  0  0  0  0  0
   -1.6543   -3.3211    1.3196 C   0  0  0  0  0  0  0  0  0  0  0  0
   -0.5443   -3.8591    1.9709 C   0  0  0  0  0  0  0  0  0  0  0  0
   -0.7131   -4.8037    2.9361 O   0  0  0  0  0  0  0  0  0  0  0  0
   -1.7582    1.3241   -0.4207 H   0  0  0  0  0  0  0  0  0  0  0  0
    1.0075    0.5346    0.2369 H   0  0  0  0  0  0  0  0  0  0  0  0
    0.8338   -1.1581   -1.7261 H   0  0  0  0  0  0  0  0  0  0  0  0
   -0.8914   -0.8964   -1.7362 H   0  0  0  0  0  0  0  0  0  0  0  0
    1.9156   -2.1344    0.3845 H   0  0  0  0  0  0  0  0  0  0  0  0
   -2.3517   -1.9401   -0.1727 H   0  0  0  0  0  0  0  0  0  0  0  0
    1.6077   -3.8456    2.1357 H   0  0  0  0  0  0  0  0  0  0  0  0
   -2.6563   -3.6513    1.5787 H   0  0  0  0  0  0  0  0  0  0  0  0
   -1.6566   -4.9959    3.0574 H   0  0  0  0  0  0  0  0  0  0  0  0
    1.8286    1.3154   -2.1094 N   0  0  0  0  0  0  0  0  0  0  0  0
    2.4114    2.1262   -3.1543 C   0  0  2  0  0  0  0  0  0  0  0  0
    1.4215    2.1863   -4.3102 C   0  0  0  0  0  0  0  0  0  0  0  0
    0.5453    1.3426   -4.4875 O   0  0  0  0  0  0  0  0  0  0  0  0
    3.7476    1.5625   -3.6118 C   0  0  0  0  0  0  0  0  0  0  0  0
    2.3878    0.5666   -1.7115 H   0  0  0  0  0  0  0  0  0  0  0  0
    2.5478    3.1298   -2.7369 H   0  0  0  0  0  0  0  0  0  0  0  0
    3.6310    0.5573   -4.0330 H   0  0  0  0  0  0  0  0  0  0  0  0
    4.2012    2.1935   -4.3833 H   0  0  0  0  0  0  0  0  0  0  0  0
    4.4486    1.4921   -2.7731 H   0  0  0  0  0  0  0  0  0  0  0  0
    1.6589    3.2695   -5.1448 N   0  0  0  0  0  0  0  0  0  0  0  0
    0.8625    3.5379   -6.3194 C   0  0  0  0  0  0  0  0  0  0  0  0
    2.3951    3.9289   -4.9105 H   0  0  0  0  0  0  0  0  0  0  0  0
    1.3293    3.0641   -7.1956 H   0  0  0  0  0  0  0  0  0  0  0  0
   -0.1491    3.1298   -6.1775 H   0  0  0  0  0  0  0  0  0  0  0  0
    0.8005    4.6244   -6.4798 H   0  0  0  0  0  0  0  0  0  0  0  0
 23 25  2  0  0  0  0
 22 23  1  0  0  0  0
 24 26  1  0  0  0  0
 22 24  2  0  0  0  0
 25 27  1  0  0  0  0
 26 27  2  0  0  0  0
 21 22  1  0  0  0  0
 27 28  1  0  0  0  0
  1  3  1  0  0  0  0
  1  7  1  0  0  0  0
  1  2  2  0  0  0  0
 39 40  1  0  0  0  0
 40 48  1  0  0  0  0
 40 41  2  0  0  0  0
  8  9  1  0  0  0  0
  9 17  1  0  0  0  0
  9 10  2  0  0  0  0
 18 19  1  0  0  0  0
 19 38  1  0  0  0  0
 19 20  2  0  0  0  0
 39 42  1  0  0  0  0
  8 11  1  0  0  0  0
 48 49  1  0  0  0  0
 18 21  1  0  0  0  0
 38 39  1  0  0  0  0
  7  8  1  0  0  0  0
 17 18  1  0  0  0  0
 23 33  1  0  0  0  0
 24 34  1  0  0  0  0
 25 35  1  0  0  0  0
 26 36  1  0  0  0  0
  3  4  1  0  0  0  0
  3  5  1  0  0  0  0
  3  6  1  0  0  0  0
 42 45  1  0  0  0  0
 42 46  1  0  0  0  0
 42 47  1  0  0  0  0
 11 14  1  0  0  0  0
 11 15  1  0  0  0  0
 11 16  1  0  0  0  0
 49 51  1  0  0  0  0
 49 52  1  0  0  0  0
 49 53  1  0  0  0  0
 21 31  1  0  0  0  0
 21 32  1  0  0  0  0
 39 44  1  0  0  0  0
  8 13  1  0  0  0  0
 18 30  1  0  0  0  0
 48 50  1  0  0  0  0
  7 12  1  0  0  0  0
 38 43  1  0  0  0  0
 17 29  1  0  0  0  0
 28 37  1  0  0  0  0
M  END
$$$$

  -OEChem-05262214473D

 53 53  0     1  0  0  0  0  0999 V2000
   -1.9298    0.2574    3.9747 C   0  0  0  0  0  0  0  0  0  0  0  0
   -0.9825   -0.3573    3.4990 O   0  0  0  0  0  0  0  0  0  0  0  0
   -2.3617   -0.0250    5.3754 C   0  0  0  0  0  0  0  0  0  0  0  0
   -3.1214   -0.8213    5.4288 H   0  0  0  0  0  0  0  0  0  0  0  0
   -1.5305   -0.3726    6.0097 H   0  0  0  0  0  0  0  0  0  0  0  0
   -2.7997    0.8299    5.9150 H   0  0  0  0  0  0  0  0  0  0  0  0
   -2.6795    1.2298    3.3336 N   0  0  0  0  0  0  0  0  0  0  0  0
   -2.4327    1.6559    1.9812 C   0  0  2  0  0  0  0  0  0  0  0  0
   -1.0977    1.0705    1.5400 C   0  0  0  0  0  0  0  0  0  0  0  0
   -0.2256    0.7177    2.3313 O   0  0  0  0  0  0  0  0  0  0  0  0
   -2.4239    3.1726    1.8718 C   0  0  0  0  0  0  0  0  0  0  0  0
   -3.4446    1.6657    3.8454 H   0  0  0  0  0  0  0  0  0  0  0  0
   -3.2368    1.2374    1.3661 H   0  0  0  0  0  0  0  0  0  0  0  0
   -1.6248    3.6099    2.4815 H   0  0  0  0  0  0  0  0  0  0  0  0
   -2.2644    3.4949    0.8375 H   0  0  0  0  0  0  0  0  0  0  0  0
   -3.3741    3.5939    2.2175 H   0  0  0  0  0  0  0  0  0  0  0  0
   -0.9750    1.0274    0.1566 N   0  0  0  0  0  0  0  0  0  0  0  0
    0.2023    0.5266   -0.5070 C   0  0  2  0  0  0  0  0  0  0  0  0
    0.7616    1.6648   -1.3530 C   0  0  0  0  0  0  0  0  0  0  0  0
    0.2659    2.7894   -1.3736 O   0  0  0  0  0  0  0  0  0  0  0  0
   -0.1029   -0.6912   -1.3868 C   0  0  0  0  0  0  0  0  0  0  0  0
   -0.5128   -1.9024   -0.5852 C   0  0  0  0  0  0  0  0  0  0  0  0
    0.4588   -2.7015    0.0175 C   0  0  0  0  0  0  0  0  0  0  0  0
   -1.8633   -2.2230   -0.4475 C   0  0  0  0  0  0  0  0  0  0  0  0
    0.0798   -3.8212    0.7580 C   0  0  0  0  0  0  0  0  0  0  0  0
   -2.2423   -3.3428    0.2929 C   0  0  0  0  0  0  0  0  0  0  0  0
   -1.2707   -4.1419    0.8957 C   0  0  0  0  0  0  0  0  0  0  0  0
   -1.6402   -5.2352    1.6171 O   0  0  0  0  0  0  0  0  0  0  0  0
   -1.7582    1.3241   -0.4207 H   0  0  0  0  0  0  0  0  0  0  0  0
    0.9228    0.2774    0.2808 H   0  0  0  0  0  0  0  0  0  0  0  0
    0.7674   -0.9379   -2.0100 H   0  0  0  0  0  0  0  0  0  0  0  0
   -0.9085   -0.4597   -2.0962 H   0  0  0  0  0  0  0  0  0  0  0  0
    1.5132   -2.4591   -0.0844 H   0  0  0  0  0  0  0  0  0  0  0  0
   -2.6272   -1.6060   -0.9135 H   0  0  0  0  0  0  0  0  0  0  0  0
    0.8414   -4.4400    1.2249 H   0  0  0  0  0  0  0  0  0  0  0  0
   -3.2957   -3.5874    0.3962 H   0  0  0  0  0  0  0  0  0  0  0  0
   -2.6065   -5.3250    1.6207 H   0  0  0  0  0  0  0  0  0  0  0  0
    1.9066    1.2870   -2.0406 N   0  0  0  0  0  0  0  0  0  0  0  0
    2.6495    2.1828   -2.8976 C   0  0  2  0  0  0  0  0  0  0  0  0
    1.6649    2.8445   -3.8526 C   0  0  0  0  0  0  0  0  0  0  0  0
    0.5710    2.3580   -4.1317 O   0  0  0  0  0  0  0  0  0  0  0  0
    3.7353    1.4426   -3.6631 C   0  0  0  0  0  0  0  0  0  0  0  0
    2.2391    0.3329   -1.9362 H   0  0  0  0  0  0  0  0  0  0  0  0
    3.0967    2.9434   -2.2483 H   0  0  0  0  0  0  0  0  0  0  0  0
    3.3063    0.6764   -4.3191 H   0  0  0  0  0  0  0  0  0  0  0  0
    4.3157    2.1274   -4.2902 H   0  0  0  0  0  0  0  0  0  0  0  0
    4.4254    0.9426   -2.9750 H   0  0  0  0  0  0  0  0  0  0  0  0
    2.1692    4.0206   -4.3900 N   0  0  0  0  0  0  0  0  0  0  0  0
    1.4297    4.8270   -5.3328 C   0  0  0  0  0  0  0  0  0  0  0  0
    3.0780    4.3587   -4.0875 H   0  0  0  0  0  0  0  0  0  0  0  0
    1.6914    4.5260   -6.3579 H   0  0  0  0  0  0  0  0  0  0  0  0
    0.3512    4.6821   -5.1723 H   0  0  0  0  0  0  0  0  0  0  0  0
    1.6831    5.8873   -5.1861 H   0  0  0  0  0  0  0  0  0  0  0  0
 23 25  2  0  0  0  0
 22 23  1  0  0  0  0
 24 26  1  0  0  0  0
 22 24  2  0  0  0  0
 25 27  1  0  0  0  0
 26 27  2  0  0  0  0
 21 22  1  0  0  0  0
 27 28  1  0  0  0  0
  1  3  1  0  0  0  0
  1  7  1  0  0  0  0
  1  2  2  0  0  0  0
 39 40  1  0  0  0  0
 40 48  1  0  0  0  0
 40 41  2  0  0  0  0
  8  9  1  0  0  0  0
  9 17  1  0  0  0  0
  9 10  2  0  0  0  0
 18 19  1  0  0  0  0
 19 38  1  0  0  0  0
 19 20  2  0  0  0  0
 39 42  1  0  0  0  0
  8 11  1  0  0  0  0
 48 49  1  0  0  0  0
 18 21  1  0  0  0  0
 38 39  1  0  0  0  0
  7  8  1  0  0  0  0
 17 18  1  0  0  0  0
 23 33  1  0  0  0  0
 24 34  1  0  0  0  0
 25 35  1  0  0  0  0
 26 36  1  0  0  0  0
  3  4  1  0  0  0  0
  3  5  1  0  0  0  0
  3  6  1  0  0  0  0
 42 45  1  0  0  0  0
 42 46  1  0  0  0  0
 42 47  1  0  0  0  0
 11 14  1  0  0  0  0
 11 15  1  0  0  0  0
 11 16  1  0  0  0  0
 49 51  1  0  0  0  0
 49 52  1  0  0  0  0
 49 53  1  0  0  0  0
 21 31  1  0  0  0  0
 21 32  1  0  0  0  0
 39 44  1  0  0  0  0
  8 13  1  0  0  0  0
 18 30  1  0  0  0  0
 48 50  1  0  0  0  0
  7 12  1  0  0  0  0
 38 43  1  0  0  0  0
 17 29  1  0  0  0  0
 28 37  1  0  0  0  0
M  END
$$$$

  -OEChem-05262214473D

 53 53  0     1  0  0  0  0  0999 V2000
   -1.9298    0.2574    3.9747 C   0  0  0  0  0  0  0  0  0  0  0  0
   -0.9825   -0.3573    3.4990 O   0  0  0  0  0  0  0  0  0  0  0  0
   -2.3617   -0.0250    5.3754 C   0  0  0  0  0  0  0  0  0  0  0  0
   -3.1214   -0.8213    5.4288 H   0  0  0  0  0  0  0  0  0  0  0  0
   -1.5305   -0.3726    6.0097 H   0  0  0  0  0  0  0  0  0  0  0  0
   -2.7997    0.8299    5.9150 H   0  0  0  0  0  0  0  0  0  0  0  0
   -2.6795    1.2298    3.3336 N   0  0  0  0  0  0  0  0  0  0  0  0
   -2.4327    1.6559    1.9812 C   0  0  2  0  0  0  0  0  0  0  0  0
   -1.0977    1.0705    1.5400 C   0  0  0  0  0  0  0  0  0  0  0  0
   -0.2256    0.7177    2.3313 O   0  0  0  0  0  0  0  0  0  0  0  0
   -2.4239    3.1726    1.8718 C   0  0  0  0  0  0  0  0  0  0  0  0
   -3.4446    1.6657    3.8454 H   0  0  0  0  0  0  0  0  0  0  0  0
   -3.2368    1.2374    1.3661 H   0  0  0  0  0  0  0  0  0  0  0  0
   -1.6248    3.6099    2.4815 H   0  0  0  0  0  0  0  0  0  0  0  0
   -2.2644    3.4949    0.8375 H   0  0  0  0  0  0  0  0  0  0  0  0
   -3.3741    3.5939    2.2175 H   0  0  0  0  0  0  0  0  0  0  0  0
   -0.9750    1.0274    0.1566 N   0  0  0  0  0  0  0  0  0  0  0  0
    0.2023    0.5266   -0.5070 C   0  0  2  0  0  0  0  0  0  0  0  0
    0.7616    1.6648   -1.3530 C   0  0  0  0  0  0  0  0  0  0  0  0
    0.4487    2.8413   -1.1829 O   0  0  0  0  0  0  0  0  0  0  0  0
   -0.1029   -0.6912   -1.3868 C   0  0  0  0  0  0  0  0  0  0  0  0
   -0.5128   -1.9024   -0.5852 C   0  0  0  0  0  0  0  0  0  0  0  0
    0.4588   -2.7015    0.0175 C   0  0  0  0  0  0  0  0  0  0  0  0
   -1.8633   -2.2230   -0.4475 C   0  0  0  0  0  0  0  0  0  0  0  0
    0.0798   -3.8212    0.7580 C   0  0  0  0  0  0  0  0  0  0  0  0
   -2.2423   -3.3428    0.2929 C   0  0  0  0  0  0  0  0  0  0  0  0
   -1.2707   -4.1419    0.8957 C   0  0  0  0  0  0  0  0  0  0  0  0
   -1.6402   -5.2352    1.6171 O   0  0  0  0  0  0  0  0  0  0  0  0
   -1.7582    1.3241   -0.4207 H   0  0  0  0  0  0  0  0  0  0  0  0
    0.9228    0.2774    0.2808 H   0  0  0  0  0  0  0  0  0  0  0  0
    0.7674   -0.9379   -2.0100 H   0  0  0  0  0  0  0  0  0  0  0  0
   -0.9085   -0.4597   -2.0962 H   0  0  0  0  0  0  0  0  0  0  0  0
    1.5132   -2.4591   -0.0844 H   0  0  0  0  0  0  0  0  0  0  0  0
   -2.6272   -1.6060   -0.9135 H   0  0  0  0  0  0  0  0  0  0  0  0
    0.8414   -4.4400    1.2249 H   0  0  0  0  0  0  0  0  0  0  0  0
   -3.2957   -3.5874    0.3962 H   0  0  0  0  0  0  0  0  0  0  0  0
   -2.6065   -5.3250    1.6207 H   0  0  0  0  0  0  0  0  0  0  0  0
    1.6869    1.2139   -2.2841 N   0  0  0  0  0  0  0  0  0  0  0  0
    2.3853    2.0899   -3.1972 C   0  0  2  0  0  0  0  0  0  0  0  0
    1.3530    2.9781   -3.8791 C   0  0  0  0  0  0  0  0  0  0  0  0
    0.1650    2.6763   -3.9719 O   0  0  0  0  0  0  0  0  0  0  0  0
    3.1833    1.2986   -4.2219 C   0  0  0  0  0  0  0  0  0  0  0  0
    1.8832    0.2182   -2.3259 H   0  0  0  0  0  0  0  0  0  0  0  0
    3.0566    2.7081   -2.5913 H   0  0  0  0  0  0  0  0  0  0  0  0
    2.5275    0.6731   -4.8385 H   0  0  0  0  0  0  0  0  0  0  0  0
    3.7344    1.9636   -4.8950 H   0  0  0  0  0  0  0  0  0  0  0  0
    3.9047    0.6384   -3.7286 H   0  0  0  0  0  0  0  0  0  0  0  0
    1.9223    4.1273   -4.4097 N   0  0  0  0  0  0  0  0  0  0  0  0
    1.1523    5.1237   -5.1170 C   0  0  0  0  0  0  0  0  0  0  0  0
    2.9123    4.3053   -4.2689 H   0  0  0  0  0  0  0  0  0  0  0  0
    1.1693    4.9039   -6.1947 H   0  0  0  0  0  0  0  0  0  0  0  0
    0.1133    5.1083   -4.7561 H   0  0  0  0  0  0  0  0  0  0  0  0
    1.5877    6.1180   -4.9388 H   0  0  0  0  0  0  0  0  0  0  0  0
 23 25  2  0  0  0  0
 22 23  1  0  0  0  0
 24 26  1  0  0  0  0
 22 24  2  0  0  0  0
 25 27  1  0  0  0  0
 26 27  2  0  0  0  0
 21 22  1  0  0  0  0
 27 28  1  0  0  0  0
  1  3  1  0  0  0  0
  1  7  1  0  0  0  0
  1  2  2  0  0  0  0
 39 40  1  0  0  0  0
 40 48  1  0  0  0  0
 40 41  2  0  0  0  0
  8  9  1  0  0  0  0
  9 17  1  0  0  0  0
  9 10  2  0  0  0  0
 18 19  1  0  0  0  0
 19 38  1  0  0  0  0
 19 20  2  0  0  0  0
 39 42  1  0  0  0  0
  8 11  1  0  0  0  0
 48 49  1  0  0  0  0
 18 21  1  0  0  0  0
 38 39  1  0  0  0  0
  7  8  1  0  0  0  0
 17 18  1  0  0  0  0
 23 33  1  0  0  0  0
 24 34  1  0  0  0  0
 25 35  1  0  0  0  0
 26 36  1  0  0  0  0
  3  4  1  0  0  0  0
  3  5  1  0  0  0  0
  3  6  1  0  0  0  0
 42 45  1  0  0  0  0
 42 46  1  0  0  0  0
 42 47  1  0  0  0  0
 11 14  1  0  0  0  0
 11 15  1  0  0  0  0
 11 16  1  0  0  0  0
 49 51  1  0  0  0  0
 49 52  1  0  0  0  0
 49 53  1  0  0  0  0
 21 31  1  0  0  0  0
 21 32  1  0  0  0  0
 39 44  1  0  0  0  0
  8 13  1  0  0  0  0
 18 30  1  0  0  0  0
 48 50  1  0  0  0  0
  7 12  1  0  0  0  0
 38 43  1  0  0  0  0
 17 29  1  0  0  0  0
 28 37  1  0  0  0  0
M  END
$$$$

  -OEChem-05262214473D

 53 53  0     1  0  0  0  0  0999 V2000
   -1.9298    0.2574    3.9747 C   0  0  0  0  0  0  0  0  0  0  0  0
   -0.9825   -0.3573    3.4990 O   0  0  0  0  0  0  0  0  0  0  0  0
   -2.3617   -0.0250    5.3754 C   0  0  0  0  0  0  0  0  0  0  0  0
   -3.1214   -0.8213    5.4288 H   0  0  0  0  0  0  0  0  0  0  0  0
   -1.5305   -0.3726    6.0097 H   0  0  0  0  0  0  0  0  0  0  0  0
   -2.7997    0.8299    5.9150 H   0  0  0  0  0  0  0  0  0  0  0  0
   -2.6795    1.2298    3.3336 N   0  0  0  0  0  0  0  0  0  0  0  0
   -2.4327    1.6559    1.9812 C   0  0  2  0  0  0  0  0  0  0  0  0
   -1.0977    1.0705    1.5400 C   0  0  0  0  0  0  0  0  0  0  0  0
   -0.2256    0.7177    2.3313 O   0  0  0  0  0  0  0  0  0  0  0  0
   -2.4239    3.1726    1.8718 C   0  0  0  0  0  0  0  0  0  0  0  0
   -3.4446    1.6657    3.8454 H   0  0  0  0  0  0  0  0  0  0  0  0
   -3.2368    1.2374    1.3661 H   0  0  0  0  0  0  0  0  0  0  0  0
   -1.6248    3.6099    2.4815 H   0  0  0  0  0  0  0  0  0  0  0  0
   -2.2644    3.4949    0.8375 H   0  0  0  0  0  0  0  0  0  0  0  0
   -3.3741    3.5939    2.2175 H   0  0  0  0  0  0  0  0  0  0  0  0
   -0.9750    1.0274    0.1566 N   0  0  0  0  0  0  0  0  0  0  0  0
    0.2023    0.5266   -0.5070 C   0  0  2  0  0  0  0  0  0  0  0  0
    0.7616    1.6648   -1.3530 C   0  0  0  0  0  0  0  0  0  0  0  0
    0.6695    2.8470   -1.0292 O   0  0  0  0  0  0  0  0  0  0  0  0
   -0.1029   -0.6912   -1.3868 C   0  0  0  0  0  0  0  0  0  0  0  0
   -0.5128   -1.9024   -0.5852 C   0  0  0  0  0  0  0  0  0  0  0  0
    0.4588   -2.7015    0.0175 C   0  0  0  0  0  0  0  0  0  0  0  0
   -1.8633   -2.2230   -0.4475 C   0  0  0  0  0  0  0  0  0  0  0  0
    0.0798   -3.8212    0.7580 C   0  0  0  0  0  0  0  0  0  0  0  0
   -2.2423   -3.3428    0.2929 C   0  0  0  0  0  0  0  0  0  0  0  0
   -1.2707   -4.1419    0.8957 C   0  0  0  0  0  0  0  0  0  0  0  0
   -1.6402   -5.2352    1.6171 O   0  0  0  0  0  0  0  0  0  0  0  0
   -1.7582    1.3241   -0.4207 H   0  0  0  0  0  0  0  0  0  0  0  0
    0.9228    0.2774    0.2808 H   0  0  0  0  0  0  0  0  0  0  0  0
    0.7674   -0.9379   -2.0100 H   0  0  0  0  0  0  0  0  0  0  0  0
   -0.9085   -0.4597   -2.0962 H   0  0  0  0  0  0  0  0  0  0  0  0
    1.5132   -2.4591   -0.0844 H   0  0  0  0  0  0  0  0  0  0  0  0
   -2.6272   -1.6060   -0.9135 H   0  0  0  0  0  0  0  0  0  0  0  0
    0.8414   -4.4400    1.2249 H   0  0  0  0  0  0  0  0  0  0  0  0
   -3.2957   -3.5874    0.3962 H   0  0  0  0  0  0  0  0  0  0  0  0
   -2.6065   -5.3250    1.6207 H   0  0  0  0  0  0  0  0  0  0  0  0
    1.4172    1.1980   -2.4839 N   0  0  0  0  0  0  0  0  0  0  0  0
    2.0589    2.0666   -3.4444 C   0  0  2  0  0  0  0  0  0  0  0  0
    1.0659    3.1544   -3.8318 C   0  0  0  0  0  0  0  0  0  0  0  0
   -0.1506    3.0268   -3.7090 O   0  0  0  0  0  0  0  0  0  0  0  0
    2.5214    1.2919   -4.6686 C   0  0  0  0  0  0  0  0  0  0  0  0
    1.4476    0.1955   -2.6444 H   0  0  0  0  0  0  0  0  0  0  0  0
    2.9179    2.5193   -2.9371 H   0  0  0  0  0  0  0  0  0  0  0  0
    1.6744    0.8311   -5.1899 H   0  0  0  0  0  0  0  0  0  0  0  0
    3.0326    1.9462   -5.3824 H   0  0  0  0  0  0  0  0  0  0  0  0
    3.2125    0.4909   -4.3847 H   0  0  0  0  0  0  0  0  0  0  0  0
    1.6953    4.2677   -4.3709 N   0  0  0  0  0  0  0  0  0  0  0  0
    0.9686    5.4296   -4.8269 C   0  0  0  0  0  0  0  0  0  0  0  0
    2.7096    4.2947   -4.4172 H   0  0  0  0  0  0  0  0  0  0  0  0
    0.7507    5.3285   -5.9003 H   0  0  0  0  0  0  0  0  0  0  0  0
    0.0252    5.5146   -4.2677 H   0  0  0  0  0  0  0  0  0  0  0  0
    1.5765    6.3310   -4.6596 H   0  0  0  0  0  0  0  0  0  0  0  0
 23 25  2  0  0  0  0
 22 23  1  0  0  0  0
 24 26  1  0  0  0  0
 22 24  2  0  0  0  0
 25 27  1  0  0  0  0
 26 27  2  0  0  0  0
 21 22  1  0  0  0  0
 27 28  1  0  0  0  0
  1  3  1  0  0  0  0
  1  7  1  0  0  0  0
  1  2  2  0  0  0  0
 39 40  1  0  0  0  0
 40 48  1  0  0  0  0
 40 41  2  0  0  0  0
  8  9  1  0  0  0  0
  9 17  1  0  0  0  0
  9 10  2  0  0  0  0
 18 19  1  0  0  0  0
 19 38  1  0  0  0  0
 19 20  2  0  0  0  0
 39 42  1  0  0  0  0
  8 11  1  0  0  0  0
 48 49  1  0  0  0  0
 18 21  1  0  0  0  0
 38 39  1  0  0  0  0
  7  8  1  0  0  0  0
 17 18  1  0  0  0  0
 23 33  1  0  0  0  0
 24 34  1  0  0  0  0
 25 35  1  0  0  0  0
 26 36  1  0  0  0  0
  3  4  1  0  0  0  0
  3  5  1  0  0  0  0
  3  6  1  0  0  0  0
 42 45  1  0  0  0  0
 42 46  1  0  0  0  0
 42 47  1  0  0  0  0
 11 14  1  0  0  0  0
 11 15  1  0  0  0  0
 11 16  1  0  0  0  0
 49 51  1  0  0  0  0
 49 52  1  0  0  0  0
 49 53  1  0  0  0  0
 21 31  1  0  0  0  0
 21 32  1  0  0  0  0
 39 44  1  0  0  0  0
  8 13  1  0  0  0  0
 18 30  1  0  0  0  0
 48 50  1  0  0  0  0
  7 12  1  0  0  0  0
 38 43  1  0  0  0  0
 17 29  1  0  0  0  0
 28 37  1  0  0  0  0
M  END
$$$$

  -OEChem-05262214473D

 53 53  0     1  0  0  0  0  0999 V2000
   -1.9298    0.2574    3.9747 C   0  0  0  0  0  0  0  0  0  0  0  0
   -0.9825   -0.3573    3.4990 O   0  0  0  0  0  0  0  0  0  0  0  0
   -2.3617   -0.0250    5.3754 C   0  0  0  0  0  0  0  0  0  0  0  0
   -3.1214   -0.8213    5.4288 H   0  0  0  0  0  0  0  0  0  0  0  0
   -1.5305   -0.3726    6.0097 H   0  0  0  0  0  0  0  0  0  0  0  0
   -2.7997    0.8299    5.9150 H   0  0  0  0  0  0  0  0  0  0  0  0
   -2.6795    1.2298    3.3336 N   0  0  0  0  0  0  0  0  0  0  0  0
   -2.4327    1.6559    1.9812 C   0  0  2  0  0  0  0  0  0  0  0  0
   -1.0977    1.0705    1.5400 C   0  0  0  0  0  0  0  0  0  0  0  0
   -0.2256    0.7177    2.3313 O   0  0  0  0  0  0  0  0  0  0  0  0
   -2.4239    3.1726    1.8718 C   0  0  0  0  0  0  0  0  0  0  0  0
   -3.4446    1.6657    3.8454 H   0  0  0  0  0  0  0  0  0  0  0  0
   -3.2368    1.2374    1.3661 H   0  0  0  0  0  0  0  0  0  0  0  0
   -1.6248    3.6099    2.4815 H   0  0  0  0  0  0  0  0  0  0  0  0
   -2.2644    3.4949    0.8375 H   0  0  0  0  0  0  0  0  0  0  0  0
   -3.3741    3.5939    2.2175 H   0  0  0  0  0  0  0  0  0  0  0  0
   -0.9750    1.0274    0.1566 N   0  0  0  0  0  0  0  0  0  0  0  0
    0.2023    0.5266   -0.5070 C   0  0  2  0  0  0  0  0  0  0  0  0
    0.7616    1.6648   -1.3530 C   0  0  0  0  0  0  0  0  0  0  0  0
    0.9134    2.8062   -0.9228 O   0  0  0  0  0  0  0  0  0  0  0  0
   -0.1029   -0.6912   -1.3868 C   0  0  0  0  0  0  0  0  0  0  0  0
   -0.5128   -1.9024   -0.5852 C   0  0  0  0  0  0  0  0  0  0  0  0
    0.4588   -2.7015    0.0175 C   0  0  0  0  0  0  0  0  0  0  0  0
   -1.8633   -2.2230   -0.4475 C   0  0  0  0  0  0  0  0  0  0  0  0
    0.0798   -3.8212    0.7580 C   0  0  0  0  0  0  0  0  0  0  0  0
   -2.2423   -3.3428    0.2929 C   0  0  0  0  0  0  0  0  0  0  0  0
   -1.2707   -4.1419    0.8957 C   0  0  0  0  0  0  0  0  0  0  0  0
   -1.6402   -5.2352    1.6171 O   0  0  0  0  0  0  0  0  0  0  0  0
   -1.7582    1.3241   -0.4207 H   0  0  0  0  0  0  0  0  0  0  0  0
    0.9228    0.2774    0.2808 H   0  0  0  0  0  0  0  0  0  0  0  0
    0.7674   -0.9379   -2.0100 H   0  0  0  0  0  0  0  0  0  0  0  0
   -0.9085   -0.4597   -2.0962 H   0  0  0  0  0  0  0  0  0  0  0  0
    1.5132   -2.4591   -0.0844 H   0  0  0  0  0  0  0  0  0  0  0  0
   -2.6272   -1.6060   -0.9135 H   0  0  0  0  0  0  0  0  0  0  0  0
    0.8414   -4.4400    1.2249 H   0  0  0  0  0  0  0  0  0  0  0  0
   -3.2957   -3.5874    0.3962 H   0  0  0  0  0  0  0  0  0  0  0  0
   -2.6065   -5.3250    1.6207 H   0  0  0  0  0  0  0  0  0  0  0  0
    1.1158    1.2404   -2.6262 N   0  0  0  0  0  0  0  0  0  0  0  0
    1.6925    2.1145   -3.6223 C   0  0  2  0  0  0  0  0  0  0  0  0
    0.8230    3.3615   -3.7138 C   0  0  0  0  0  0  0  0  0  0  0  0
   -0.3543    3.3857   -3.3607 O   0  0  0  0  0  0  0  0  0  0  0  0
    1.7948    1.4228   -4.9728 C   0  0  0  0  0  0  0  0  0  0  0  0
    0.9620    0.2664   -2.8701 H   0  0  0  0  0  0  0  0  0  0  0  0
    2.6899    2.3896   -3.2623 H   0  0  0  0  0  0  0  0  0  0  0  0
    0.8052    1.1396   -5.3496 H   0  0  0  0  0  0  0  0  0  0  0  0
    2.2580    2.0765   -5.7192 H   0  0  0  0  0  0  0  0  0  0  0  0
    2.3959    0.5101   -4.8987 H   0  0  0  0  0  0  0  0  0  0  0  0
    1.5037    4.4322   -4.2762 N   0  0  0  0  0  0  0  0  0  0  0  0
    0.8912    5.7240   -4.4820 C   0  0  0  0  0  0  0  0  0  0  0  0
    2.4836    4.3277   -4.5223 H   0  0  0  0  0  0  0  0  0  0  0  0
    0.4643    5.7707   -5.4947 H   0  0  0  0  0  0  0  0  0  0  0  0
    0.0927    5.8734   -3.7403 H   0  0  0  0  0  0  0  0  0  0  0  0
    1.6502    6.5119   -4.3675 H   0  0  0  0  0  0  0  0  0  0  0  0
 23 25  2  0  0  0  0
 22 23  1  0  0  0  0
 24 26  1  0  0  0  0
 22 24  2  0  0  0  0
 25 27  1  0  0  0  0
 26 27  2  0  0  0  0
 21 22  1  0  0  0  0
 27 28  1  0  0  0  0
  1  3  1  0  0  0  0
  1  7  1  0  0  0  0
  1  2  2  0  0  0  0
 39 40  1  0  0  0  0
 40 48  1  0  0  0  0
 40 41  2  0  0  0  0
  8  9  1  0  0  0  0
  9 17  1  0  0  0  0
  9 10  2  0  0  0  0
 18 19  1  0  0  0  0
 19 38  1  0  0  0  0
 19 20  2  0  0  0  0
 39 42  1  0  0  0  0
  8 11  1  0  0  0  0
 48 49  1  0  0  0  0
 18 21  1  0  0  0  0
 38 39  1  0  0  0  0
  7  8  1  0  0  0  0
 17 18  1  0  0  0  0
 23 33  1  0  0  0  0
 24 34  1  0  0  0  0
 25 35  1  0  0  0  0
 26 36  1  0  0  0  0
  3  4  1  0  0  0  0
  3  5  1  0  0  0  0
  3  6  1  0  0  0  0
 42 45  1  0  0  0  0
 42 46  1  0  0  0  0
 42 47  1  0  0  0  0
 11 14  1  0  0  0  0
 11 15  1  0  0  0  0
 11 16  1  0  0  0  0
 49 51  1  0  0  0  0
 49 52  1  0  0  0  0
 49 53  1  0  0  0  0
 21 31  1  0  0  0  0
 21 32  1  0  0  0  0
 39 44  1  0  0  0  0
  8 13  1  0  0  0  0
 18 30  1  0  0  0  0
 48 50  1  0  0  0  0
  7 12  1  0  0  0  0
 38 43  1  0  0  0  0
 17 29  1  0  0  0  0
 28 37  1  0  0  0  0
M  END
$$$$

  -OEChem-05262214473D

 53 53  0     1  0  0  0  0  0999 V2000
   -1.9298    0.2574    3.9747 C   0  0  0  0  0  0  0  0  0  0  0  0
   -0.9825   -0.3573    3.4990 O   0  0  0  0  0  0  0  0  0  0  0  0
   -2.3617   -0.0250    5.3754 C   0  0  0  0  0  0  0  0  0  0  0  0
   -3.1214   -0.8213    5.4288 H   0  0  0  0  0  0  0  0  0  0  0  0
   -1.5305   -0.3726    6.0097 H   0  0  0  0  0  0  0  0  0  0  0  0
   -2.7997    0.8299    5.9150 H   0  0  0  0  0  0  0  0  0  0  0  0
   -2.6795    1.2298    3.3336 N   0  0  0  0  0  0  0  0  0  0  0  0
   -2.4327    1.6559    1.9812 C   0  0  2  0  0  0  0  0  0  0  0  0
   -1.0977    1.0705    1.5400 C   0  0  0  0  0  0  0  0  0  0  0  0
   -0.2256    0.7177    2.3313 O   0  0  0  0  0  0  0  0  0  0  0  0
   -2.4239    3.1726    1.8718 C   0  0  0  0  0  0  0  0  0  0  0  0
   -3.4446    1.6657    3.8454 H   0  0  0  0  0  0  0  0  0  0  0  0
   -3.2368    1.2374    1.3661 H   0  0  0  0  0  0  0  0  0  0  0  0
   -1.6248    3.6099    2.4815 H   0  0  0  0  0  0  0  0  0  0  0  0
   -2.2644    3.4949    0.8375 H   0  0  0  0  0  0  0  0  0  0  0  0
   -3.3741    3.5939    2.2175 H   0  0  0  0  0  0  0  0  0  0  0  0
   -0.9750    1.0274    0.1566 N   0  0  0  0  0  0  0  0  0  0  0  0
    0.2023    0.5266   -0.5070 C   0  0  2  0  0  0  0  0  0  0  0  0
    0.7616    1.6648   -1.3530 C   0  0  0  0  0  0  0  0  0  0  0  0
    1.1637    2.7217   -0.8711 O   0  0  0  0  0  0  0  0  0  0  0  0
   -0.1029   -0.6912   -1.3868 C   0  0  0  0  0  0  0  0  0  0  0  0
   -0.5128   -1.9024   -0.5852 C   0  0  0  0  0  0  0  0  0  0  0  0
    0.4588   -2.7015    0.0175 C   0  0  0  0  0  0  0  0  0  0  0  0
   -1.8633   -2.2230   -0.4475 C   0  0  0  0  0  0  0  0  0  0  0  0
    0.0798   -3.8212    0.7580 C   0  0  0  0  0  0  0  0  0  0  0  0
   -2.2423   -3.3428    0.2929 C   0  0  0  0  0  0  0  0  0  0  0  0
   -1.2707   -4.1419    0.8957 C   0  0  0  0  0  0  0  0  0  0  0  0
   -1.6402   -5.2352    1.6171 O   0  0  0  0  0  0  0  0  0  0  0  0
   -1.7582    1.3241   -0.4207 H   0  0  0  0  0  0  0  0  0  0  0  0
    0.9228    0.2774    0.2808 H   0  0  0  0  0  0  0  0  0  0  0  0
    0.7674   -0.9379   -2.0100 H   0  0  0  0  0  0  0  0  0  0  0  0
   -0.9085   -0.4597   -2.0962 H   0  0  0  0  0  0  0  0  0  0  0  0
    1.5132   -2.4591   -0.0844 H   0  0  0  0  0  0  0  0  0  0  0  0
   -2.6272   -1.6060   -0.9135 H   0  0  0  0  0  0  0  0  0  0  0  0
    0.8414   -4.4400    1.2249 H   0  0  0  0  0  0  0  0  0  0  0  0
   -3.2957   -3.5874    0.3962 H   0  0  0  0  0  0  0  0  0  0  0  0
   -2.6065   -5.3250    1.6207 H   0  0  0  0  0  0  0  0  0  0  0  0
    0.8033    1.3381   -2.7014 N   0  0  0  0  0  0  0  0  0  0  0  0
    1.3111    2.2302   -3.7188 C   0  0  2  0  0  0  0  0  0  0  0  0
    0.6409    3.5852   -3.5332 C   0  0  0  0  0  0  0  0  0  0  0  0
   -0.4321    3.7286   -2.9509 O   0  0  0  0  0  0  0  0  0  0  0  0
    1.0529    1.6826   -5.1138 C   0  0  0  0  0  0  0  0  0  0  0  0
    0.4596    0.4261   -2.9875 H   0  0  0  0  0  0  0  0  0  0  0  0
    2.3882    2.3280   -3.5447 H   0  0  0  0  0  0  0  0  0  0  0  0
   -0.0210    1.5777   -5.3065 H   0  0  0  0  0  0  0  0  0  0  0  0
    1.4634    2.3456   -5.8825 H   0  0  0  0  0  0  0  0  0  0  0  0
    1.5105    0.6948   -5.2356 H   0  0  0  0  0  0  0  0  0  0  0  0
    1.3605    4.6097   -4.1320 N   0  0  0  0  0  0  0  0  0  0  0  0
    0.9254    5.9866   -4.1060 C   0  0  0  0  0  0  0  0  0  0  0  0
    2.2497    4.4020   -4.5770 H   0  0  0  0  0  0  0  0  0  0  0  0
    0.3295    6.2005   -5.0056 H   0  0  0  0  0  0  0  0  0  0  0  0
    0.3115    6.1602   -3.2099 H   0  0  0  0  0  0  0  0  0  0  0  0
    1.8038    6.6483   -4.0824 H   0  0  0  0  0  0  0  0  0  0  0  0
 23 25  2  0  0  0  0
 22 23  1  0  0  0  0
 24 26  1  0  0  0  0
 22 24  2  0  0  0  0
 25 27  1  0  0  0  0
 26 27  2  0  0  0  0
 21 22  1  0  0  0  0
 27 28  1  0  0  0  0
  1  3  1  0  0  0  0
  1  7  1  0  0  0  0
  1  2  2  0  0  0  0
 39 40  1  0  0  0  0
 40 48  1  0  0  0  0
 40 41  2  0  0  0  0
  8  9  1  0  0  0  0
  9 17  1  0  0  0  0
  9 10  2  0  0  0  0
 18 19  1  0  0  0  0
 19 38  1  0  0  0  0
 19 20  2  0  0  0  0
 39 42  1  0  0  0  0
  8 11  1  0  0  0  0
 48 49  1  0  0  0  0
 18 21  1  0  0  0  0
 38 39  1  0  0  0  0
  7  8  1  0  0  0  0
 17 18  1  0  0  0  0
 23 33  1  0  0  0  0
 24 34  1  0  0  0  0
 25 35  1  0  0  0  0
 26 36  1  0  0  0  0
  3  4  1  0  0  0  0
  3  5  1  0  0  0  0
  3  6  1  0  0  0  0
 42 45  1  0  0  0  0
 42 46  1  0  0  0  0
 42 47  1  0  0  0  0
 11 14  1  0  0  0  0
 11 15  1  0  0  0  0
 11 16  1  0  0  0  0
 49 51  1  0  0  0  0
 49 52  1  0  0  0  0
 49 53  1  0  0  0  0
 21 31  1  0  0  0  0
 21 32  1  0  0  0  0
 39 44  1  0  0  0  0
  8 13  1  0  0  0  0
 18 30  1  0  0  0  0
 48 50  1  0  0  0  0
  7 12  1  0  0  0  0
 38 43  1  0  0  0  0
 17 29  1  0  0  0  0
 28 37  1  0  0  0  0
M  END
$$$$

  -OEChem-05262214473D

 53 53  0     1  0  0  0  0  0999 V2000
   -1.9298    0.2574    3.9747 C   0  0  0  0  0  0  0  0  0  0  0  0
   -0.9825   -0.3573    3.4990 O   0  0  0  0  0  0  0  0  0  0  0  0
   -2.3617   -0.0250    5.3754 C   0  0  0  0  0  0  0  0  0  0  0  0
   -3.1214   -0.8213    5.4288 H   0  0  0  0  0  0  0  0  0  0  0  0
   -1.5305   -0.3726    6.0097 H   0  0  0  0  0  0  0  0  0  0  0  0
   -2.7997    0.8299    5.9150 H   0  0  0  0  0  0  0  0  0  0  0  0
   -2.6795    1.2298    3.3336 N   0  0  0  0  0  0  0  0  0  0  0  0
   -2.4327    1.6559    1.9812 C   0  0  2  0  0  0  0  0  0  0  0  0
   -1.0977    1.0705    1.5400 C   0  0  0  0  0  0  0  0  0  0  0  0
   -0.2256    0.7177    2.3313 O   0  0  0  0  0  0  0  0  0  0  0  0
   -2.4239    3.1726    1.8718 C   0  0  0  0  0  0  0  0  0  0  0  0
   -3.4446    1.6657    3.8454 H   0  0  0  0  0  0  0  0  0  0  0  0
   -3.2368    1.2374    1.3661 H   0  0  0  0  0  0  0  0  0  0  0  0
   -1.6248    3.6099    2.4815 H   0  0  0  0  0  0  0  0  0  0  0  0
   -2.2644    3.4949    0.8375 H   0  0  0  0  0  0  0  0  0  0  0  0
   -3.3741    3.5939    2.2175 H   0  0  0  0  0  0  0  0  0  0  0  0
   -0.9750    1.0274    0.1566 N   0  0  0  0  0  0  0  0  0  0  0  0
    0.2023    0.5266   -0.5070 C   0  0  2  0  0  0  0  0  0  0  0  0
    0.7616    1.6648   -1.3530 C   0  0  0  0  0  0  0  0  0  0  0  0
    1.4033    2.5992   -0.8775 O   0  0  0  0  0  0  0  0  0  0  0  0
   -0.1029   -0.6912   -1.3868 C   0  0  0  0  0  0  0  0  0  0  0  0
   -0.5128   -1.9024   -0.5852 C   0  0  0  0  0  0  0  0  0  0  0  0
    0.4588   -2.7015    0.0175 C   0  0  0  0  0  0  0  0  0  0  0  0
   -1.8633   -2.2230   -0.4475 C   0  0  0  0  0  0  0  0  0  0  0  0
    0.0798   -3.8212    0.7580 C   0  0  0  0  0  0  0  0  0  0  0  0
   -2.2423   -3.3428    0.2929 C   0  0  0  0  0  0  0  0  0  0  0  0
   -1.2707   -4.1419    0.8957 C   0  0  0  0  0  0  0  0  0  0  0  0
   -1.6402   -5.2352    1.6171 O   0  0  0  0  0  0  0  0  0  0  0  0
   -1.7582    1.3241   -0.4207 H   0  0  0  0  0  0  0  0  0  0  0  0
    0.9228    0.2774    0.2808 H   0  0  0  0  0  0  0  0  0  0  0  0
    0.7674   -0.9379   -2.0100 H   0  0  0  0  0  0  0  0  0  0  0  0
   -0.9085   -0.4597   -2.0962 H   0  0  0  0  0  0  0  0  0  0  0  0
    1.5132   -2.4591   -0.0844 H   0  0  0  0  0  0  0  0  0  0  0  0
   -2.6272   -1.6060   -0.9135 H   0  0  0  0  0  0  0  0  0  0  0  0
    0.8414   -4.4400    1.2249 H   0  0  0  0  0  0  0  0  0  0  0  0
   -3.2957   -3.5874    0.3962 H   0  0  0  0  0  0  0  0  0  0  0  0
   -2.6065   -5.3250    1.6207 H   0  0  0  0  0  0  0  0  0  0  0  0
    0.5009    1.4845   -2.7043 N   0  0  0  0  0  0  0  0  0  0  0  0
    0.9406    2.4059   -3.7272 C   0  0  2  0  0  0  0  0  0  0  0  0
    0.5320    3.8102   -3.3024 C   0  0  0  0  0  0  0  0  0  0  0  0
   -0.3789    4.0321   -2.5074 O   0  0  0  0  0  0  0  0  0  0  0  0
    0.3464    2.0534   -5.0820 C   0  0  0  0  0  0  0  0  0  0  0  0
   -0.0255    0.6636   -2.9886 H   0  0  0  0  0  0  0  0  0  0  0  0
    2.0334    2.3386   -3.7650 H   0  0  0  0  0  0  0  0  0  0  0  0
   -0.7478    2.1153   -5.0637 H   0  0  0  0  0  0  0  0  0  0  0  0
    0.7030    2.7351   -5.8612 H   0  0  0  0  0  0  0  0  0  0  0  0
    0.6167    1.0324   -5.3724 H   0  0  0  0  0  0  0  0  0  0  0  0
    1.2756    4.7880   -3.9483 N   0  0  0  0  0  0  0  0  0  0  0  0
    1.0688    6.1998   -3.7245 C   0  0  0  0  0  0  0  0  0  0  0  0
    2.0239    4.5125   -4.5775 H   0  0  0  0  0  0  0  0  0  0  0  0
    0.3556    6.5885   -4.4663 H   0  0  0  0  0  0  0  0  0  0  0  0
    0.6664    6.3554   -2.7126 H   0  0  0  0  0  0  0  0  0  0  0  0
    2.0269    6.7309   -3.8238 H   0  0  0  0  0  0  0  0  0  0  0  0
 23 25  2  0  0  0  0
 22 23  1  0  0  0  0
 24 26  1  0  0  0  0
 22 24  2  0  0  0  0
 25 27  1  0  0  0  0
 26 27  2  0  0  0  0
 21 22  1  0  0  0  0
 27 28  1  0  0  0  0
  1  3  1  0  0  0  0
  1  7  1  0  0  0  0
  1  2  2  0  0  0  0
 39 40  1  0  0  0  0
 40 48  1  0  0  0  0
 40 41  2  0  0  0  0
  8  9  1  0  0  0  0
  9 17  1  0  0  0  0
  9 10  2  0  0  0  0
 18 19  1  0  0  0  0
 19 38  1  0  0  0  0
 19 20  2  0  0  0  0
 39 42  1  0  0  0  0
  8 11  1  0  0  0  0
 48 49  1  0  0  0  0
 18 21  1  0  0  0  0
 38 39  1  0  0  0  0
  7  8  1  0  0  0  0
 17 18  1  0  0  0  0
 23 33  1  0  0  0  0
 24 34  1  0  0  0  0
 25 35  1  0  0  0  0
 26 36  1  0  0  0  0
  3  4  1  0  0  0  0
  3  5  1  0  0  0  0
  3  6  1  0  0  0  0
 42 45  1  0  0  0  0
 42 46  1  0  0  0  0
 42 47  1  0  0  0  0
 11 14  1  0  0  0  0
 11 15  1  0  0  0  0
 11 16  1  0  0  0  0
 49 51  1  0  0  0  0
 49 52  1  0  0  0  0
 49 53  1  0  0  0  0
 21 31  1  0  0  0  0
 21 32  1  0  0  0  0
 39 44  1  0  0  0  0
  8 13  1  0  0  0  0
 18 30  1  0  0  0  0
 48 50  1  0  0  0  0
  7 12  1  0  0  0  0
 38 43  1  0  0  0  0
 17 29  1  0  0  0  0
 28 37  1  0  0  0  0
M  END
$$$$

  -OEChem-05262214473D

 53 53  0     1  0  0  0  0  0999 V2000
   -1.9298    0.2574    3.9747 C   0  0  0  0  0  0  0  0  0  0  0  0
   -0.9825   -0.3573    3.4990 O   0  0  0  0  0  0  0  0  0  0  0  0
   -2.3617   -0.0250    5.3754 C   0  0  0  0  0  0  0  0  0  0  0  0
   -3.1214   -0.8213    5.4288 H   0  0  0  0  0  0  0  0  0  0  0  0
   -1.5305   -0.3726    6.0097 H   0  0  0  0  0  0  0  0  0  0  0  0
   -2.7997    0.8299    5.9150 H   0  0  0  0  0  0  0  0  0  0  0  0
   -2.6795    1.2298    3.3336 N   0  0  0  0  0  0  0  0  0  0  0  0
   -2.4327    1.6559    1.9812 C   0  0  2  0  0  0  0  0  0  0  0  0
   -1.0977    1.0705    1.5400 C   0  0  0  0  0  0  0  0  0  0  0  0
   -0.2256    0.7177    2.3313 O   0  0  0  0  0  0  0  0  0  0  0  0
   -2.4239    3.1726    1.8718 C   0  0  0  0  0  0  0  0  0  0  0  0
   -3.4446    1.6657    3.8454 H   0  0  0  0  0  0  0  0  0  0  0  0
   -3.2368    1.2374    1.3661 H   0  0  0  0  0  0  0  0  0  0  0  0
   -1.6248    3.6099    2.4815 H   0  0  0  0  0  0  0  0  0  0  0  0
   -2.2644    3.4949    0.8375 H   0  0  0  0  0  0  0  0  0  0  0  0
   -3.3741    3.5939    2.2175 H   0  0  0  0  0  0  0  0  0  0  0  0
   -0.9750    1.0274    0.1566 N   0  0  0  0  0  0  0  0  0  0  0  0
    0.2023    0.5266   -0.5070 C   0  0  2  0  0  0  0  0  0  0  0  0
    0.7616    1.6648   -1.3530 C   0  0  0  0  0  0  0  0  0  0  0  0
    1.6159    2.4470   -0.9416 O   0  0  0  0  0  0  0  0  0  0  0  0
   -0.1029   -0.6912   -1.3868 C   0  0  0  0  0  0  0  0  0  0  0  0
   -0.5128   -1.9024   -0.5852 C   0  0  0  0  0  0  0  0  0  0  0  0
    0.4588   -2.7015    0.0175 C   0  0  0  0  0  0  0  0  0  0  0  0
   -1.8633   -2.2230   -0.4475 C   0  0  0  0  0  0  0  0  0  0  0  0
    0.0798   -3.8212    0.7580 C   0  0  0  0  0  0  0  0  0  0  0  0
   -2.2423   -3.3428    0.2929 C   0  0  0  0  0  0  0  0  0  0  0  0
   -1.2707   -4.1419    0.8957 C   0  0  0  0  0  0  0  0  0  0  0  0
   -1.6402   -5.2352    1.6171 O   0  0  0  0  0  0  0  0  0  0  0  0
   -1.7582    1.3241   -0.4207 H   0  0  0  0  0  0  0  0  0  0  0  0
    0.9228    0.2774    0.2808 H   0  0  0  0  0  0  0  0  0  0  0  0
    0.7674   -0.9379   -2.0100 H   0  0  0  0  0  0  0  0  0  0  0  0
   -0.9085   -0.4597   -2.0962 H   0  0  0  0  0  0  0  0  0  0  0  0
    1.5132   -2.4591   -0.0844 H   0  0  0  0  0  0  0  0  0  0  0  0
   -2.6272   -1.6060   -0.9135 H   0  0  0  0  0  0  0  0  0  0  0  0
    0.8414   -4.4400    1.2249 H   0  0  0  0  0  0  0  0  0  0  0  0
   -3.2957   -3.5874    0.3962 H   0  0  0  0  0  0  0  0  0  0  0  0
   -2.6065   -5.3250    1.6207 H   0  0  0  0  0  0  0  0  0  0  0  0
    0.2293    1.6696   -2.6348 N   0  0  0  0  0  0  0  0  0  0  0  0
    0.6064    2.6297   -3.6472 C   0  0  2  0  0  0  0  0  0  0  0  0
    0.5038    4.0213   -3.0370 C   0  0  0  0  0  0  0  0  0  0  0  0
   -0.1982    4.2755   -2.0605 O   0  0  0  0  0  0  0  0  0  0  0  0
   -0.2766    2.5101   -4.8796 C   0  0  0  0  0  0  0  0  0  0  0  0
   -0.4601    0.9628   -2.8734 H   0  0  0  0  0  0  0  0  0  0  0  0
    1.6496    2.4208   -3.9082 H   0  0  0  0  0  0  0  0  0  0  0  0
   -1.3256    2.7160   -4.6376 H   0  0  0  0  0  0  0  0  0  0  0  0
    0.0286    3.2186   -5.6566 H   0  0  0  0  0  0  0  0  0  0  0  0
   -0.2245    1.4998   -5.2997 H   0  0  0  0  0  0  0  0  0  0  0  0
    1.2547    4.9550   -3.7375 N   0  0  0  0  0  0  0  0  0  0  0  0
    1.3116    6.3488   -3.3634 C   0  0  0  0  0  0  0  0  0  0  0  0
    1.8215    4.6518   -4.5239 H   0  0  0  0  0  0  0  0  0  0  0  0
    0.5407    6.9084   -3.9135 H   0  0  0  0  0  0  0  0  0  0  0  0
    1.1335    6.4457   -2.2823 H   0  0  0  0  0  0  0  0  0  0  0  0
    2.3042    6.7541   -3.6093 H   0  0  0  0  0  0  0  0  0  0  0  0
 23 25  2  0  0  0  0
 22 23  1  0  0  0  0
 24 26  1  0  0  0  0
 22 24  2  0  0  0  0
 25 27  1  0  0  0  0
 26 27  2  0  0  0  0
 21 22  1  0  0  0  0
 27 28  1  0  0  0  0
  1  3  1  0  0  0  0
  1  7  1  0  0  0  0
  1  2  2  0  0  0  0
 39 40  1  0  0  0  0
 40 48  1  0  0  0  0
 40 41  2  0  0  0  0
  8  9  1  0  0  0  0
  9 17  1  0  0  0  0
  9 10  2  0  0  0  0
 18 19  1  0  0  0  0
 19 38  1  0  0  0  0
 19 20  2  0  0  0  0
 39 42  1  0  0  0  0
  8 11  1  0  0  0  0
 48 49  1  0  0  0  0
 18 21  1  0  0  0  0
 38 39  1  0  0  0  0
  7  8  1  0  0  0  0
 17 18  1  0  0  0  0
 23 33  1  0  0  0  0
 24 34  1  0  0  0  0
 25 35  1  0  0  0  0
 26 36  1  0  0  0  0
  3  4  1  0  0  0  0
  3  5  1  0  0  0  0
  3  6  1  0  0  0  0
 42 45  1  0  0  0  0
 42 46  1  0  0  0  0
 42 47  1  0  0  0  0
 11 14  1  0  0  0  0
 11 15  1  0  0  0  0
 11 16  1  0  0  0  0
 49 51  1  0  0  0  0
 49 52  1  0  0  0  0
 49 53  1  0  0  0  0
 21 31  1  0  0  0  0
 21 32  1  0  0  0  0
 39 44  1  0  0  0  0
  8 13  1  0  0  0  0
 18 30  1  0  0  0  0
 48 50  1  0  0  0  0
  7 12  1  0  0  0  0
 38 43  1  0  0  0  0
 17 29  1  0  0  0  0
 28 37  1  0  0  0  0
M  END
$$$$

  -OEChem-05262214473D

 53 53  0     1  0  0  0  0  0999 V2000
   -1.9298    0.2574    3.9747 C   0  0  0  0  0  0  0  0  0  0  0  0
   -0.9825   -0.3573    3.4990 O   0  0  0  0  0  0  0  0  0  0  0  0
   -2.3617   -0.0250    5.3754 C   0  0  0  0  0  0  0  0  0  0  0  0
   -3.1214   -0.8213    5.4288 H   0  0  0  0  0  0  0  0  0  0  0  0
   -1.5305   -0.3726    6.0097 H   0  0  0  0  0  0  0  0  0  0  0  0
   -2.7997    0.8299    5.9150 H   0  0  0  0  0  0  0  0  0  0  0  0
   -2.6795    1.2298    3.3336 N   0  0  0  0  0  0  0  0  0  0  0  0
   -2.4327    1.6559    1.9812 C   0  0  2  0  0  0  0  0  0  0  0  0
   -1.0977    1.0705    1.5400 C   0  0  0  0  0  0  0  0  0  0  0  0
   -0.2256    0.7177    2.3313 O   0  0  0  0  0  0  0  0  0  0  0  0
   -2.4239    3.1726    1.8718 C   0  0  0  0  0  0  0  0  0  0  0  0
   -3.4446    1.6657    3.8454 H   0  0  0  0  0  0  0  0  0  0  0  0
   -3.2368    1.2374    1.3661 H   0  0  0  0  0  0  0  0  0  0  0  0
   -1.6248    3.6099    2.4815 H   0  0  0  0  0  0  0  0  0  0  0  0
   -2.2644    3.4949    0.8375 H   0  0  0  0  0  0  0  0  0  0  0  0
   -3.3741    3.5939    2.2175 H   0  0  0  0  0  0  0  0  0  0  0  0
   -0.9750    1.0274    0.1566 N   0  0  0  0  0  0  0  0  0  0  0  0
    0.2023    0.5266   -0.5070 C   0  0  2  0  0  0  0  0  0  0  0  0
    0.7616    1.6648   -1.3530 C   0  0  0  0  0  0  0  0  0  0  0  0
    1.7870    2.2756   -1.0591 O   0  0  0  0  0  0  0  0  0  0  0  0
   -0.1029   -0.6912   -1.3868 C   0  0  0  0  0  0  0  0  0  0  0  0
   -0.5128   -1.9024   -0.5852 C   0  0  0  0  0  0  0  0  0  0  0  0
    0.4588   -2.7015    0.0175 C   0  0  0  0  0  0  0  0  0  0  0  0
   -1.8633   -2.2230   -0.4475 C   0  0  0  0  0  0  0  0  0  0  0  0
    0.0798   -3.8212    0.7580 C   0  0  0  0  0  0  0  0  0  0  0  0
   -2.2423   -3.3428    0.2929 C   0  0  0  0  0  0  0  0  0  0  0  0
   -1.2707   -4.1419    0.8957 C   0  0  0  0  0  0  0  0  0  0  0  0
   -1.6402   -5.2352    1.6171 O   0  0  0  0  0  0  0  0  0  0  0  0
   -1.7582    1.3241   -0.4207 H   0  0  0  0  0  0  0  0  0  0  0  0
    0.9228    0.2774    0.2808 H   0  0  0  0  0  0  0  0  0  0  0  0
    0.7674   -0.9379   -2.0100 H   0  0  0  0  0  0  0  0  0  0  0  0
   -0.9085   -0.4597   -2.0962 H   0  0  0  0  0  0  0  0  0  0  0  0
    1.5132   -2.4591   -0.0844 H   0  0  0  0  0  0  0  0  0  0  0  0
   -2.6272   -1.6060   -0.9135 H   0  0  0  0  0  0  0  0  0  0  0  0
    0.8414   -4.4400    1.2249 H   0  0  0  0  0  0  0  0  0  0  0  0
   -3.2957   -3.5874    0.3962 H   0  0  0  0  0  0  0  0  0  0  0  0
   -2.6065   -5.3250    1.6207 H   0  0  0  0  0  0  0  0  0  0  0  0
    0.0069    1.8809   -2.4977 N   0  0  0  0  0  0  0  0  0  0  0  0
    0.3312    2.8862   -3.4840 C   0  0  2  0  0  0  0  0  0  0  0  0
    0.5581    4.2041   -2.7552 C   0  0  0  0  0  0  0  0  0  0  0  0
    0.0976    4.4422   -1.6406 O   0  0  0  0  0  0  0  0  0  0  0  0
   -0.7737    3.0214   -4.5202 C   0  0  0  0  0  0  0  0  0  0  0  0
   -0.8147    1.3033   -2.6498 H   0  0  0  0  0  0  0  0  0  0  0  0
    1.2630    2.5688   -3.9646 H   0  0  0  0  0  0  0  0  0  0  0  0
   -1.7152    3.3387   -4.0574 H   0  0  0  0  0  0  0  0  0  0  0  0
   -0.5138    3.7631   -5.2828 H   0  0  0  0  0  0  0  0  0  0  0  0
   -0.9559    2.0653   -5.0226 H   0  0  0  0  0  0  0  0  0  0  0  0
    1.2992    5.0992   -3.5140 N   0  0  0  0  0  0  0  0  0  0  0  0
    1.6373    6.4236   -3.0474 C   0  0  0  0  0  0  0  0  0  0  0  0
    1.6565    4.8103   -4.4199 H   0  0  0  0  0  0  0  0  0  0  0  0
    0.8723    7.1383   -3.3850 H   0  0  0  0  0  0  0  0  0  0  0  0
    1.6807    6.4251   -1.9483 H   0  0  0  0  0  0  0  0  0  0  0  0
    2.6169    6.7163   -3.4534 H   0  0  0  0  0  0  0  0  0  0  0  0
 23 25  2  0  0  0  0
 22 23  1  0  0  0  0
 24 26  1  0  0  0  0
 22 24  2  0  0  0  0
 25 27  1  0  0  0  0
 26 27  2  0  0  0  0
 21 22  1  0  0  0  0
 27 28  1  0  0  0  0
  1  3  1  0  0  0  0
  1  7  1  0  0  0  0
  1  2  2  0  0  0  0
 39 40  1  0  0  0  0
 40 48  1  0  0  0  0
 40 41  2  0  0  0  0
  8  9  1  0  0  0  0
  9 17  1  0  0  0  0
  9 10  2  0  0  0  0
 18 19  1  0  0  0  0
 19 38  1  0  0  0  0
 19 20  2  0  0  0  0
 39 42  1  0  0  0  0
  8 11  1  0  0  0  0
 48 49  1  0  0  0  0
 18 21  1  0  0  0  0
 38 39  1  0  0  0  0
  7  8  1  0  0  0  0
 17 18  1  0  0  0  0
 23 33  1  0  0  0  0
 24 34  1  0  0  0  0
 25 35  1  0  0  0  0
 26 36  1  0  0  0  0
  3  4  1  0  0  0  0
  3  5  1  0  0  0  0
  3  6  1  0  0  0  0
 42 45  1  0  0  0  0
 42 46  1  0  0  0  0
 42 47  1  0  0  0  0
 11 14  1  0  0  0  0
 11 15  1  0  0  0  0
 11 16  1  0  0  0  0
 49 51  1  0  0  0  0
 49 52  1  0  0  0  0
 49 53  1  0  0  0  0
 21 31  1  0  0  0  0
 21 32  1  0  0  0  0
 39 44  1  0  0  0  0
  8 13  1  0  0  0  0
 18 30  1  0  0  0  0
 48 50  1  0  0  0  0
  7 12  1  0  0  0  0
 38 43  1  0  0  0  0
 17 29  1  0  0  0  0
 28 37  1  0  0  0  0
M  END
$$$$

  -OEChem-05262214473D

 53 53  0     1  0  0  0  0  0999 V2000
   -1.9298    0.2574    3.9747 C   0  0  0  0  0  0  0  0  0  0  0  0
   -0.9825   -0.3573    3.4990 O   0  0  0  0  0  0  0  0  0  0  0  0
   -2.3617   -0.0250    5.3754 C   0  0  0  0  0  0  0  0  0  0  0  0
   -3.1214   -0.8213    5.4288 H   0  0  0  0  0  0  0  0  0  0  0  0
   -1.5305   -0.3726    6.0097 H   0  0  0  0  0  0  0  0  0  0  0  0
   -2.7997    0.8299    5.9150 H   0  0  0  0  0  0  0  0  0  0  0  0
   -2.6795    1.2298    3.3336 N   0  0  0  0  0  0  0  0  0  0  0  0
   -2.4327    1.6559    1.9812 C   0  0  2  0  0  0  0  0  0  0  0  0
   -1.0977    1.0705    1.5400 C   0  0  0  0  0  0  0  0  0  0  0  0
   -0.2256    0.7177    2.3313 O   0  0  0  0  0  0  0  0  0  0  0  0
   -2.4239    3.1726    1.8718 C   0  0  0  0  0  0  0  0  0  0  0  0
   -3.4446    1.6657    3.8454 H   0  0  0  0  0  0  0  0  0  0  0  0
   -3.2368    1.2374    1.3661 H   0  0  0  0  0  0  0  0  0  0  0  0
   -1.6248    3.6099    2.4815 H   0  0  0  0  0  0  0  0  0  0  0  0
   -2.2644    3.4949    0.8375 H   0  0  0  0  0  0  0  0  0  0  0  0
   -3.3741    3.5939    2.2175 H   0  0  0  0  0  0  0  0  0  0  0  0
   -0.9750    1.0274    0.1566 N   0  0  0  0  0  0  0  0  0  0  0  0
    0.2023    0.5266   -0.5070 C   0  0  2  0  0  0  0  0  0  0  0  0
    0.7616    1.6648   -1.3530 C   0  0  0  0  0  0  0  0  0  0  0  0
    1.9049    2.0967   -1.2219 O   0  0  0  0  0  0  0  0  0  0  0  0
   -0.1029   -0.6912   -1.3868 C   0  0  0  0  0  0  0  0  0  0  0  0
   -0.5128   -1.9024   -0.5852 C   0  0  0  0  0  0  0  0  0  0  0  0
    0.4588   -2.7015    0.0175 C   0  0  0  0  0  0  0  0  0  0  0  0
   -1.8633   -2.2230   -0.4475 C   0  0  0  0  0  0  0  0  0  0  0  0
    0.0798   -3.8212    0.7580 C   0  0  0  0  0  0  0  0  0  0  0  0
   -2.2423   -3.3428    0.2929 C   0  0  0  0  0  0  0  0  0  0  0  0
   -1.2707   -4.1419    0.8957 C   0  0  0  0  0  0  0  0  0  0  0  0
   -1.6402   -5.2352    1.6171 O   0  0  0  0  0  0  0  0  0  0  0  0
   -1.7582    1.3241   -0.4207 H   0  0  0  0  0  0  0  0  0  0  0  0
    0.9228    0.2774    0.2808 H   0  0  0  0  0  0  0  0  0  0  0  0
    0.7674   -0.9379   -2.0100 H   0  0  0  0  0  0  0  0  0  0  0  0
   -0.9085   -0.4597   -2.0962 H   0  0  0  0  0  0  0  0  0  0  0  0
    1.5132   -2.4591   -0.0844 H   0  0  0  0  0  0  0  0  0  0  0  0
   -2.6272   -1.6060   -0.9135 H   0  0  0  0  0  0  0  0  0  0  0  0
    0.8414   -4.4400    1.2249 H   0  0  0  0  0  0  0  0  0  0  0  0
   -3.2957   -3.5874    0.3962 H   0  0  0  0  0  0  0  0  0  0  0  0
   -2.6065   -5.3250    1.6207 H   0  0  0  0  0  0  0  0  0  0  0  0
   -0.1511    2.1038   -2.3021 N   0  0  0  0  0  0  0  0  0  0  0  0
    0.1337    3.1581   -3.2488 C   0  0  2  0  0  0  0  0  0  0  0  0
    0.6913    4.3461   -2.4761 C   0  0  0  0  0  0  0  0  0  0  0  0
    0.4884    4.5209   -1.2764 O   0  0  0  0  0  0  0  0  0  0  0  0
   -1.1109    3.5526   -4.0286 C   0  0  0  0  0  0  0  0  0  0  0  0
   -1.0651    1.6619   -2.3329 H   0  0  0  0  0  0  0  0  0  0  0  0
    0.9000    2.7727   -3.9303 H   0  0  0  0  0  0  0  0  0  0  0  0
   -1.8900    3.9411   -3.3625 H   0  0  0  0  0  0  0  0  0  0  0  0
   -0.8874    4.3314   -4.7652 H   0  0  0  0  0  0  0  0  0  0  0  0
   -1.5277    2.6901   -4.5599 H   0  0  0  0  0  0  0  0  0  0  0  0
    1.4061    5.2110   -3.2930 N   0  0  0  0  0  0  0  0  0  0  0  0
    2.0237    6.4191   -2.7980 C   0  0  0  0  0  0  0  0  0  0  0  0
    1.5399    4.9772   -4.2724 H   0  0  0  0  0  0  0  0  0  0  0  0
    1.3277    7.2625   -2.9167 H   0  0  0  0  0  0  0  0  0  0  0  0
    2.2708    6.2948   -1.7334 H   0  0  0  0  0  0  0  0  0  0  0  0
    2.9436    6.6200   -3.3669 H   0  0  0  0  0  0  0  0  0  0  0  0
 23 25  2  0  0  0  0
 22 23  1  0  0  0  0
 24 26  1  0  0  0  0
 22 24  2  0  0  0  0
 25 27  1  0  0  0  0
 26 27  2  0  0  0  0
 21 22  1  0  0  0  0
 27 28  1  0  0  0  0
  1  3  1  0  0  0  0
  1  7  1  0  0  0  0
  1  2  2  0  0  0  0
 39 40  1  0  0  0  0
 40 48  1  0  0  0  0
 40 41  2  0  0  0  0
  8  9  1  0  0  0  0
  9 17  1  0  0  0  0
  9 10  2  0  0  0  0
 18 19  1  0  0  0  0
 19 38  1  0  0  0  0
 19 20  2  0  0  0  0
 39 42  1  0  0  0  0
  8 11  1  0  0  0  0
 48 49  1  0  0  0  0
 18 21  1  0  0  0  0
 38 39  1  0  0  0  0
  7  8  1  0  0  0  0
 17 18  1  0  0  0  0
 23 33  1  0  0  0  0
 24 34  1  0  0  0  0
 25 35  1  0  0  0  0
 26 36  1  0  0  0  0
  3  4  1  0  0  0  0
  3  5  1  0  0  0  0
  3  6  1  0  0  0  0
 42 45  1  0  0  0  0
 42 46  1  0  0  0  0
 42 47  1  0  0  0  0
 11 14  1  0  0  0  0
 11 15  1  0  0  0  0
 11 16  1  0  0  0  0
 49 51  1  0  0  0  0
 49 52  1  0  0  0  0
 49 53  1  0  0  0  0
 21 31  1  0  0  0  0
 21 32  1  0  0  0  0
 39 44  1  0  0  0  0
  8 13  1  0  0  0  0
 18 30  1  0  0  0  0
 48 50  1  0  0  0  0
  7 12  1  0  0  0  0
 38 43  1  0  0  0  0
 17 29  1  0  0  0  0
 28 37  1  0  0  0  0
M  END
$$$$

  -OEChem-05262214473D

 53 53  0     1  0  0  0  0  0999 V2000
   -1.9298    0.2574    3.9747 C   0  0  0  0  0  0  0  0  0  0  0  0
   -0.9825   -0.3573    3.4990 O   0  0  0  0  0  0  0  0  0  0  0  0
   -2.3617   -0.0250    5.3754 C   0  0  0  0  0  0  0  0  0  0  0  0
   -3.1214   -0.8213    5.4288 H   0  0  0  0  0  0  0  0  0  0  0  0
   -1.5305   -0.3726    6.0097 H   0  0  0  0  0  0  0  0  0  0  0  0
   -2.7997    0.8299    5.9150 H   0  0  0  0  0  0  0  0  0  0  0  0
   -2.6795    1.2298    3.3336 N   0  0  0  0  0  0  0  0  0  0  0  0
   -2.4327    1.6559    1.9812 C   0  0  2  0  0  0  0  0  0  0  0  0
   -1.0977    1.0705    1.5400 C   0  0  0  0  0  0  0  0  0  0  0  0
   -0.2256    0.7177    2.3313 O   0  0  0  0  0  0  0  0  0  0  0  0
   -2.4239    3.1726    1.8718 C   0  0  0  0  0  0  0  0  0  0  0  0
   -3.4446    1.6657    3.8454 H   0  0  0  0  0  0  0  0  0  0  0  0
   -3.2368    1.2374    1.3661 H   0  0  0  0  0  0  0  0  0  0  0  0
   -1.6248    3.6099    2.4815 H   0  0  0  0  0  0  0  0  0  0  0  0
   -2.2644    3.4949    0.8375 H   0  0  0  0  0  0  0  0  0  0  0  0
   -3.3741    3.5939    2.2175 H   0  0  0  0  0  0  0  0  0  0  0  0
   -0.9750    1.0274    0.1566 N   0  0  0  0  0  0  0  0  0  0  0  0
    0.2023    0.5266   -0.5070 C   0  0  2  0  0  0  0  0  0  0  0  0
    0.7616    1.6648   -1.3530 C   0  0  0  0  0  0  0  0  0  0  0  0
    1.9617    1.9223   -1.4189 O   0  0  0  0  0  0  0  0  0  0  0  0
   -0.1029   -0.6912   -1.3868 C   0  0  0  0  0  0  0  0  0  0  0  0
   -0.5128   -1.9024   -0.5852 C   0  0  0  0  0  0  0  0  0  0  0  0
    0.4588   -2.7015    0.0175 C   0  0  0  0  0  0  0  0  0  0  0  0
   -1.8633   -2.2230   -0.4475 C   0  0  0  0  0  0  0  0  0  0  0  0
    0.0798   -3.8212    0.7580 C   0  0  0  0  0  0  0  0  0  0  0  0
   -2.2423   -3.3428    0.2929 C   0  0  0  0  0  0  0  0  0  0  0  0
   -1.2707   -4.1419    0.8957 C   0  0  0  0  0  0  0  0  0  0  0  0
   -1.6402   -5.2352    1.6171 O   0  0  0  0  0  0  0  0  0  0  0  0
   -1.7582    1.3241   -0.4207 H   0  0  0  0  0  0  0  0  0  0  0  0
    0.9228    0.2774    0.2808 H   0  0  0  0  0  0  0  0  0  0  0  0
    0.7674   -0.9379   -2.0100 H   0  0  0  0  0  0  0  0  0  0  0  0
   -0.9085   -0.4597   -2.0962 H   0  0  0  0  0  0  0  0  0  0  0  0
    1.5132   -2.4591   -0.0844 H   0  0  0  0  0  0  0  0  0  0  0  0
   -2.6272   -1.6060   -0.9135 H   0  0  0  0  0  0  0  0  0  0  0  0
    0.8414   -4.4400    1.2249 H   0  0  0  0  0  0  0  0  0  0  0  0
   -3.2957   -3.5874    0.3962 H   0  0  0  0  0  0  0  0  0  0  0  0
   -2.6065   -5.3250    1.6207 H   0  0  0  0  0  0  0  0  0  0  0  0
   -0.2338    2.3233   -2.0616 N   0  0  0  0  0  0  0  0  0  0  0  0
    0.0274    3.4267   -2.9577 C   0  0  2  0  0  0  0  0  0  0  0  0
    0.8943    4.4376   -2.2188 C   0  0  0  0  0  0  0  0  0  0  0  0
    0.9477    4.5061   -0.9926 O   0  0  0  0  0  0  0  0  0  0  0  0
   -1.2654    4.0675   -3.4380 C   0  0  0  0  0  0  0  0  0  0  0  0
   -1.1942    2.0142   -1.9443 H   0  0  0  0  0  0  0  0  0  0  0  0
    0.5852    3.0186   -3.8076 H   0  0  0  0  0  0  0  0  0  0  0  0
   -1.8379    4.4820   -2.6003 H   0  0  0  0  0  0  0  0  0  0  0  0
   -1.0666    4.8848   -4.1391 H   0  0  0  0  0  0  0  0  0  0  0  0
   -1.9008    3.3319   -3.9431 H   0  0  0  0  0  0  0  0  0  0  0  0
    1.5681    5.2825   -3.0895 N   0  0  0  0  0  0  0  0  0  0  0  0
    2.4446    6.3355   -2.6322 C   0  0  0  0  0  0  0  0  0  0  0  0
    1.4797    5.1412   -4.0915 H   0  0  0  0  0  0  0  0  0  0  0  0
    1.8759    7.2727   -2.5406 H   0  0  0  0  0  0  0  0  0  0  0  0
    2.8637    6.0638   -1.6522 H   0  0  0  0  0  0  0  0  0  0  0  0
    3.2620    6.4720   -3.3555 H   0  0  0  0  0  0  0  0  0  0  0  0
 23 25  2  0  0  0  0
 22 23  1  0  0  0  0
 24 26  1  0  0  0  0
 22 24  2  0  0  0  0
 25 27  1  0  0  0  0
 26 27  2  0  0  0  0
 21 22  1  0  0  0  0
 27 28  1  0  0  0  0
  1  3  1  0  0  0  0
  1  7  1  0  0  0  0
  1  2  2  0  0  0  0
 39 40  1  0  0  0  0
 40 48  1  0  0  0  0
 40 41  2  0  0  0  0
  8  9  1  0  0  0  0
  9 17  1  0  0  0  0
  9 10  2  0  0  0  0
 18 19  1  0  0  0  0
 19 38  1  0  0  0  0
 19 20  2  0  0  0  0
 39 42  1  0  0  0  0
  8 11  1  0  0  0  0
 48 49  1  0  0  0  0
 18 21  1  0  0  0  0
 38 39  1  0  0  0  0
  7  8  1  0  0  0  0
 17 18  1  0  0  0  0
 23 33  1  0  0  0  0
 24 34  1  0  0  0  0
 25 35  1  0  0  0  0
 26 36  1  0  0  0  0
  3  4  1  0  0  0  0
  3  5  1  0  0  0  0
  3  6  1  0  0  0  0
 42 45  1  0  0  0  0
 42 46  1  0  0  0  0
 42 47  1  0  0  0  0
 11 14  1  0  0  0  0
 11 15  1  0  0  0  0
 11 16  1  0  0  0  0
 49 51  1  0  0  0  0
 49 52  1  0  0  0  0
 49 53  1  0  0  0  0
 21 31  1  0  0  0  0
 21 32  1  0  0  0  0
 39 44  1  0  0  0  0
  8 13  1  0  0  0  0
 18 30  1  0  0  0  0
 48 50  1  0  0  0  0
  7 12  1  0  0  0  0
 38 43  1  0  0  0  0
 17 29  1  0  0  0  0
 28 37  1  0  0  0  0
M  END
$$$$

  -OEChem-05262214473D

 53 53  0     1  0  0  0  0  0999 V2000
   -1.9298    0.2574    3.9747 C   0  0  0  0  0  0  0  0  0  0  0  0
   -0.9825   -0.3573    3.4990 O   0  0  0  0  0  0  0  0  0  0  0  0
   -2.3617   -0.0250    5.3754 C   0  0  0  0  0  0  0  0  0  0  0  0
   -3.1214   -0.8213    5.4288 H   0  0  0  0  0  0  0  0  0  0  0  0
   -1.5305   -0.3726    6.0097 H   0  0  0  0  0  0  0  0  0  0  0  0
   -2.7997    0.8299    5.9150 H   0  0  0  0  0  0  0  0  0  0  0  0
   -2.6795    1.2298    3.3336 N   0  0  0  0  0  0  0  0  0  0  0  0
   -2.4327    1.6559    1.9812 C   0  0  2  0  0  0  0  0  0  0  0  0
   -1.0977    1.0705    1.5400 C   0  0  0  0  0  0  0  0  0  0  0  0
   -0.2256    0.7177    2.3313 O   0  0  0  0  0  0  0  0  0  0  0  0
   -2.4239    3.1726    1.8718 C   0  0  0  0  0  0  0  0  0  0  0  0
   -3.4446    1.6657    3.8454 H   0  0  0  0  0  0  0  0  0  0  0  0
   -3.2368    1.2374    1.3661 H   0  0  0  0  0  0  0  0  0  0  0  0
   -1.6248    3.6099    2.4815 H   0  0  0  0  0  0  0  0  0  0  0  0
   -2.2644    3.4949    0.8375 H   0  0  0  0  0  0  0  0  0  0  0  0
   -3.3741    3.5939    2.2175 H   0  0  0  0  0  0  0  0  0  0  0  0
   -0.9750    1.0274    0.1566 N   0  0  0  0  0  0  0  0  0  0  0  0
    0.2023    0.5266   -0.5070 C   0  0  2  0  0  0  0  0  0  0  0  0
    0.7616    1.6648   -1.3530 C   0  0  0  0  0  0  0  0  0  0  0  0
    1.9535    1.7644   -1.6368 O   0  0  0  0  0  0  0  0  0  0  0  0
   -0.1029   -0.6912   -1.3868 C   0  0  0  0  0  0  0  0  0  0  0  0
   -0.5128   -1.9024   -0.5852 C   0  0  0  0  0  0  0  0  0  0  0  0
    0.4588   -2.7015    0.0175 C   0  0  0  0  0  0  0  0  0  0  0  0
   -1.8633   -2.2230   -0.4475 C   0  0  0  0  0  0  0  0  0  0  0  0
    0.0798   -3.8212    0.7580 C   0  0  0  0  0  0  0  0  0  0  0  0
   -2.2423   -3.3428    0.2929 C   0  0  0  0  0  0  0  0  0  0  0  0
   -1.2707   -4.1419    0.8957 C   0  0  0  0  0  0  0  0  0  0  0  0
   -1.6402   -5.2352    1.6171 O   0  0  0  0  0  0  0  0  0  0  0  0
   -1.7582    1.3241   -0.4207 H   0  0  0  0  0  0  0  0  0  0  0  0
    0.9228    0.2774    0.2808 H   0  0  0  0  0  0  0  0  0  0  0  0
    0.7674   -0.9379   -2.0100 H   0  0  0  0  0  0  0  0  0  0  0  0
   -0.9085   -0.4597   -2.0962 H   0  0  0  0  0  0  0  0  0  0  0  0
    1.5132   -2.4591   -0.0844 H   0  0  0  0  0  0  0  0  0  0  0  0
   -2.6272   -1.6060   -0.9135 H   0  0  0  0  0  0  0  0  0  0  0  0
    0.8414   -4.4400    1.2249 H   0  0  0  0  0  0  0  0  0  0  0  0
   -3.2957   -3.5874    0.3962 H   0  0  0  0  0  0  0  0  0  0  0  0
   -2.6065   -5.3250    1.6207 H   0  0  0  0  0  0  0  0  0  0  0  0
   -0.2357    2.5243   -1.7924 N   0  0  0  0  0  0  0  0  0  0  0  0
    0.0196    3.6737   -2.6305 C   0  0  2  0  0  0  0  0  0  0  0  0
    1.1532    4.4724   -2.0008 C   0  0  0  0  0  0  0  0  0  0  0  0
    1.4439    4.3990   -0.8086 O   0  0  0  0  0  0  0  0  0  0  0  0
   -1.2265    4.5309   -2.7889 C   0  0  0  0  0  0  0  0  0  0  0  0
   -1.1933    2.3360   -1.5106 H   0  0  0  0  0  0  0  0  0  0  0  0
    0.3402    3.2896   -3.6050 H   0  0  0  0  0  0  0  0  0  0  0  0
   -1.5627    4.9247   -1.8228 H   0  0  0  0  0  0  0  0  0  0  0  0
   -1.0392    5.3857   -3.4471 H   0  0  0  0  0  0  0  0  0  0  0  0
   -2.0498    3.9469   -3.2143 H   0  0  0  0  0  0  0  0  0  0  0  0
    1.7742    5.3091   -2.9176 N   0  0  0  0  0  0  0  0  0  0  0  0
    2.8711    6.1786   -2.5614 C   0  0  0  0  0  0  0  0  0  0  0  0
    1.4801    5.2910   -3.8896 H   0  0  0  0  0  0  0  0  0  0  0  0
    2.4796    7.1680   -2.2823 H   0  0  0  0  0  0  0  0  0  0  0  0
    3.4188    5.7478   -1.7103 H   0  0  0  0  0  0  0  0  0  0  0  0
    3.5505    6.2821   -3.4202 H   0  0  0  0  0  0  0  0  0  0  0  0
 23 25  2  0  0  0  0
 22 23  1  0  0  0  0
 24 26  1  0  0  0  0
 22 24  2  0  0  0  0
 25 27  1  0  0  0  0
 26 27  2  0  0  0  0
 21 22  1  0  0  0  0
 27 28  1  0  0  0  0
  1  3  1  0  0  0  0
  1  7  1  0  0  0  0
  1  2  2  0  0  0  0
 39 40  1  0  0  0  0
 40 48  1  0  0  0  0
 40 41  2  0  0  0  0
  8  9  1  0  0  0  0
  9 17  1  0  0  0  0
  9 10  2  0  0  0  0
 18 19  1  0  0  0  0
 19 38  1  0  0  0  0
 19 20  2  0  0  0  0
 39 42  1  0  0  0  0
  8 11  1  0  0  0  0
 48 49  1  0  0  0  0
 18 21  1  0  0  0  0
 38 39  1  0  0  0  0
  7  8  1  0  0  0  0
 17 18  1  0  0  0  0
 23 33  1  0  0  0  0
 24 34  1  0  0  0  0
 25 35  1  0  0  0  0
 26 36  1  0  0  0  0
  3  4  1  0  0  0  0
  3  5  1  0  0  0  0
  3  6  1  0  0  0  0
 42 45  1  0  0  0  0
 42 46  1  0  0  0  0
 42 47  1  0  0  0  0
 11 14  1  0  0  0  0
 11 15  1  0  0  0  0
 11 16  1  0  0  0  0
 49 51  1  0  0  0  0
 49 52  1  0  0  0  0
 49 53  1  0  0  0  0
 21 31  1  0  0  0  0
 21 32  1  0  0  0  0
 39 44  1  0  0  0  0
  8 13  1  0  0  0  0
 18 30  1  0  0  0  0
 48 50  1  0  0  0  0
  7 12  1  0  0  0  0
 38 43  1  0  0  0  0
 17 29  1  0  0  0  0
 28 37  1  0  0  0  0
M  END
$$$$

  -OEChem-05262214473D

 53 53  0     1  0  0  0  0  0999 V2000
   -1.9298    0.2574    3.9747 C   0  0  0  0  0  0  0  0  0  0  0  0
   -0.9825   -0.3573    3.4990 O   0  0  0  0  0  0  0  0  0  0  0  0
   -2.3617   -0.0250    5.3754 C   0  0  0  0  0  0  0  0  0  0  0  0
   -3.1214   -0.8213    5.4288 H   0  0  0  0  0  0  0  0  0  0  0  0
   -1.5305   -0.3726    6.0097 H   0  0  0  0  0  0  0  0  0  0  0  0
   -2.7997    0.8299    5.9150 H   0  0  0  0  0  0  0  0  0  0  0  0
   -2.6795    1.2298    3.3336 N   0  0  0  0  0  0  0  0  0  0  0  0
   -2.4327    1.6559    1.9812 C   0  0  2  0  0  0  0  0  0  0  0  0
   -1.0977    1.0705    1.5400 C   0  0  0  0  0  0  0  0  0  0  0  0
   -0.2256    0.7177    2.3313 O   0  0  0  0  0  0  0  0  0  0  0  0
   -2.4239    3.1726    1.8718 C   0  0  0  0  0  0  0  0  0  0  0  0
   -3.4446    1.6657    3.8454 H   0  0  0  0  0  0  0  0  0  0  0  0
   -3.2368    1.2374    1.3661 H   0  0  0  0  0  0  0  0  0  0  0  0
   -1.6248    3.6099    2.4815 H   0  0  0  0  0  0  0  0  0  0  0  0
   -2.2644    3.4949    0.8375 H   0  0  0  0  0  0  0  0  0  0  0  0
   -3.3741    3.5939    2.2175 H   0  0  0  0  0  0  0  0  0  0  0  0
   -0.9750    1.0274    0.1566 N   0  0  0  0  0  0  0  0  0  0  0  0
    0.2023    0.5266   -0.5070 C   0  0  2  0  0  0  0  0  0  0  0  0
    0.7616    1.6648   -1.3530 C   0  0  0  0  0  0  0  0  0  0  0  0
    1.8807    1.6338   -1.8606 O   0  0  0  0  0  0  0  0  0  0  0  0
   -0.1029   -0.6912   -1.3868 C   0  0  0  0  0  0  0  0  0  0  0  0
   -0.5128   -1.9024   -0.5852 C   0  0  0  0  0  0  0  0  0  0  0  0
    0.4588   -2.7015    0.0175 C   0  0  0  0  0  0  0  0  0  0  0  0
   -1.8633   -2.2230   -0.4475 C   0  0  0  0  0  0  0  0  0  0  0  0
    0.0798   -3.8212    0.7580 C   0  0  0  0  0  0  0  0  0  0  0  0
   -2.2423   -3.3428    0.2929 C   0  0  0  0  0  0  0  0  0  0  0  0
   -1.2707   -4.1419    0.8957 C   0  0  0  0  0  0  0  0  0  0  0  0
   -1.6402   -5.2352    1.6171 O   0  0  0  0  0  0  0  0  0  0  0  0
   -1.7582    1.3241   -0.4207 H   0  0  0  0  0  0  0  0  0  0  0  0
    0.9228    0.2774    0.2808 H   0  0  0  0  0  0  0  0  0  0  0  0
    0.7674   -0.9379   -2.0100 H   0  0  0  0  0  0  0  0  0  0  0  0
   -0.9085   -0.4597   -2.0962 H   0  0  0  0  0  0  0  0  0  0  0  0
    1.5132   -2.4591   -0.0844 H   0  0  0  0  0  0  0  0  0  0  0  0
   -2.6272   -1.6060   -0.9135 H   0  0  0  0  0  0  0  0  0  0  0  0
    0.8414   -4.4400    1.2249 H   0  0  0  0  0  0  0  0  0  0  0  0
   -3.2957   -3.5874    0.3962 H   0  0  0  0  0  0  0  0  0  0  0  0
   -2.6065   -5.3250    1.6207 H   0  0  0  0  0  0  0  0  0  0  0  0
   -0.1567    2.6932   -1.5129 N   0  0  0  0  0  0  0  0  0  0  0  0
    0.1108    3.8824   -2.2894 C   0  0  2  0  0  0  0  0  0  0  0  0
    1.4505    4.4481   -1.8369 C   0  0  0  0  0  0  0  0  0  0  0  0
    1.9435    4.2067   -0.7370 O   0  0  0  0  0  0  0  0  0  0  0  0
   -0.9970    4.9113   -2.1253 C   0  0  0  0  0  0  0  0  0  0  0  0
   -1.0623    2.6057   -1.0613 H   0  0  0  0  0  0  0  0  0  0  0  0
    0.1816    3.5673   -3.3362 H   0  0  0  0  0  0  0  0  0  0  0  0
   -1.0830    5.2389   -1.0829 H   0  0  0  0  0  0  0  0  0  0  0  0
   -0.8070    5.7998   -2.7364 H   0  0  0  0  0  0  0  0  0  0  0  0
   -1.9646    4.4930   -2.4232 H   0  0  0  0  0  0  0  0  0  0  0  0
    2.0103    5.2888   -2.7887 N   0  0  0  0  0  0  0  0  0  0  0  0
    3.2742    5.9590   -2.5902 C   0  0  0  0  0  0  0  0  0  0  0  0
    1.5410    5.4165   -3.6805 H   0  0  0  0  0  0  0  0  0  0  0  0
    3.0976    6.9556   -2.1594 H   0  0  0  0  0  0  0  0  0  0  0  0
    3.8985    5.3683   -1.9037 H   0  0  0  0  0  0  0  0  0  0  0  0
    3.7895    6.0634   -3.5564 H   0  0  0  0  0  0  0  0  0  0  0  0
 23 25  2  0  0  0  0
 22 23  1  0  0  0  0
 24 26  1  0  0  0  0
 22 24  2  0  0  0  0
 25 27  1  0  0  0  0
 26 27  2  0  0  0  0
 21 22  1  0  0  0  0
 27 28  1  0  0  0  0
  1  3  1  0  0  0  0
  1  7  1  0  0  0  0
  1  2  2  0  0  0  0
 39 40  1  0  0  0  0
 40 48  1  0  0  0  0
 40 41  2  0  0  0  0
  8  9  1  0  0  0  0
  9 17  1  0  0  0  0
  9 10  2  0  0  0  0
 18 19  1  0  0  0  0
 19 38  1  0  0  0  0
 19 20  2  0  0  0  0
 39 42  1  0  0  0  0
  8 11  1  0  0  0  0
 48 49  1  0  0  0  0
 18 21  1  0  0  0  0
 38 39  1  0  0  0  0
  7  8  1  0  0  0  0
 17 18  1  0  0  0  0
 23 33  1  0  0  0  0
 24 34  1  0  0  0  0
 25 35  1  0  0  0  0
 26 36  1  0  0  0  0
  3  4  1  0  0  0  0
  3  5  1  0  0  0  0
  3  6  1  0  0  0  0
 42 45  1  0  0  0  0
 42 46  1  0  0  0  0
 42 47  1  0  0  0  0
 11 14  1  0  0  0  0
 11 15  1  0  0  0  0
 11 16  1  0  0  0  0
 49 51  1  0  0  0  0
 49 52  1  0  0  0  0
 49 53  1  0  0  0  0
 21 31  1  0  0  0  0
 21 32  1  0  0  0  0
 39 44  1  0  0  0  0
  8 13  1  0  0  0  0
 18 30  1  0  0  0  0
 48 50  1  0  0  0  0
  7 12  1  0  0  0  0
 38 43  1  0  0  0  0
 17 29  1  0  0  0  0
 28 37  1  0  0  0  0
M  END
$$$$

  -OEChem-05262214473D

 53 53  0     1  0  0  0  0  0999 V2000
   -1.9298    0.2574    3.9747 C   0  0  0  0  0  0  0  0  0  0  0  0
   -0.9825   -0.3573    3.4990 O   0  0  0  0  0  0  0  0  0  0  0  0
   -2.3617   -0.0250    5.3754 C   0  0  0  0  0  0  0  0  0  0  0  0
   -3.1214   -0.8213    5.4288 H   0  0  0  0  0  0  0  0  0  0  0  0
   -1.5305   -0.3726    6.0097 H   0  0  0  0  0  0  0  0  0  0  0  0
   -2.7997    0.8299    5.9150 H   0  0  0  0  0  0  0  0  0  0  0  0
   -2.6795    1.2298    3.3336 N   0  0  0  0  0  0  0  0  0  0  0  0
   -2.4327    1.6559    1.9812 C   0  0  2  0  0  0  0  0  0  0  0  0
   -1.0977    1.0705    1.5400 C   0  0  0  0  0  0  0  0  0  0  0  0
   -0.2256    0.7177    2.3313 O   0  0  0  0  0  0  0  0  0  0  0  0
   -2.4239    3.1726    1.8718 C   0  0  0  0  0  0  0  0  0  0  0  0
   -3.4446    1.6657    3.8454 H   0  0  0  0  0  0  0  0  0  0  0  0
   -3.2368    1.2374    1.3661 H   0  0  0  0  0  0  0  0  0  0  0  0
   -1.6248    3.6099    2.4815 H   0  0  0  0  0  0  0  0  0  0  0  0
   -2.2644    3.4949    0.8375 H   0  0  0  0  0  0  0  0  0  0  0  0
   -3.3741    3.5939    2.2175 H   0  0  0  0  0  0  0  0  0  0  0  0
   -0.9750    1.0274    0.1566 N   0  0  0  0  0  0  0  0  0  0  0  0
    0.2023    0.5266   -0.5070 C   0  0  2  0  0  0  0  0  0  0  0  0
    0.7616    1.6648   -1.3530 C   0  0  0  0  0  0  0  0  0  0  0  0
    1.7484    1.5394   -2.0752 O   0  0  0  0  0  0  0  0  0  0  0  0
   -0.1029   -0.6912   -1.3868 C   0  0  0  0  0  0  0  0  0  0  0  0
   -0.5128   -1.9024   -0.5852 C   0  0  0  0  0  0  0  0  0  0  0  0
    0.4588   -2.7015    0.0175 C   0  0  0  0  0  0  0  0  0  0  0  0
   -1.8633   -2.2230   -0.4475 C   0  0  0  0  0  0  0  0  0  0  0  0
    0.0798   -3.8212    0.7580 C   0  0  0  0  0  0  0  0  0  0  0  0
   -2.2423   -3.3428    0.2929 C   0  0  0  0  0  0  0  0  0  0  0  0
   -1.2707   -4.1419    0.8957 C   0  0  0  0  0  0  0  0  0  0  0  0
   -1.6402   -5.2352    1.6171 O   0  0  0  0  0  0  0  0  0  0  0  0
   -1.7582    1.3241   -0.4207 H   0  0  0  0  0  0  0  0  0  0  0  0
    0.9228    0.2774    0.2808 H   0  0  0  0  0  0  0  0  0  0  0  0
    0.7674   -0.9379   -2.0100 H   0  0  0  0  0  0  0  0  0  0  0  0
   -0.9085   -0.4597   -2.0962 H   0  0  0  0  0  0  0  0  0  0  0  0
    1.5132   -2.4591   -0.0844 H   0  0  0  0  0  0  0  0  0  0  0  0
   -2.6272   -1.6060   -0.9135 H   0  0  0  0  0  0  0  0  0  0  0  0
    0.8414   -4.4400    1.2249 H   0  0  0  0  0  0  0  0  0  0  0  0
   -3.2957   -3.5874    0.3962 H   0  0  0  0  0  0  0  0  0  0  0  0
   -2.6065   -5.3250    1.6207 H   0  0  0  0  0  0  0  0  0  0  0  0
   -0.0021    2.8185   -1.2421 N   0  0  0  0  0  0  0  0  0  0  0  0
    0.2948    4.0385   -1.9578 C   0  0  2  0  0  0  0  0  0  0  0  0
    1.7658    4.3664   -1.7384 C   0  0  0  0  0  0  0  0  0  0  0  0
    2.4122    3.9425   -0.7826 O   0  0  0  0  0  0  0  0  0  0  0  0
   -0.5924    5.1827   -1.4926 C   0  0  0  0  0  0  0  0  0  0  0  0
   -0.8103    2.8046   -0.6271 H   0  0  0  0  0  0  0  0  0  0  0  0
    0.1203    3.8328   -3.0195 H   0  0  0  0  0  0  0  0  0  0  0  0
   -0.4316    5.4033   -0.4310 H   0  0  0  0  0  0  0  0  0  0  0  0
   -0.3860    6.0990   -2.0555 H   0  0  0  0  0  0  0  0  0  0  0  0
   -1.6509    4.9332   -1.6236 H   0  0  0  0  0  0  0  0  0  0  0  0
    2.2604    5.2231   -2.7119 N   0  0  0  0  0  0  0  0  0  0  0  0
    3.6265    5.6918   -2.7168 C   0  0  0  0  0  0  0  0  0  0  0  0
    1.6583    5.5092   -3.4783 H   0  0  0  0  0  0  0  0  0  0  0  0
    3.6878    6.6501   -2.1803 H   0  0  0  0  0  0  0  0  0  0  0  0
    4.2699    4.9513   -2.2192 H   0  0  0  0  0  0  0  0  0  0  0  0
    3.9625    5.8308   -3.7550 H   0  0  0  0  0  0  0  0  0  0  0  0
 23 25  2  0  0  0  0
 22 23  1  0  0  0  0
 24 26  1  0  0  0  0
 22 24  2  0  0  0  0
 25 27  1  0  0  0  0
 26 27  2  0  0  0  0
 21 22  1  0  0  0  0
 27 28  1  0  0  0  0
  1  3  1  0  0  0  0
  1  7  1  0  0  0  0
  1  2  2  0  0  0  0
 39 40  1  0  0  0  0
 40 48  1  0  0  0  0
 40 41  2  0  0  0  0
  8  9  1  0  0  0  0
  9 17  1  0  0  0  0
  9 10  2  0  0  0  0
 18 19  1  0  0  0  0
 19 38  1  0  0  0  0
 19 20  2  0  0  0  0
 39 42  1  0  0  0  0
  8 11  1  0  0  0  0
 48 49  1  0  0  0  0
 18 21  1  0  0  0  0
 38 39  1  0  0  0  0
  7  8  1  0  0  0  0
 17 18  1  0  0  0  0
 23 33  1  0  0  0  0
 24 34  1  0  0  0  0
 25 35  1  0  0  0  0
 26 36  1  0  0  0  0
  3  4  1  0  0  0  0
  3  5  1  0  0  0  0
  3  6  1  0  0  0  0
 42 45  1  0  0  0  0
 42 46  1  0  0  0  0
 42 47  1  0  0  0  0
 11 14  1  0  0  0  0
 11 15  1  0  0  0  0
 11 16  1  0  0  0  0
 49 51  1  0  0  0  0
 49 52  1  0  0  0  0
 49 53  1  0  0  0  0
 21 31  1  0  0  0  0
 21 32  1  0  0  0  0
 39 44  1  0  0  0  0
  8 13  1  0  0  0  0
 18 30  1  0  0  0  0
 48 50  1  0  0  0  0
  7 12  1  0  0  0  0
 38 43  1  0  0  0  0
 17 29  1  0  0  0  0
 28 37  1  0  0  0  0
M  END
$$$$

  -OEChem-05262214473D

 53 53  0     1  0  0  0  0  0999 V2000
   -1.9298    0.2574    3.9747 C   0  0  0  0  0  0  0  0  0  0  0  0
   -0.9825   -0.3573    3.4990 O   0  0  0  0  0  0  0  0  0  0  0  0
   -2.3617   -0.0250    5.3754 C   0  0  0  0  0  0  0  0  0  0  0  0
   -3.1214   -0.8213    5.4288 H   0  0  0  0  0  0  0  0  0  0  0  0
   -1.5305   -0.3726    6.0097 H   0  0  0  0  0  0  0  0  0  0  0  0
   -2.7997    0.8299    5.9150 H   0  0  0  0  0  0  0  0  0  0  0  0
   -2.6795    1.2298    3.3336 N   0  0  0  0  0  0  0  0  0  0  0  0
   -2.4327    1.6559    1.9812 C   0  0  2  0  0  0  0  0  0  0  0  0
   -1.0977    1.0705    1.5400 C   0  0  0  0  0  0  0  0  0  0  0  0
   -0.2256    0.7177    2.3313 O   0  0  0  0  0  0  0  0  0  0  0  0
   -2.4239    3.1726    1.8718 C   0  0  0  0  0  0  0  0  0  0  0  0
   -3.4446    1.6657    3.8454 H   0  0  0  0  0  0  0  0  0  0  0  0
   -3.2368    1.2374    1.3661 H   0  0  0  0  0  0  0  0  0  0  0  0
   -1.6248    3.6099    2.4815 H   0  0  0  0  0  0  0  0  0  0  0  0
   -2.2644    3.4949    0.8375 H   0  0  0  0  0  0  0  0  0  0  0  0
   -3.3741    3.5939    2.2175 H   0  0  0  0  0  0  0  0  0  0  0  0
   -0.9750    1.0274    0.1566 N   0  0  0  0  0  0  0  0  0  0  0  0
    0.2023    0.5266   -0.5070 C   0  0  2  0  0  0  0  0  0  0  0  0
    0.7616    1.6648   -1.3530 C   0  0  0  0  0  0  0  0  0  0  0  0
    1.5656    1.4875   -2.2658 O   0  0  0  0  0  0  0  0  0  0  0  0
   -0.1029   -0.6912   -1.3868 C   0  0  0  0  0  0  0  0  0  0  0  0
   -0.5128   -1.9024   -0.5852 C   0  0  0  0  0  0  0  0  0  0  0  0
    0.4588   -2.7015    0.0175 C   0  0  0  0  0  0  0  0  0  0  0  0
   -1.8633   -2.2230   -0.4475 C   0  0  0  0  0  0  0  0  0  0  0  0
    0.0798   -3.8212    0.7580 C   0  0  0  0  0  0  0  0  0  0  0  0
   -2.2423   -3.3428    0.2929 C   0  0  0  0  0  0  0  0  0  0  0  0
   -1.2707   -4.1419    0.8957 C   0  0  0  0  0  0  0  0  0  0  0  0
   -1.6402   -5.2352    1.6171 O   0  0  0  0  0  0  0  0  0  0  0  0
   -1.7582    1.3241   -0.4207 H   0  0  0  0  0  0  0  0  0  0  0  0
    0.9228    0.2774    0.2808 H   0  0  0  0  0  0  0  0  0  0  0  0
    0.7674   -0.9379   -2.0100 H   0  0  0  0  0  0  0  0  0  0  0  0
   -0.9085   -0.4597   -2.0962 H   0  0  0  0  0  0  0  0  0  0  0  0
    1.5132   -2.4591   -0.0844 H   0  0  0  0  0  0  0  0  0  0  0  0
   -2.6272   -1.6060   -0.9135 H   0  0  0  0  0  0  0  0  0  0  0  0
    0.8414   -4.4400    1.2249 H   0  0  0  0  0  0  0  0  0  0  0  0
   -3.2957   -3.5874    0.3962 H   0  0  0  0  0  0  0  0  0  0  0  0
   -2.6065   -5.3250    1.6207 H   0  0  0  0  0  0  0  0  0  0  0  0
    0.2176    2.8915   -0.9986 N   0  0  0  0  0  0  0  0  0  0  0  0
    0.5590    4.1314   -1.6582 C   0  0  2  0  0  0  0  0  0  0  0  0
    2.0776    4.2329   -1.7119 C   0  0  0  0  0  0  0  0  0  0  0  0
    2.8182    3.6242   -0.9423 O   0  0  0  0  0  0  0  0  0  0  0  0
   -0.0404    5.3267   -0.9339 C   0  0  0  0  0  0  0  0  0  0  0  0
   -0.4544    2.9193   -0.2374 H   0  0  0  0  0  0  0  0  0  0  0  0
    0.1604    4.0681   -2.6766 H   0  0  0  0  0  0  0  0  0  0  0  0
    0.3472    5.4066    0.0883 H   0  0  0  0  0  0  0  0  0  0  0  0
    0.1952    6.2629   -1.4508 H   0  0  0  0  0  0  0  0  0  0  0  0
   -1.1302    5.2374   -0.8700 H   0  0  0  0  0  0  0  0  0  0  0  0
    2.5073    5.1164   -2.6922 N   0  0  0  0  0  0  0  0  0  0  0  0
    3.9039    5.3951   -2.9326 C   0  0  0  0  0  0  0  0  0  0  0  0
    1.8240    5.5626   -3.2969 H   0  0  0  0  0  0  0  0  0  0  0  0
    4.2100    6.2722   -2.3435 H   0  0  0  0  0  0  0  0  0  0  0  0
    4.5078    4.5250   -2.6354 H   0  0  0  0  0  0  0  0  0  0  0  0
    4.0579    5.6001   -4.0023 H   0  0  0  0  0  0  0  0  0  0  0  0
 23 25  2  0  0  0  0
 22 23  1  0  0  0  0
 24 26  1  0  0  0  0
 22 24  2  0  0  0  0
 25 27  1  0  0  0  0
 26 27  2  0  0  0  0
 21 22  1  0  0  0  0
 27 28  1  0  0  0  0
  1  3  1  0  0  0  0
  1  7  1  0  0  0  0
  1  2  2  0  0  0  0
 39 40  1  0  0  0  0
 40 48  1  0  0  0  0
 40 41  2  0  0  0  0
  8  9  1  0  0  0  0
  9 17  1  0  0  0  0
  9 10  2  0  0  0  0
 18 19  1  0  0  0  0
 19 38  1  0  0  0  0
 19 20  2  0  0  0  0
 39 42  1  0  0  0  0
  8 11  1  0  0  0  0
 48 49  1  0  0  0  0
 18 21  1  0  0  0  0
 38 39  1  0  0  0  0
  7  8  1  0  0  0  0
 17 18  1  0  0  0  0
 23 33  1  0  0  0  0
 24 34  1  0  0  0  0
 25 35  1  0  0  0  0
 26 36  1  0  0  0  0
  3  4  1  0  0  0  0
  3  5  1  0  0  0  0
  3  6  1  0  0  0  0
 42 45  1  0  0  0  0
 42 46  1  0  0  0  0
 42 47  1  0  0  0  0
 11 14  1  0  0  0  0
 11 15  1  0  0  0  0
 11 16  1  0  0  0  0
 49 51  1  0  0  0  0
 49 52  1  0  0  0  0
 49 53  1  0  0  0  0
 21 31  1  0  0  0  0
 21 32  1  0  0  0  0
 39 44  1  0  0  0  0
  8 13  1  0  0  0  0
 18 30  1  0  0  0  0
 48 50  1  0  0  0  0
  7 12  1  0  0  0  0
 38 43  1  0  0  0  0
 17 29  1  0  0  0  0
 28 37  1  0  0  0  0
M  END
$$$$

  -OEChem-05262214473D

 53 53  0     1  0  0  0  0  0999 V2000
   -1.9298    0.2574    3.9747 C   0  0  0  0  0  0  0  0  0  0  0  0
   -0.9825   -0.3573    3.4990 O   0  0  0  0  0  0  0  0  0  0  0  0
   -2.3617   -0.0250    5.3754 C   0  0  0  0  0  0  0  0  0  0  0  0
   -3.1214   -0.8213    5.4288 H   0  0  0  0  0  0  0  0  0  0  0  0
   -1.5305   -0.3726    6.0097 H   0  0  0  0  0  0  0  0  0  0  0  0
   -2.7997    0.8299    5.9150 H   0  0  0  0  0  0  0  0  0  0  0  0
   -2.6795    1.2298    3.3336 N   0  0  0  0  0  0  0  0  0  0  0  0
   -2.4327    1.6559    1.9812 C   0  0  2  0  0  0  0  0  0  0  0  0
   -1.0977    1.0705    1.5400 C   0  0  0  0  0  0  0  0  0  0  0  0
   -0.2256    0.7177    2.3313 O   0  0  0  0  0  0  0  0  0  0  0  0
   -2.4239    3.1726    1.8718 C   0  0  0  0  0  0  0  0  0  0  0  0
   -3.4446    1.6657    3.8454 H   0  0  0  0  0  0  0  0  0  0  0  0
   -3.2368    1.2374    1.3661 H   0  0  0  0  0  0  0  0  0  0  0  0
   -1.6248    3.6099    2.4815 H   0  0  0  0  0  0  0  0  0  0  0  0
   -2.2644    3.4949    0.8375 H   0  0  0  0  0  0  0  0  0  0  0  0
   -3.3741    3.5939    2.2175 H   0  0  0  0  0  0  0  0  0  0  0  0
   -0.9750    1.0274    0.1566 N   0  0  0  0  0  0  0  0  0  0  0  0
    0.2023    0.5266   -0.5070 C   0  0  2  0  0  0  0  0  0  0  0  0
    0.7616    1.6648   -1.3530 C   0  0  0  0  0  0  0  0  0  0  0  0
    1.3447    1.4818   -2.4195 O   0  0  0  0  0  0  0  0  0  0  0  0
   -0.1029   -0.6912   -1.3868 C   0  0  0  0  0  0  0  0  0  0  0  0
   -0.5128   -1.9024   -0.5852 C   0  0  0  0  0  0  0  0  0  0  0  0
    0.4588   -2.7015    0.0175 C   0  0  0  0  0  0  0  0  0  0  0  0
   -1.8633   -2.2230   -0.4475 C   0  0  0  0  0  0  0  0  0  0  0  0
    0.0798   -3.8212    0.7580 C   0  0  0  0  0  0  0  0  0  0  0  0
   -2.2423   -3.3428    0.2929 C   0  0  0  0  0  0  0  0  0  0  0  0
   -1.2707   -4.1419    0.8957 C   0  0  0  0  0  0  0  0  0  0  0  0
   -1.6402   -5.2352    1.6171 O   0  0  0  0  0  0  0  0  0  0  0  0
   -1.7582    1.3241   -0.4207 H   0  0  0  0  0  0  0  0  0  0  0  0
    0.9228    0.2774    0.2808 H   0  0  0  0  0  0  0  0  0  0  0  0
    0.7674   -0.9379   -2.0100 H   0  0  0  0  0  0  0  0  0  0  0  0
   -0.9085   -0.4597   -2.0962 H   0  0  0  0  0  0  0  0  0  0  0  0
    1.5132   -2.4591   -0.0844 H   0  0  0  0  0  0  0  0  0  0  0  0
   -2.6272   -1.6060   -0.9135 H   0  0  0  0  0  0  0  0  0  0  0  0
    0.8414   -4.4400    1.2249 H   0  0  0  0  0  0  0  0  0  0  0  0
   -3.2957   -3.5874    0.3962 H   0  0  0  0  0  0  0  0  0  0  0  0
   -2.6065   -5.3250    1.6207 H   0  0  0  0  0  0  0  0  0  0  0  0
    0.4873    2.9075   -0.7989 N   0  0  0  0  0  0  0  0  0  0  0  0
    0.8854    4.1547   -1.4110 C   0  0  2  0  0  0  0  0  0  0  0  0
    2.3648    4.0566   -1.7592 C   0  0  0  0  0  0  0  0  0  0  0  0
    3.1338    3.2737   -1.2053 O   0  0  0  0  0  0  0  0  0  0  0  0
    0.6215    5.3335   -0.4872 C   0  0  0  0  0  0  0  0  0  0  0  0
   -0.0188    2.9420    0.0811 H   0  0  0  0  0  0  0  0  0  0  0  0
    0.2991    4.2569   -2.3307 H   0  0  0  0  0  0  0  0  0  0  0  0
    1.2003    5.2486    0.4398 H   0  0  0  0  0  0  0  0  0  0  0  0
    0.8971    6.2802   -0.9633 H   0  0  0  0  0  0  0  0  0  0  0  0
   -0.4380    5.3849   -0.2139 H   0  0  0  0  0  0  0  0  0  0  0  0
    2.7343    4.9760   -2.7310 N   0  0  0  0  0  0  0  0  0  0  0  0
    4.0876    5.0892   -3.2228 C   0  0  0  0  0  0  0  0  0  0  0  0
    2.0268    5.5732   -3.1486 H   0  0  0  0  0  0  0  0  0  0  0  0
    4.6285    5.8476   -2.6379 H   0  0  0  0  0  0  0  0  0  0  0  0
    4.5959    4.1187   -3.1238 H   0  0  0  0  0  0  0  0  0  0  0  0
    4.0691    5.3871   -4.2815 H   0  0  0  0  0  0  0  0  0  0  0  0
 23 25  2  0  0  0  0
 22 23  1  0  0  0  0
 24 26  1  0  0  0  0
 22 24  2  0  0  0  0
 25 27  1  0  0  0  0
 26 27  2  0  0  0  0
 21 22  1  0  0  0  0
 27 28  1  0  0  0  0
  1  3  1  0  0  0  0
  1  7  1  0  0  0  0
  1  2  2  0  0  0  0
 39 40  1  0  0  0  0
 40 48  1  0  0  0  0
 40 41  2  0  0  0  0
  8  9  1  0  0  0  0
  9 17  1  0  0  0  0
  9 10  2  0  0  0  0
 18 19  1  0  0  0  0
 19 38  1  0  0  0  0
 19 20  2  0  0  0  0
 39 42  1  0  0  0  0
  8 11  1  0  0  0  0
 48 49  1  0  0  0  0
 18 21  1  0  0  0  0
 38 39  1  0  0  0  0
  7  8  1  0  0  0  0
 17 18  1  0  0  0  0
 23 33  1  0  0  0  0
 24 34  1  0  0  0  0
 25 35  1  0  0  0  0
 26 36  1  0  0  0  0
  3  4  1  0  0  0  0
  3  5  1  0  0  0  0
  3  6  1  0  0  0  0
 42 45  1  0  0  0  0
 42 46  1  0  0  0  0
 42 47  1  0  0  0  0
 11 14  1  0  0  0  0
 11 15  1  0  0  0  0
 11 16  1  0  0  0  0
 49 51  1  0  0  0  0
 49 52  1  0  0  0  0
 49 53  1  0  0  0  0
 21 31  1  0  0  0  0
 21 32  1  0  0  0  0
 39 44  1  0  0  0  0
  8 13  1  0  0  0  0
 18 30  1  0  0  0  0
 48 50  1  0  0  0  0
  7 12  1  0  0  0  0
 38 43  1  0  0  0  0
 17 29  1  0  0  0  0
 28 37  1  0  0  0  0
M  END
$$$$

  -OEChem-05262214473D

 53 53  0     1  0  0  0  0  0999 V2000
   -1.9298    0.2574    3.9747 C   0  0  0  0  0  0  0  0  0  0  0  0
   -0.9825   -0.3573    3.4990 O   0  0  0  0  0  0  0  0  0  0  0  0
   -2.3617   -0.0250    5.3754 C   0  0  0  0  0  0  0  0  0  0  0  0
   -3.1214   -0.8213    5.4288 H   0  0  0  0  0  0  0  0  0  0  0  0
   -1.5305   -0.3726    6.0097 H   0  0  0  0  0  0  0  0  0  0  0  0
   -2.7997    0.8299    5.9150 H   0  0  0  0  0  0  0  0  0  0  0  0
   -2.6795    1.2298    3.3336 N   0  0  0  0  0  0  0  0  0  0  0  0
   -2.4327    1.6559    1.9812 C   0  0  2  0  0  0  0  0  0  0  0  0
   -1.0977    1.0705    1.5400 C   0  0  0  0  0  0  0  0  0  0  0  0
   -0.2256    0.7177    2.3313 O   0  0  0  0  0  0  0  0  0  0  0  0
   -2.4239    3.1726    1.8718 C   0  0  0  0  0  0  0  0  0  0  0  0
   -3.4446    1.6657    3.8454 H   0  0  0  0  0  0  0  0  0  0  0  0
   -3.2368    1.2374    1.3661 H   0  0  0  0  0  0  0  0  0  0  0  0
   -1.6248    3.6099    2.4815 H   0  0  0  0  0  0  0  0  0  0  0  0
   -2.2644    3.4949    0.8375 H   0  0  0  0  0  0  0  0  0  0  0  0
   -3.3741    3.5939    2.2175 H   0  0  0  0  0  0  0  0  0  0  0  0
   -0.9750    1.0274    0.1566 N   0  0  0  0  0  0  0  0  0  0  0  0
    0.2023    0.5266   -0.5070 C   0  0  2  0  0  0  0  0  0  0  0  0
    0.7616    1.6648   -1.3530 C   0  0  0  0  0  0  0  0  0  0  0  0
    1.1008    1.5226   -2.5259 O   0  0  0  0  0  0  0  0  0  0  0  0
   -0.1029   -0.6912   -1.3868 C   0  0  0  0  0  0  0  0  0  0  0  0
   -0.5128   -1.9024   -0.5852 C   0  0  0  0  0  0  0  0  0  0  0  0
    0.4588   -2.7015    0.0175 C   0  0  0  0  0  0  0  0  0  0  0  0
   -1.8633   -2.2230   -0.4475 C   0  0  0  0  0  0  0  0  0  0  0  0
    0.0798   -3.8212    0.7580 C   0  0  0  0  0  0  0  0  0  0  0  0
   -2.2423   -3.3428    0.2929 C   0  0  0  0  0  0  0  0  0  0  0  0
   -1.2707   -4.1419    0.8957 C   0  0  0  0  0  0  0  0  0  0  0  0
   -1.6402   -5.2352    1.6171 O   0  0  0  0  0  0  0  0  0  0  0  0
   -1.7582    1.3241   -0.4207 H   0  0  0  0  0  0  0  0  0  0  0  0
    0.9228    0.2774    0.2808 H   0  0  0  0  0  0  0  0  0  0  0  0
    0.7674   -0.9379   -2.0100 H   0  0  0  0  0  0  0  0  0  0  0  0
   -0.9085   -0.4597   -2.0962 H   0  0  0  0  0  0  0  0  0  0  0  0
    1.5132   -2.4591   -0.0844 H   0  0  0  0  0  0  0  0  0  0  0  0
   -2.6272   -1.6060   -0.9135 H   0  0  0  0  0  0  0  0  0  0  0  0
    0.8414   -4.4400    1.2249 H   0  0  0  0  0  0  0  0  0  0  0  0
   -3.2957   -3.5874    0.3962 H   0  0  0  0  0  0  0  0  0  0  0  0
   -2.6065   -5.3250    1.6207 H   0  0  0  0  0  0  0  0  0  0  0  0
    0.7887    2.8651   -0.6566 N   0  0  0  0  0  0  0  0  0  0  0  0
    1.2518    4.1068   -1.2331 C   0  0  2  0  0  0  0  0  0  0  0  0
    2.6077    3.8495   -1.8772 C   0  0  0  0  0  0  0  0  0  0  0  0
    3.3375    2.9148   -1.5535 O   0  0  0  0  0  0  0  0  0  0  0  0
    1.3481    5.2025   -0.1829 C   0  0  0  0  0  0  0  0  0  0  0  0
    0.4668    2.8711    0.3068 H   0  0  0  0  0  0  0  0  0  0  0  0
    0.5271    4.3866   -2.0055 H   0  0  0  0  0  0  0  0  0  0  0  0
    2.0695    4.9401    0.5994 H   0  0  0  0  0  0  0  0  0  0  0  0
    1.6717    6.1499   -0.6265 H   0  0  0  0  0  0  0  0  0  0  0  0
    0.3786    5.3657    0.3001 H   0  0  0  0  0  0  0  0  0  0  0  0
    2.9259    4.8114   -2.8257 N   0  0  0  0  0  0  0  0  0  0  0  0
    4.1650    4.7948   -3.5676 C   0  0  0  0  0  0  0  0  0  0  0  0
    2.2528    5.5402   -3.0436 H   0  0  0  0  0  0  0  0  0  0  0  0
    4.9150    5.4054   -3.0435 H   0  0  0  0  0  0  0  0  0  0  0  0
    4.5283    3.7599   -3.6512 H   0  0  0  0  0  0  0  0  0  0  0  0
    3.9954    5.2062   -4.5736 H   0  0  0  0  0  0  0  0  0  0  0  0
 23 25  2  0  0  0  0
 22 23  1  0  0  0  0
 24 26  1  0  0  0  0
 22 24  2  0  0  0  0
 25 27  1  0  0  0  0
 26 27  2  0  0  0  0
 21 22  1  0  0  0  0
 27 28  1  0  0  0  0
  1  3  1  0  0  0  0
  1  7  1  0  0  0  0
  1  2  2  0  0  0  0
 39 40  1  0  0  0  0
 40 48  1  0  0  0  0
 40 41  2  0  0  0  0
  8  9  1  0  0  0  0
  9 17  1  0  0  0  0
  9 10  2  0  0  0  0
 18 19  1  0  0  0  0
 19 38  1  0  0  0  0
 19 20  2  0  0  0  0
 39 42  1  0  0  0  0
  8 11  1  0  0  0  0
 48 49  1  0  0  0  0
 18 21  1  0  0  0  0
 38 39  1  0  0  0  0
  7  8  1  0  0  0  0
 17 18  1  0  0  0  0
 23 33  1  0  0  0  0
 24 34  1  0  0  0  0
 25 35  1  0  0  0  0
 26 36  1  0  0  0  0
  3  4  1  0  0  0  0
  3  5  1  0  0  0  0
  3  6  1  0  0  0  0
 42 45  1  0  0  0  0
 42 46  1  0  0  0  0
 42 47  1  0  0  0  0
 11 14  1  0  0  0  0
 11 15  1  0  0  0  0
 11 16  1  0  0  0  0
 49 51  1  0  0  0  0
 49 52  1  0  0  0  0
 49 53  1  0  0  0  0
 21 31  1  0  0  0  0
 21 32  1  0  0  0  0
 39 44  1  0  0  0  0
  8 13  1  0  0  0  0
 18 30  1  0  0  0  0
 48 50  1  0  0  0  0
  7 12  1  0  0  0  0
 38 43  1  0  0  0  0
 17 29  1  0  0  0  0
 28 37  1  0  0  0  0
M  END
$$$$

  -OEChem-05262214473D

 53 53  0     1  0  0  0  0  0999 V2000
   -1.9298    0.2574    3.9747 C   0  0  0  0  0  0  0  0  0  0  0  0
   -0.9825   -0.3573    3.4990 O   0  0  0  0  0  0  0  0  0  0  0  0
   -2.3617   -0.0250    5.3754 C   0  0  0  0  0  0  0  0  0  0  0  0
   -3.1214   -0.8213    5.4288 H   0  0  0  0  0  0  0  0  0  0  0  0
   -1.5305   -0.3726    6.0097 H   0  0  0  0  0  0  0  0  0  0  0  0
   -2.7997    0.8299    5.9150 H   0  0  0  0  0  0  0  0  0  0  0  0
   -2.6795    1.2298    3.3336 N   0  0  0  0  0  0  0  0  0  0  0  0
   -2.4327    1.6559    1.9812 C   0  0  2  0  0  0  0  0  0  0  0  0
   -1.0977    1.0705    1.5400 C   0  0  0  0  0  0  0  0  0  0  0  0
   -0.2256    0.7177    2.3313 O   0  0  0  0  0  0  0  0  0  0  0  0
   -2.4239    3.1726    1.8718 C   0  0  0  0  0  0  0  0  0  0  0  0
   -3.4446    1.6657    3.8454 H   0  0  0  0  0  0  0  0  0  0  0  0
   -3.2368    1.2374    1.3661 H   0  0  0  0  0  0  0  0  0  0  0  0
   -1.6248    3.6099    2.4815 H   0  0  0  0  0  0  0  0  0  0  0  0
   -2.2644    3.4949    0.8375 H   0  0  0  0  0  0  0  0  0  0  0  0
   -3.3741    3.5939    2.2175 H   0  0  0  0  0  0  0  0  0  0  0  0
   -0.9750    1.0274    0.1566 N   0  0  0  0  0  0  0  0  0  0  0  0
    0.2023    0.5266   -0.5070 C   0  0  2  0  0  0  0  0  0  0  0  0
    0.7616    1.6648   -1.3530 C   0  0  0  0  0  0  0  0  0  0  0  0
    0.8506    1.6071   -2.5776 O   0  0  0  0  0  0  0  0  0  0  0  0
   -0.1029   -0.6912   -1.3868 C   0  0  0  0  0  0  0  0  0  0  0  0
   -0.5128   -1.9024   -0.5852 C   0  0  0  0  0  0  0  0  0  0  0  0
    0.4588   -2.7015    0.0175 C   0  0  0  0  0  0  0  0  0  0  0  0
   -1.8633   -2.2230   -0.4475 C   0  0  0  0  0  0  0  0  0  0  0  0
    0.0798   -3.8212    0.7580 C   0  0  0  0  0  0  0  0  0  0  0  0
   -2.2423   -3.3428    0.2929 C   0  0  0  0  0  0  0  0  0  0  0  0
   -1.2707   -4.1419    0.8957 C   0  0  0  0  0  0  0  0  0  0  0  0
   -1.6402   -5.2352    1.6171 O   0  0  0  0  0  0  0  0  0  0  0  0
   -1.7582    1.3241   -0.4207 H   0  0  0  0  0  0  0  0  0  0  0  0
    0.9228    0.2774    0.2808 H   0  0  0  0  0  0  0  0  0  0  0  0
    0.7674   -0.9379   -2.0100 H   0  0  0  0  0  0  0  0  0  0  0  0
   -0.9085   -0.4597   -2.0962 H   0  0  0  0  0  0  0  0  0  0  0  0
    1.5132   -2.4591   -0.0844 H   0  0  0  0  0  0  0  0  0  0  0  0
   -2.6272   -1.6060   -0.9135 H   0  0  0  0  0  0  0  0  0  0  0  0
    0.8414   -4.4400    1.2249 H   0  0  0  0  0  0  0  0  0  0  0  0
   -3.2957   -3.5874    0.3962 H   0  0  0  0  0  0  0  0  0  0  0  0
   -2.6065   -5.3250    1.6207 H   0  0  0  0  0  0  0  0  0  0  0  0
    1.1012    2.7674   -0.5814 N   0  0  0  0  0  0  0  0  0  0  0  0
    1.6332    3.9911   -1.1366 C   0  0  2  0  0  0  0  0  0  0  0  0
    2.7898    3.6258   -2.0578 C   0  0  0  0  0  0  0  0  0  0  0  0
    3.4154    2.5719   -1.9634 O   0  0  0  0  0  0  0  0  0  0  0  0
    2.0899    4.9428   -0.0419 C   0  0  0  0  0  0  0  0  0  0  0  0
    0.9692    2.7114    0.4242 H   0  0  0  0  0  0  0  0  0  0  0  0
    0.8288    4.4482   -1.7232 H   0  0  0  0  0  0  0  0  0  0  0  0
    2.8957    4.5021    0.5564 H   0  0  0  0  0  0  0  0  0  0  0  0
    2.4662    5.8808   -0.4632 H   0  0  0  0  0  0  0  0  0  0  0  0
    1.2640    5.1810    0.6370 H   0  0  0  0  0  0  0  0  0  0  0  0
    3.0690    4.6339   -2.9698 N   0  0  0  0  0  0  0  0  0  0  0  0
    4.1308    4.5321   -3.9436 C   0  0  0  0  0  0  0  0  0  0  0  0
    2.4866    5.4659   -2.9889 H   0  0  0  0  0  0  0  0  0  0  0  0
    5.0497    4.9756   -3.5326 H   0  0  0  0  0  0  0  0  0  0  0  0
    4.3096    3.4732   -4.1816 H   0  0  0  0  0  0  0  0  0  0  0  0
    3.8418    5.0698   -4.8586 H   0  0  0  0  0  0  0  0  0  0  0  0
 23 25  2  0  0  0  0
 22 23  1  0  0  0  0
 24 26  1  0  0  0  0
 22 24  2  0  0  0  0
 25 27  1  0  0  0  0
 26 27  2  0  0  0  0
 21 22  1  0  0  0  0
 27 28  1  0  0  0  0
  1  3  1  0  0  0  0
  1  7  1  0  0  0  0
  1  2  2  0  0  0  0
 39 40  1  0  0  0  0
 40 48  1  0  0  0  0
 40 41  2  0  0  0  0
  8  9  1  0  0  0  0
  9 17  1  0  0  0  0
  9 10  2  0  0  0  0
 18 19  1  0  0  0  0
 19 38  1  0  0  0  0
 19 20  2  0  0  0  0
 39 42  1  0  0  0  0
  8 11  1  0  0  0  0
 48 49  1  0  0  0  0
 18 21  1  0  0  0  0
 38 39  1  0  0  0  0
  7  8  1  0  0  0  0
 17 18  1  0  0  0  0
 23 33  1  0  0  0  0
 24 34  1  0  0  0  0
 25 35  1  0  0  0  0
 26 36  1  0  0  0  0
  3  4  1  0  0  0  0
  3  5  1  0  0  0  0
  3  6  1  0  0  0  0
 42 45  1  0  0  0  0
 42 46  1  0  0  0  0
 42 47  1  0  0  0  0
 11 14  1  0  0  0  0
 11 15  1  0  0  0  0
 11 16  1  0  0  0  0
 49 51  1  0  0  0  0
 49 52  1  0  0  0  0
 49 53  1  0  0  0  0
 21 31  1  0  0  0  0
 21 32  1  0  0  0  0
 39 44  1  0  0  0  0
  8 13  1  0  0  0  0
 18 30  1  0  0  0  0
 48 50  1  0  0  0  0
  7 12  1  0  0  0  0
 38 43  1  0  0  0  0
 17 29  1  0  0  0  0
 28 37  1  0  0  0  0
M  END
$$$$

  -OEChem-05262214473D

 53 53  0     1  0  0  0  0  0999 V2000
   -1.9298    0.2574    3.9747 C   0  0  0  0  0  0  0  0  0  0  0  0
   -0.9825   -0.3573    3.4990 O   0  0  0  0  0  0  0  0  0  0  0  0
   -2.3617   -0.0250    5.3754 C   0  0  0  0  0  0  0  0  0  0  0  0
   -3.1214   -0.8213    5.4288 H   0  0  0  0  0  0  0  0  0  0  0  0
   -1.5305   -0.3726    6.0097 H   0  0  0  0  0  0  0  0  0  0  0  0
   -2.7997    0.8299    5.9150 H   0  0  0  0  0  0  0  0  0  0  0  0
   -2.6795    1.2298    3.3336 N   0  0  0  0  0  0  0  0  0  0  0  0
   -2.4327    1.6559    1.9812 C   0  0  2  0  0  0  0  0  0  0  0  0
   -1.0977    1.0705    1.5400 C   0  0  0  0  0  0  0  0  0  0  0  0
   -0.2256    0.7177    2.3313 O   0  0  0  0  0  0  0  0  0  0  0  0
   -2.4239    3.1726    1.8718 C   0  0  0  0  0  0  0  0  0  0  0  0
   -3.4446    1.6657    3.8454 H   0  0  0  0  0  0  0  0  0  0  0  0
   -3.2368    1.2374    1.3661 H   0  0  0  0  0  0  0  0  0  0  0  0
   -1.6248    3.6099    2.4815 H   0  0  0  0  0  0  0  0  0  0  0  0
   -2.2644    3.4949    0.8375 H   0  0  0  0  0  0  0  0  0  0  0  0
   -3.3741    3.5939    2.2175 H   0  0  0  0  0  0  0  0  0  0  0  0
   -0.9750    1.0274    0.1566 N   0  0  0  0  0  0  0  0  0  0  0  0
    0.2023    0.5266   -0.5070 C   0  0  2  0  0  0  0  0  0  0  0  0
    0.7616    1.6648   -1.3530 C   0  0  0  0  0  0  0  0  0  0  0  0
    0.6110    1.7296   -2.5712 O   0  0  0  0  0  0  0  0  0  0  0  0
   -0.1029   -0.6912   -1.3868 C   0  0  0  0  0  0  0  0  0  0  0  0
   -0.5128   -1.9024   -0.5852 C   0  0  0  0  0  0  0  0  0  0  0  0
    0.4588   -2.7015    0.0175 C   0  0  0  0  0  0  0  0  0  0  0  0
   -1.8633   -2.2230   -0.4475 C   0  0  0  0  0  0  0  0  0  0  0  0
    0.0798   -3.8212    0.7580 C   0  0  0  0  0  0  0  0  0  0  0  0
   -2.2423   -3.3428    0.2929 C   0  0  0  0  0  0  0  0  0  0  0  0
   -1.2707   -4.1419    0.8957 C   0  0  0  0  0  0  0  0  0  0  0  0
   -1.6402   -5.2352    1.6171 O   0  0  0  0  0  0  0  0  0  0  0  0
   -1.7582    1.3241   -0.4207 H   0  0  0  0  0  0  0  0  0  0  0  0
    0.9228    0.2774    0.2808 H   0  0  0  0  0  0  0  0  0  0  0  0
    0.7674   -0.9379   -2.0100 H   0  0  0  0  0  0  0  0  0  0  0  0
   -0.9085   -0.4597   -2.0962 H   0  0  0  0  0  0  0  0  0  0  0  0
    1.5132   -2.4591   -0.0844 H   0  0  0  0  0  0  0  0  0  0  0  0
   -2.6272   -1.6060   -0.9135 H   0  0  0  0  0  0  0  0  0  0  0  0
    0.8414   -4.4400    1.2249 H   0  0  0  0  0  0  0  0  0  0  0  0
   -3.2957   -3.5874    0.3962 H   0  0  0  0  0  0  0  0  0  0  0  0
   -2.6065   -5.3250    1.6207 H   0  0  0  0  0  0  0  0  0  0  0  0
    1.4036    2.6210   -0.5784 N   0  0  0  0  0  0  0  0  0  0  0  0
    2.0037    3.8154   -1.1282 C   0  0  2  0  0  0  0  0  0  0  0  0
    2.8986    3.4007   -2.2886 C   0  0  0  0  0  0  0  0  0  0  0  0
    3.3621    2.2684   -2.4069 O   0  0  0  0  0  0  0  0  0  0  0  0
    2.7964    4.5720   -0.0737 C   0  0  0  0  0  0  0  0  0  0  0  0
    1.4543    2.4739    0.4253 H   0  0  0  0  0  0  0  0  0  0  0  0
    1.1836    4.4376   -1.5029 H   0  0  0  0  0  0  0  0  0  0  0  0
    3.6225    3.9644    0.3135 H   0  0  0  0  0  0  0  0  0  0  0  0
    3.2266    5.4913   -0.4846 H   0  0  0  0  0  0  0  0  0  0  0  0
    2.1578    4.8434    0.7738 H   0  0  0  0  0  0  0  0  0  0  0  0
    3.1540    4.4556   -3.1535 N   0  0  0  0  0  0  0  0  0  0  0  0
    3.9874    4.3190   -4.3251 C   0  0  0  0  0  0  0  0  0  0  0  0
    2.7125    5.3554   -2.9883 H   0  0  0  0  0  0  0  0  0  0  0  0
    5.0237    4.5876   -4.0719 H   0  0  0  0  0  0  0  0  0  0  0  0
    3.9546    3.2779   -4.6789 H   0  0  0  0  0  0  0  0  0  0  0  0
    3.6187    4.9872   -5.1173 H   0  0  0  0  0  0  0  0  0  0  0  0
 23 25  2  0  0  0  0
 22 23  1  0  0  0  0
 24 26  1  0  0  0  0
 22 24  2  0  0  0  0
 25 27  1  0  0  0  0
 26 27  2  0  0  0  0
 21 22  1  0  0  0  0
 27 28  1  0  0  0  0
  1  3  1  0  0  0  0
  1  7  1  0  0  0  0
  1  2  2  0  0  0  0
 39 40  1  0  0  0  0
 40 48  1  0  0  0  0
 40 41  2  0  0  0  0
  8  9  1  0  0  0  0
  9 17  1  0  0  0  0
  9 10  2  0  0  0  0
 18 19  1  0  0  0  0
 19 38  1  0  0  0  0
 19 20  2  0  0  0  0
 39 42  1  0  0  0  0
  8 11  1  0  0  0  0
 48 49  1  0  0  0  0
 18 21  1  0  0  0  0
 38 39  1  0  0  0  0
  7  8  1  0  0  0  0
 17 18  1  0  0  0  0
 23 33  1  0  0  0  0
 24 34  1  0  0  0  0
 25 35  1  0  0  0  0
 26 36  1  0  0  0  0
  3  4  1  0  0  0  0
  3  5  1  0  0  0  0
  3  6  1  0  0  0  0
 42 45  1  0  0  0  0
 42 46  1  0  0  0  0
 42 47  1  0  0  0  0
 11 14  1  0  0  0  0
 11 15  1  0  0  0  0
 11 16  1  0  0  0  0
 49 51  1  0  0  0  0
 49 52  1  0  0  0  0
 49 53  1  0  0  0  0
 21 31  1  0  0  0  0
 21 32  1  0  0  0  0
 39 44  1  0  0  0  0
  8 13  1  0  0  0  0
 18 30  1  0  0  0  0
 48 50  1  0  0  0  0
  7 12  1  0  0  0  0
 38 43  1  0  0  0  0
 17 29  1  0  0  0  0
 28 37  1  0  0  0  0
M  END
$$$$

  -OEChem-05262214473D

 53 53  0     1  0  0  0  0  0999 V2000
   -1.9298    0.2574    3.9747 C   0  0  0  0  0  0  0  0  0  0  0  0
   -0.9825   -0.3573    3.4990 O   0  0  0  0  0  0  0  0  0  0  0  0
   -2.3617   -0.0250    5.3754 C   0  0  0  0  0  0  0  0  0  0  0  0
   -3.1214   -0.8213    5.4288 H   0  0  0  0  0  0  0  0  0  0  0  0
   -1.5305   -0.3726    6.0097 H   0  0  0  0  0  0  0  0  0  0  0  0
   -2.7997    0.8299    5.9150 H   0  0  0  0  0  0  0  0  0  0  0  0
   -2.6795    1.2298    3.3336 N   0  0  0  0  0  0  0  0  0  0  0  0
   -2.4327    1.6559    1.9812 C   0  0  2  0  0  0  0  0  0  0  0  0
   -1.0977    1.0705    1.5400 C   0  0  0  0  0  0  0  0  0  0  0  0
   -0.2256    0.7177    2.3313 O   0  0  0  0  0  0  0  0  0  0  0  0
   -2.4239    3.1726    1.8718 C   0  0  0  0  0  0  0  0  0  0  0  0
   -3.4446    1.6657    3.8454 H   0  0  0  0  0  0  0  0  0  0  0  0
   -3.2368    1.2374    1.3661 H   0  0  0  0  0  0  0  0  0  0  0  0
   -1.6248    3.6099    2.4815 H   0  0  0  0  0  0  0  0  0  0  0  0
   -2.2644    3.4949    0.8375 H   0  0  0  0  0  0  0  0  0  0  0  0
   -3.3741    3.5939    2.2175 H   0  0  0  0  0  0  0  0  0  0  0  0
   -0.9750    1.0274    0.1566 N   0  0  0  0  0  0  0  0  0  0  0  0
    0.2023    0.5266   -0.5070 C   0  0  2  0  0  0  0  0  0  0  0  0
    0.7616    1.6648   -1.3530 C   0  0  0  0  0  0  0  0  0  0  0  0
    0.3984    1.8817   -2.5071 O   0  0  0  0  0  0  0  0  0  0  0  0
   -0.1029   -0.6912   -1.3868 C   0  0  0  0  0  0  0  0  0  0  0  0
   -0.5128   -1.9024   -0.5852 C   0  0  0  0  0  0  0  0  0  0  0  0
    0.4588   -2.7015    0.0175 C   0  0  0  0  0  0  0  0  0  0  0  0
   -1.8633   -2.2230   -0.4475 C   0  0  0  0  0  0  0  0  0  0  0  0
    0.0798   -3.8212    0.7580 C   0  0  0  0  0  0  0  0  0  0  0  0
   -2.2423   -3.3428    0.2929 C   0  0  0  0  0  0  0  0  0  0  0  0
   -1.2707   -4.1419    0.8957 C   0  0  0  0  0  0  0  0  0  0  0  0
   -1.6402   -5.2352    1.6171 O   0  0  0  0  0  0  0  0  0  0  0  0
   -1.7582    1.3241   -0.4207 H   0  0  0  0  0  0  0  0  0  0  0  0
    0.9228    0.2774    0.2808 H   0  0  0  0  0  0  0  0  0  0  0  0
    0.7674   -0.9379   -2.0100 H   0  0  0  0  0  0  0  0  0  0  0  0
   -0.9085   -0.4597   -2.0962 H   0  0  0  0  0  0  0  0  0  0  0  0
    1.5132   -2.4591   -0.0844 H   0  0  0  0  0  0  0  0  0  0  0  0
   -2.6272   -1.6060   -0.9135 H   0  0  0  0  0  0  0  0  0  0  0  0
    0.8414   -4.4400    1.2249 H   0  0  0  0  0  0  0  0  0  0  0  0
   -3.2957   -3.5874    0.3962 H   0  0  0  0  0  0  0  0  0  0  0  0
   -2.6065   -5.3250    1.6207 H   0  0  0  0  0  0  0  0  0  0  0  0
    1.6753    2.4359   -0.6479 N   0  0  0  0  0  0  0  0  0  0  0  0
    2.3379    3.5916   -1.2082 C   0  0  2  0  0  0  0  0  0  0  0  0
    2.9269    3.1896   -2.5540 C   0  0  0  0  0  0  0  0  0  0  0  0
    3.1815    2.0250   -2.8538 O   0  0  0  0  0  0  0  0  0  0  0  0
    3.4194    4.1153   -0.2762 C   0  0  0  0  0  0  0  0  0  0  0  0
    1.8889    2.1747    0.3102 H   0  0  0  0  0  0  0  0  0  0  0  0
    1.5674    4.3554   -1.3596 H   0  0  0  0  0  0  0  0  0  0  0  0
    4.2004    3.3637   -0.1125 H   0  0  0  0  0  0  0  0  0  0  0  0
    3.9011    5.0078   -0.6891 H   0  0  0  0  0  0  0  0  0  0  0  0
    2.9990    4.3760    0.7011 H   0  0  0  0  0  0  0  0  0  0  0  0
    3.1749    4.2887   -3.3643 N   0  0  0  0  0  0  0  0  0  0  0  0
    3.7446    4.1699   -4.6862 C   0  0  0  0  0  0  0  0  0  0  0  0
    2.9148    5.2161   -3.0419 H   0  0  0  0  0  0  0  0  0  0  0  0
    4.8385    4.2677   -4.6247 H   0  0  0  0  0  0  0  0  0  0  0  0
    3.4876    3.1876   -5.1092 H   0  0  0  0  0  0  0  0  0  0  0  0
    3.3414    4.9640   -5.3318 H   0  0  0  0  0  0  0  0  0  0  0  0
 23 25  2  0  0  0  0
 22 23  1  0  0  0  0
 24 26  1  0  0  0  0
 22 24  2  0  0  0  0
 25 27  1  0  0  0  0
 26 27  2  0  0  0  0
 21 22  1  0  0  0  0
 27 28  1  0  0  0  0
  1  3  1  0  0  0  0
  1  7  1  0  0  0  0
  1  2  2  0  0  0  0
 39 40  1  0  0  0  0
 40 48  1  0  0  0  0
 40 41  2  0  0  0  0
  8  9  1  0  0  0  0
  9 17  1  0  0  0  0
  9 10  2  0  0  0  0
 18 19  1  0  0  0  0
 19 38  1  0  0  0  0
 19 20  2  0  0  0  0
 39 42  1  0  0  0  0
  8 11  1  0  0  0  0
 48 49  1  0  0  0  0
 18 21  1  0  0  0  0
 38 39  1  0  0  0  0
  7  8  1  0  0  0  0
 17 18  1  0  0  0  0
 23 33  1  0  0  0  0
 24 34  1  0  0  0  0
 25 35  1  0  0  0  0
 26 36  1  0  0  0  0
  3  4  1  0  0  0  0
  3  5  1  0  0  0  0
  3  6  1  0  0  0  0
 42 45  1  0  0  0  0
 42 46  1  0  0  0  0
 42 47  1  0  0  0  0
 11 14  1  0  0  0  0
 11 15  1  0  0  0  0
 11 16  1  0  0  0  0
 49 51  1  0  0  0  0
 49 52  1  0  0  0  0
 49 53  1  0  0  0  0
 21 31  1  0  0  0  0
 21 32  1  0  0  0  0
 39 44  1  0  0  0  0
  8 13  1  0  0  0  0
 18 30  1  0  0  0  0
 48 50  1  0  0  0  0
  7 12  1  0  0  0  0
 38 43  1  0  0  0  0
 17 29  1  0  0  0  0
 28 37  1  0  0  0  0
M  END
$$$$

  -OEChem-05262214473D

 53 53  0     1  0  0  0  0  0999 V2000
   -1.9298    0.2574    3.9747 C   0  0  0  0  0  0  0  0  0  0  0  0
   -0.9825   -0.3573    3.4990 O   0  0  0  0  0  0  0  0  0  0  0  0
   -2.3617   -0.0250    5.3754 C   0  0  0  0  0  0  0  0  0  0  0  0
   -3.1214   -0.8213    5.4288 H   0  0  0  0  0  0  0  0  0  0  0  0
   -1.5305   -0.3726    6.0097 H   0  0  0  0  0  0  0  0  0  0  0  0
   -2.7997    0.8299    5.9150 H   0  0  0  0  0  0  0  0  0  0  0  0
   -2.6795    1.2298    3.3336 N   0  0  0  0  0  0  0  0  0  0  0  0
   -2.4327    1.6559    1.9812 C   0  0  2  0  0  0  0  0  0  0  0  0
   -1.0977    1.0705    1.5400 C   0  0  0  0  0  0  0  0  0  0  0  0
   -0.2256    0.7177    2.3313 O   0  0  0  0  0  0  0  0  0  0  0  0
   -2.4239    3.1726    1.8718 C   0  0  0  0  0  0  0  0  0  0  0  0
   -3.4446    1.6657    3.8454 H   0  0  0  0  0  0  0  0  0  0  0  0
   -3.2368    1.2374    1.3661 H   0  0  0  0  0  0  0  0  0  0  0  0
   -1.6248    3.6099    2.4815 H   0  0  0  0  0  0  0  0  0  0  0  0
   -2.2644    3.4949    0.8375 H   0  0  0  0  0  0  0  0  0  0  0  0
   -3.3741    3.5939    2.2175 H   0  0  0  0  0  0  0  0  0  0  0  0
   -0.9750    1.0274    0.1566 N   0  0  0  0  0  0  0  0  0  0  0  0
    0.2023    0.5266   -0.5070 C   0  0  2  0  0  0  0  0  0  0  0  0
    0.7616    1.6648   -1.3530 C   0  0  0  0  0  0  0  0  0  0  0  0
    0.2273    2.0531   -2.3897 O   0  0  0  0  0  0  0  0  0  0  0  0
   -0.1029   -0.6912   -1.3868 C   0  0  0  0  0  0  0  0  0  0  0  0
   -0.5128   -1.9024   -0.5852 C   0  0  0  0  0  0  0  0  0  0  0  0
    0.4588   -2.7015    0.0175 C   0  0  0  0  0  0  0  0  0  0  0  0
   -1.8633   -2.2230   -0.4475 C   0  0  0  0  0  0  0  0  0  0  0  0
    0.0798   -3.8212    0.7580 C   0  0  0  0  0  0  0  0  0  0  0  0
   -2.2423   -3.3428    0.2929 C   0  0  0  0  0  0  0  0  0  0  0  0
   -1.2707   -4.1419    0.8957 C   0  0  0  0  0  0  0  0  0  0  0  0
   -1.6402   -5.2352    1.6171 O   0  0  0  0  0  0  0  0  0  0  0  0
   -1.7582    1.3241   -0.4207 H   0  0  0  0  0  0  0  0  0  0  0  0
    0.9228    0.2774    0.2808 H   0  0  0  0  0  0  0  0  0  0  0  0
    0.7674   -0.9379   -2.0100 H   0  0  0  0  0  0  0  0  0  0  0  0
   -0.9085   -0.4597   -2.0962 H   0  0  0  0  0  0  0  0  0  0  0  0
    1.5132   -2.4591   -0.0844 H   0  0  0  0  0  0  0  0  0  0  0  0
   -2.6272   -1.6060   -0.9135 H   0  0  0  0  0  0  0  0  0  0  0  0
    0.8414   -4.4400    1.2249 H   0  0  0  0  0  0  0  0  0  0  0  0
   -3.2957   -3.5874    0.3962 H   0  0  0  0  0  0  0  0  0  0  0  0
   -2.6065   -5.3250    1.6207 H   0  0  0  0  0  0  0  0  0  0  0  0
    1.8976    2.2246   -0.7851 N   0  0  0  0  0  0  0  0  0  0  0  0
    2.6131    3.3351   -1.3714 C   0  0  2  0  0  0  0  0  0  0  0  0
    2.8725    3.0068   -2.8358 C   0  0  0  0  0  0  0  0  0  0  0  0
    2.8856    1.8583   -3.2737 O   0  0  0  0  0  0  0  0  0  0  0  0
    3.9165    3.6040   -0.6355 C   0  0  0  0  0  0  0  0  0  0  0  0
    2.2435    1.8342    0.0865 H   0  0  0  0  0  0  0  0  0  0  0  0
    1.9540    4.2074   -1.3033 H   0  0  0  0  0  0  0  0  0  0  0  0
    4.5899    2.7410   -0.6928 H   0  0  0  0  0  0  0  0  0  0  0  0
    4.4435    4.4634   -1.0630 H   0  0  0  0  0  0  0  0  0  0  0  0
    3.7304    3.8105    0.4240 H   0  0  0  0  0  0  0  0  0  0  0  0
    3.1304    4.1444   -3.5879 N   0  0  0  0  0  0  0  0  0  0  0  0
    3.4189    4.0951   -5.0022 C   0  0  0  0  0  0  0  0  0  0  0  0
    3.0799    5.0576   -3.1460 H   0  0  0  0  0  0  0  0  0  0  0  0
    4.5070    4.0378   -5.1532 H   0  0  0  0  0  0  0  0  0  0  0  0
    2.9404    3.2083   -5.4432 H   0  0  0  0  0  0  0  0  0  0  0  0
    3.0287    5.0018   -5.4877 H   0  0  0  0  0  0  0  0  0  0  0  0
 23 25  2  0  0  0  0
 22 23  1  0  0  0  0
 24 26  1  0  0  0  0
 22 24  2  0  0  0  0
 25 27  1  0  0  0  0
 26 27  2  0  0  0  0
 21 22  1  0  0  0  0
 27 28  1  0  0  0  0
  1  3  1  0  0  0  0
  1  7  1  0  0  0  0
  1  2  2  0  0  0  0
 39 40  1  0  0  0  0
 40 48  1  0  0  0  0
 40 41  2  0  0  0  0
  8  9  1  0  0  0  0
  9 17  1  0  0  0  0
  9 10  2  0  0  0  0
 18 19  1  0  0  0  0
 19 38  1  0  0  0  0
 19 20  2  0  0  0  0
 39 42  1  0  0  0  0
  8 11  1  0  0  0  0
 48 49  1  0  0  0  0
 18 21  1  0  0  0  0
 38 39  1  0  0  0  0
  7  8  1  0  0  0  0
 17 18  1  0  0  0  0
 23 33  1  0  0  0  0
 24 34  1  0  0  0  0
 25 35  1  0  0  0  0
 26 36  1  0  0  0  0
  3  4  1  0  0  0  0
  3  5  1  0  0  0  0
  3  6  1  0  0  0  0
 42 45  1  0  0  0  0
 42 46  1  0  0  0  0
 42 47  1  0  0  0  0
 11 14  1  0  0  0  0
 11 15  1  0  0  0  0
 11 16  1  0  0  0  0
 49 51  1  0  0  0  0
 49 52  1  0  0  0  0
 49 53  1  0  0  0  0
 21 31  1  0  0  0  0
 21 32  1  0  0  0  0
 39 44  1  0  0  0  0
  8 13  1  0  0  0  0
 18 30  1  0  0  0  0
 48 50  1  0  0  0  0
  7 12  1  0  0  0  0
 38 43  1  0  0  0  0
 17 29  1  0  0  0  0
 28 37  1  0  0  0  0
M  END
$$$$

  -OEChem-05262214473D

 53 53  0     1  0  0  0  0  0999 V2000
   -1.9298    0.2574    3.9747 C   0  0  0  0  0  0  0  0  0  0  0  0
   -0.9825   -0.3573    3.4990 O   0  0  0  0  0  0  0  0  0  0  0  0
   -2.3617   -0.0250    5.3754 C   0  0  0  0  0  0  0  0  0  0  0  0
   -3.1214   -0.8213    5.4288 H   0  0  0  0  0  0  0  0  0  0  0  0
   -1.5305   -0.3726    6.0097 H   0  0  0  0  0  0  0  0  0  0  0  0
   -2.7997    0.8299    5.9150 H   0  0  0  0  0  0  0  0  0  0  0  0
   -2.6795    1.2298    3.3336 N   0  0  0  0  0  0  0  0  0  0  0  0
   -2.4327    1.6559    1.9812 C   0  0  2  0  0  0  0  0  0  0  0  0
   -1.0977    1.0705    1.5400 C   0  0  0  0  0  0  0  0  0  0  0  0
   -0.2256    0.7177    2.3313 O   0  0  0  0  0  0  0  0  0  0  0  0
   -2.4239    3.1726    1.8718 C   0  0  0  0  0  0  0  0  0  0  0  0
   -3.4446    1.6657    3.8454 H   0  0  0  0  0  0  0  0  0  0  0  0
   -3.2368    1.2374    1.3661 H   0  0  0  0  0  0  0  0  0  0  0  0
   -1.6248    3.6099    2.4815 H   0  0  0  0  0  0  0  0  0  0  0  0
   -2.2644    3.4949    0.8375 H   0  0  0  0  0  0  0  0  0  0  0  0
   -3.3741    3.5939    2.2175 H   0  0  0  0  0  0  0  0  0  0  0  0
   -0.9750    1.0274    0.1566 N   0  0  0  0  0  0  0  0  0  0  0  0
    0.2023    0.5266   -0.5070 C   0  0  2  0  0  0  0  0  0  0  0  0
    0.7616    1.6648   -1.3530 C   0  0  0  0  0  0  0  0  0  0  0  0
    0.1093    2.2321   -2.2269 O   0  0  0  0  0  0  0  0  0  0  0  0
   -0.1029   -0.6912   -1.3868 C   0  0  0  0  0  0  0  0  0  0  0  0
   -0.5128   -1.9024   -0.5852 C   0  0  0  0  0  0  0  0  0  0  0  0
    0.4588   -2.7015    0.0175 C   0  0  0  0  0  0  0  0  0  0  0  0
   -1.8633   -2.2230   -0.4475 C   0  0  0  0  0  0  0  0  0  0  0  0
    0.0798   -3.8212    0.7580 C   0  0  0  0  0  0  0  0  0  0  0  0
   -2.2423   -3.3428    0.2929 C   0  0  0  0  0  0  0  0  0  0  0  0
   -1.2707   -4.1419    0.8957 C   0  0  0  0  0  0  0  0  0  0  0  0
   -1.6402   -5.2352    1.6171 O   0  0  0  0  0  0  0  0  0  0  0  0
   -1.7582    1.3241   -0.4207 H   0  0  0  0  0  0  0  0  0  0  0  0
    0.9228    0.2774    0.2808 H   0  0  0  0  0  0  0  0  0  0  0  0
    0.7674   -0.9379   -2.0100 H   0  0  0  0  0  0  0  0  0  0  0  0
   -0.9085   -0.4597   -2.0962 H   0  0  0  0  0  0  0  0  0  0  0  0
    1.5132   -2.4591   -0.0844 H   0  0  0  0  0  0  0  0  0  0  0  0
   -2.6272   -1.6060   -0.9135 H   0  0  0  0  0  0  0  0  0  0  0  0
    0.8414   -4.4400    1.2249 H   0  0  0  0  0  0  0  0  0  0  0  0
   -3.2957   -3.5874    0.3962 H   0  0  0  0  0  0  0  0  0  0  0  0
   -2.6065   -5.3250    1.6207 H   0  0  0  0  0  0  0  0  0  0  0  0
    2.0556    2.0017   -0.9806 N   0  0  0  0  0  0  0  0  0  0  0  0
    2.8106    3.0632   -1.6066 C   0  0  2  0  0  0  0  0  0  0  0  0
    2.7393    2.8649   -3.1149 C   0  0  0  0  0  0  0  0  0  0  0  0
    2.4948    1.7796   -3.6379 O   0  0  0  0  0  0  0  0  0  0  0  0
    4.2538    3.0728   -1.1272 C   0  0  0  0  0  0  0  0  0  0  0  0
    2.4939    1.4756   -0.2304 H   0  0  0  0  0  0  0  0  0  0  0  0
    2.3170    4.0035   -1.3376 H   0  0  0  0  0  0  0  0  0  0  0  0
    4.7647    2.1386   -1.3877 H   0  0  0  0  0  0  0  0  0  0  0  0
    4.8171    3.8951   -1.5806 H   0  0  0  0  0  0  0  0  0  0  0  0
    4.3022    3.1857   -0.0387 H   0  0  0  0  0  0  0  0  0  0  0  0
    3.0235    4.0327   -3.8089 N   0  0  0  0  0  0  0  0  0  0  0  0
    3.0325    4.0997   -5.2516 C   0  0  0  0  0  0  0  0  0  0  0  0
    3.1965    4.8907   -3.2935 H   0  0  0  0  0  0  0  0  0  0  0  0
    4.0515    3.9136   -5.6215 H   0  0  0  0  0  0  0  0  0  0  0  0
    2.3502    3.3386   -5.6581 H   0  0  0  0  0  0  0  0  0  0  0  0
    2.7020    5.0981   -5.5742 H   0  0  0  0  0  0  0  0  0  0  0  0
 23 25  2  0  0  0  0
 22 23  1  0  0  0  0
 24 26  1  0  0  0  0
 22 24  2  0  0  0  0
 25 27  1  0  0  0  0
 26 27  2  0  0  0  0
 21 22  1  0  0  0  0
 27 28  1  0  0  0  0
  1  3  1  0  0  0  0
  1  7  1  0  0  0  0
  1  2  2  0  0  0  0
 39 40  1  0  0  0  0
 40 48  1  0  0  0  0
 40 41  2  0  0  0  0
  8  9  1  0  0  0  0
  9 17  1  0  0  0  0
  9 10  2  0  0  0  0
 18 19  1  0  0  0  0
 19 38  1  0  0  0  0
 19 20  2  0  0  0  0
 39 42  1  0  0  0  0
  8 11  1  0  0  0  0
 48 49  1  0  0  0  0
 18 21  1  0  0  0  0
 38 39  1  0  0  0  0
  7  8  1  0  0  0  0
 17 18  1  0  0  0  0
 23 33  1  0  0  0  0
 24 34  1  0  0  0  0
 25 35  1  0  0  0  0
 26 36  1  0  0  0  0
  3  4  1  0  0  0  0
  3  5  1  0  0  0  0
  3  6  1  0  0  0  0
 42 45  1  0  0  0  0
 42 46  1  0  0  0  0
 42 47  1  0  0  0  0
 11 14  1  0  0  0  0
 11 15  1  0  0  0  0
 11 16  1  0  0  0  0
 49 51  1  0  0  0  0
 49 52  1  0  0  0  0
 49 53  1  0  0  0  0
 21 31  1  0  0  0  0
 21 32  1  0  0  0  0
 39 44  1  0  0  0  0
  8 13  1  0  0  0  0
 18 30  1  0  0  0  0
 48 50  1  0  0  0  0
  7 12  1  0  0  0  0
 38 43  1  0  0  0  0
 17 29  1  0  0  0  0
 28 37  1  0  0  0  0
M  END
$$$$

  -OEChem-05262214473D

 53 53  0     1  0  0  0  0  0999 V2000
   -1.9298    0.2574    3.9747 C   0  0  0  0  0  0  0  0  0  0  0  0
   -0.9825   -0.3573    3.4990 O   0  0  0  0  0  0  0  0  0  0  0  0
   -2.3617   -0.0250    5.3754 C   0  0  0  0  0  0  0  0  0  0  0  0
   -3.1214   -0.8213    5.4288 H   0  0  0  0  0  0  0  0  0  0  0  0
   -1.5305   -0.3726    6.0097 H   0  0  0  0  0  0  0  0  0  0  0  0
   -2.7997    0.8299    5.9150 H   0  0  0  0  0  0  0  0  0  0  0  0
   -2.6795    1.2298    3.3336 N   0  0  0  0  0  0  0  0  0  0  0  0
   -2.4327    1.6559    1.9812 C   0  0  2  0  0  0  0  0  0  0  0  0
   -1.0977    1.0705    1.5400 C   0  0  0  0  0  0  0  0  0  0  0  0
   -0.2256    0.7177    2.3313 O   0  0  0  0  0  0  0  0  0  0  0  0
   -2.4239    3.1726    1.8718 C   0  0  0  0  0  0  0  0  0  0  0  0
   -3.4446    1.6657    3.8454 H   0  0  0  0  0  0  0  0  0  0  0  0
   -3.2368    1.2374    1.3661 H   0  0  0  0  0  0  0  0  0  0  0  0
   -1.6248    3.6099    2.4815 H   0  0  0  0  0  0  0  0  0  0  0  0
   -2.2644    3.4949    0.8375 H   0  0  0  0  0  0  0  0  0  0  0  0
   -3.3741    3.5939    2.2175 H   0  0  0  0  0  0  0  0  0  0  0  0
   -0.9750    1.0274    0.1566 N   0  0  0  0  0  0  0  0  0  0  0  0
    0.2023    0.5266   -0.5070 C   0  0  2  0  0  0  0  0  0  0  0  0
    0.7616    1.6648   -1.3530 C   0  0  0  0  0  0  0  0  0  0  0  0
    0.0525    2.4065   -2.0298 O   0  0  0  0  0  0  0  0  0  0  0  0
   -0.1029   -0.6912   -1.3868 C   0  0  0  0  0  0  0  0  0  0  0  0
   -0.5128   -1.9024   -0.5852 C   0  0  0  0  0  0  0  0  0  0  0  0
    0.4588   -2.7015    0.0175 C   0  0  0  0  0  0  0  0  0  0  0  0
   -1.8633   -2.2230   -0.4475 C   0  0  0  0  0  0  0  0  0  0  0  0
    0.0798   -3.8212    0.7580 C   0  0  0  0  0  0  0  0  0  0  0  0
   -2.2423   -3.3428    0.2929 C   0  0  0  0  0  0  0  0  0  0  0  0
   -1.2707   -4.1419    0.8957 C   0  0  0  0  0  0  0  0  0  0  0  0
   -1.6402   -5.2352    1.6171 O   0  0  0  0  0  0  0  0  0  0  0  0
   -1.7582    1.3241   -0.4207 H   0  0  0  0  0  0  0  0  0  0  0  0
    0.9228    0.2774    0.2808 H   0  0  0  0  0  0  0  0  0  0  0  0
    0.7674   -0.9379   -2.0100 H   0  0  0  0  0  0  0  0  0  0  0  0
   -0.9085   -0.4597   -2.0962 H   0  0  0  0  0  0  0  0  0  0  0  0
    1.5132   -2.4591   -0.0844 H   0  0  0  0  0  0  0  0  0  0  0  0
   -2.6272   -1.6060   -0.9135 H   0  0  0  0  0  0  0  0  0  0  0  0
    0.8414   -4.4400    1.2249 H   0  0  0  0  0  0  0  0  0  0  0  0
   -3.2957   -3.5874    0.3962 H   0  0  0  0  0  0  0  0  0  0  0  0
   -2.6065   -5.3250    1.6207 H   0  0  0  0  0  0  0  0  0  0  0  0
    2.1383    1.7822   -1.2212 N   0  0  0  0  0  0  0  0  0  0  0  0
    2.9169    2.7946   -1.8977 C   0  0  2  0  0  0  0  0  0  0  0  0
    2.5363    2.7733   -3.3722 C   0  0  0  0  0  0  0  0  0  0  0  0
    2.0356    1.7944   -3.9217 O   0  0  0  0  0  0  0  0  0  0  0  0
    4.4083    2.5579   -1.7177 C   0  0  0  0  0  0  0  0  0  0  0  0
    2.6231    1.1234   -0.6189 H   0  0  0  0  0  0  0  0  0  0  0  0
    2.6318    3.7576   -1.4602 H   0  0  0  0  0  0  0  0  0  0  0  0
    4.7127    1.5977   -2.1499 H   0  0  0  0  0  0  0  0  0  0  0  0
    4.9962    3.3416   -2.2067 H   0  0  0  0  0  0  0  0  0  0  0  0
    4.6753    2.5439   -0.6555 H   0  0  0  0  0  0  0  0  0  0  0  0
    2.8615    3.9611   -4.0123 N   0  0  0  0  0  0  0  0  0  0  0  0
    2.6116    4.1833   -5.4174 C   0  0  0  0  0  0  0  0  0  0  0  0
    3.2566    4.7267   -3.4743 H   0  0  0  0  0  0  0  0  0  0  0  0
    3.5033    3.9034   -5.9976 H   0  0  0  0  0  0  0  0  0  0  0  0
    1.7574    3.5696   -5.7393 H   0  0  0  0  0  0  0  0  0  0  0  0
    2.3836    5.2461   -5.5855 H   0  0  0  0  0  0  0  0  0  0  0  0
 23 25  2  0  0  0  0
 22 23  1  0  0  0  0
 24 26  1  0  0  0  0
 22 24  2  0  0  0  0
 25 27  1  0  0  0  0
 26 27  2  0  0  0  0
 21 22  1  0  0  0  0
 27 28  1  0  0  0  0
  1  3  1  0  0  0  0
  1  7  1  0  0  0  0
  1  2  2  0  0  0  0
 39 40  1  0  0  0  0
 40 48  1  0  0  0  0
 40 41  2  0  0  0  0
  8  9  1  0  0  0  0
  9 17  1  0  0  0  0
  9 10  2  0  0  0  0
 18 19  1  0  0  0  0
 19 38  1  0  0  0  0
 19 20  2  0  0  0  0
 39 42  1  0  0  0  0
  8 11  1  0  0  0  0
 48 49  1  0  0  0  0
 18 21  1  0  0  0  0
 38 39  1  0  0  0  0
  7  8  1  0  0  0  0
 17 18  1  0  0  0  0
 23 33  1  0  0  0  0
 24 34  1  0  0  0  0
 25 35  1  0  0  0  0
 26 36  1  0  0  0  0
  3  4  1  0  0  0  0
  3  5  1  0  0  0  0
  3  6  1  0  0  0  0
 42 45  1  0  0  0  0
 42 46  1  0  0  0  0
 42 47  1  0  0  0  0
 11 14  1  0  0  0  0
 11 15  1  0  0  0  0
 11 16  1  0  0  0  0
 49 51  1  0  0  0  0
 49 52  1  0  0  0  0
 49 53  1  0  0  0  0
 21 31  1  0  0  0  0
 21 32  1  0  0  0  0
 39 44  1  0  0  0  0
  8 13  1  0  0  0  0
 18 30  1  0  0  0  0
 48 50  1  0  0  0  0
  7 12  1  0  0  0  0
 38 43  1  0  0  0  0
 17 29  1  0  0  0  0
 28 37  1  0  0  0  0
M  END
$$$$

  -OEChem-05262214473D

 53 53  0     1  0  0  0  0  0999 V2000
   -1.9298    0.2574    3.9747 C   0  0  0  0  0  0  0  0  0  0  0  0
   -0.9825   -0.3573    3.4990 O   0  0  0  0  0  0  0  0  0  0  0  0
   -2.3617   -0.0250    5.3754 C   0  0  0  0  0  0  0  0  0  0  0  0
   -3.1214   -0.8213    5.4288 H   0  0  0  0  0  0  0  0  0  0  0  0
   -1.5305   -0.3726    6.0097 H   0  0  0  0  0  0  0  0  0  0  0  0
   -2.7997    0.8299    5.9150 H   0  0  0  0  0  0  0  0  0  0  0  0
   -2.6795    1.2298    3.3336 N   0  0  0  0  0  0  0  0  0  0  0  0
   -2.4327    1.6559    1.9812 C   0  0  2  0  0  0  0  0  0  0  0  0
   -1.0977    1.0705    1.5400 C   0  0  0  0  0  0  0  0  0  0  0  0
   -0.2256    0.7177    2.3313 O   0  0  0  0  0  0  0  0  0  0  0  0
   -2.4239    3.1726    1.8718 C   0  0  0  0  0  0  0  0  0  0  0  0
   -3.4446    1.6657    3.8454 H   0  0  0  0  0  0  0  0  0  0  0  0
   -3.2368    1.2374    1.3661 H   0  0  0  0  0  0  0  0  0  0  0  0
   -1.6248    3.6099    2.4815 H   0  0  0  0  0  0  0  0  0  0  0  0
   -2.2644    3.4949    0.8375 H   0  0  0  0  0  0  0  0  0  0  0  0
   -3.3741    3.5939    2.2175 H   0  0  0  0  0  0  0  0  0  0  0  0
   -0.9750    1.0274    0.1566 N   0  0  0  0  0  0  0  0  0  0  0  0
    0.2023    0.5266   -0.5070 C   0  0  2  0  0  0  0  0  0  0  0  0
    0.7616    1.6648   -1.3530 C   0  0  0  0  0  0  0  0  0  0  0  0
    0.0608    2.5644   -1.8119 O   0  0  0  0  0  0  0  0  0  0  0  0
   -0.1029   -0.6912   -1.3868 C   0  0  0  0  0  0  0  0  0  0  0  0
   -0.5128   -1.9024   -0.5852 C   0  0  0  0  0  0  0  0  0  0  0  0
    0.4588   -2.7015    0.0175 C   0  0  0  0  0  0  0  0  0  0  0  0
   -1.8633   -2.2230   -0.4475 C   0  0  0  0  0  0  0  0  0  0  0  0
    0.0798   -3.8212    0.7580 C   0  0  0  0  0  0  0  0  0  0  0  0
   -2.2423   -3.3428    0.2929 C   0  0  0  0  0  0  0  0  0  0  0  0
   -1.2707   -4.1419    0.8957 C   0  0  0  0  0  0  0  0  0  0  0  0
   -1.6402   -5.2352    1.6171 O   0  0  0  0  0  0  0  0  0  0  0  0
   -1.7582    1.3241   -0.4207 H   0  0  0  0  0  0  0  0  0  0  0  0
    0.9228    0.2774    0.2808 H   0  0  0  0  0  0  0  0  0  0  0  0
    0.7674   -0.9379   -2.0100 H   0  0  0  0  0  0  0  0  0  0  0  0
   -0.9085   -0.4597   -2.0962 H   0  0  0  0  0  0  0  0  0  0  0  0
    1.5132   -2.4591   -0.0844 H   0  0  0  0  0  0  0  0  0  0  0  0
   -2.6272   -1.6060   -0.9135 H   0  0  0  0  0  0  0  0  0  0  0  0
    0.8414   -4.4400    1.2249 H   0  0  0  0  0  0  0  0  0  0  0  0
   -3.2957   -3.5874    0.3962 H   0  0  0  0  0  0  0  0  0  0  0  0
   -2.6065   -5.3250    1.6207 H   0  0  0  0  0  0  0  0  0  0  0  0
    2.1402    1.5812   -1.4904 N   0  0  0  0  0  0  0  0  0  0  0  0
    2.9247    2.5476   -2.2249 C   0  0  2  0  0  0  0  0  0  0  0  0
    2.2774    2.7385   -3.5902 C   0  0  0  0  0  0  0  0  0  0  0  0
    1.5393    1.9015   -4.1056 O   0  0  0  0  0  0  0  0  0  0  0  0
    4.3694    2.0945   -2.3669 C   0  0  0  0  0  0  0  0  0  0  0  0
    2.6221    0.8015   -1.0526 H   0  0  0  0  0  0  0  0  0  0  0  0
    2.8768    3.4866   -1.6628 H   0  0  0  0  0  0  0  0  0  0  0  0
    4.4374    1.1550   -2.9274 H   0  0  0  0  0  0  0  0  0  0  0  0
    4.9688    2.8408   -2.8987 H   0  0  0  0  0  0  0  0  0  0  0  0
    4.8243    1.9290   -1.3843 H   0  0  0  0  0  0  0  0  0  0  0  0
    2.6554    3.9345   -4.1843 N   0  0  0  0  0  0  0  0  0  0  0  0
    2.1851    4.3402   -5.4882 C   0  0  0  0  0  0  0  0  0  0  0  0
    3.2562    4.5769   -3.6762 H   0  0  0  0  0  0  0  0  0  0  0  0
    2.8996    4.0081   -6.2559 H   0  0  0  0  0  0  0  0  0  0  0  0
    1.2022    3.8856   -5.6812 H   0  0  0  0  0  0  0  0  0  0  0  0
    2.0951    5.4360   -5.5209 H   0  0  0  0  0  0  0  0  0  0  0  0
 23 25  2  0  0  0  0
 22 23  1  0  0  0  0
 24 26  1  0  0  0  0
 22 24  2  0  0  0  0
 25 27  1  0  0  0  0
 26 27  2  0  0  0  0
 21 22  1  0  0  0  0
 27 28  1  0  0  0  0
  1  3  1  0  0  0  0
  1  7  1  0  0  0  0
  1  2  2  0  0  0  0
 39 40  1  0  0  0  0
 40 48  1  0  0  0  0
 40 41  2  0  0  0  0
  8  9  1  0  0  0  0
  9 17  1  0  0  0  0
  9 10  2  0  0  0  0
 18 19  1  0  0  0  0
 19 38  1  0  0  0  0
 19 20  2  0  0  0  0
 39 42  1  0  0  0  0
  8 11  1  0  0  0  0
 48 49  1  0  0  0  0
 18 21  1  0  0  0  0
 38 39  1  0  0  0  0
  7  8  1  0  0  0  0
 17 18  1  0  0  0  0
 23 33  1  0  0  0  0
 24 34  1  0  0  0  0
 25 35  1  0  0  0  0
 26 36  1  0  0  0  0
  3  4  1  0  0  0  0
  3  5  1  0  0  0  0
  3  6  1  0  0  0  0
 42 45  1  0  0  0  0
 42 46  1  0  0  0  0
 42 47  1  0  0  0  0
 11 14  1  0  0  0  0
 11 15  1  0  0  0  0
 11 16  1  0  0  0  0
 49 51  1  0  0  0  0
 49 52  1  0  0  0  0
 49 53  1  0  0  0  0
 21 31  1  0  0  0  0
 21 32  1  0  0  0  0
 39 44  1  0  0  0  0
  8 13  1  0  0  0  0
 18 30  1  0  0  0  0
 48 50  1  0  0  0  0
  7 12  1  0  0  0  0
 38 43  1  0  0  0  0
 17 29  1  0  0  0  0
 28 37  1  0  0  0  0
M  END
$$$$

  -OEChem-05262214473D

 53 53  0     1  0  0  0  0  0999 V2000
   -1.9298    0.2574    3.9747 C   0  0  0  0  0  0  0  0  0  0  0  0
   -0.9825   -0.3573    3.4990 O   0  0  0  0  0  0  0  0  0  0  0  0
   -2.3617   -0.0250    5.3754 C   0  0  0  0  0  0  0  0  0  0  0  0
   -3.1214   -0.8213    5.4288 H   0  0  0  0  0  0  0  0  0  0  0  0
   -1.5305   -0.3726    6.0097 H   0  0  0  0  0  0  0  0  0  0  0  0
   -2.7997    0.8299    5.9150 H   0  0  0  0  0  0  0  0  0  0  0  0
   -2.6795    1.2298    3.3336 N   0  0  0  0  0  0  0  0  0  0  0  0
   -2.4327    1.6559    1.9812 C   0  0  2  0  0  0  0  0  0  0  0  0
   -1.0977    1.0705    1.5400 C   0  0  0  0  0  0  0  0  0  0  0  0
   -0.2256    0.7177    2.3313 O   0  0  0  0  0  0  0  0  0  0  0  0
   -2.4239    3.1726    1.8718 C   0  0  0  0  0  0  0  0  0  0  0  0
   -3.4446    1.6657    3.8454 H   0  0  0  0  0  0  0  0  0  0  0  0
   -3.2368    1.2374    1.3661 H   0  0  0  0  0  0  0  0  0  0  0  0
   -1.6248    3.6099    2.4815 H   0  0  0  0  0  0  0  0  0  0  0  0
   -2.2644    3.4949    0.8375 H   0  0  0  0  0  0  0  0  0  0  0  0
   -3.3741    3.5939    2.2175 H   0  0  0  0  0  0  0  0  0  0  0  0
   -0.9750    1.0274    0.1566 N   0  0  0  0  0  0  0  0  0  0  0  0
    0.2023    0.5266   -0.5070 C   0  0  2  0  0  0  0  0  0  0  0  0
    0.7616    1.6648   -1.3530 C   0  0  0  0  0  0  0  0  0  0  0  0
    0.1336    2.6950   -1.5881 O   0  0  0  0  0  0  0  0  0  0  0  0
   -0.1029   -0.6912   -1.3868 C   0  0  0  0  0  0  0  0  0  0  0  0
   -0.5128   -1.9024   -0.5852 C   0  0  0  0  0  0  0  0  0  0  0  0
    0.4588   -2.7015    0.0175 C   0  0  0  0  0  0  0  0  0  0  0  0
   -1.8633   -2.2230   -0.4475 C   0  0  0  0  0  0  0  0  0  0  0  0
    0.0798   -3.8212    0.7580 C   0  0  0  0  0  0  0  0  0  0  0  0
   -2.2423   -3.3428    0.2929 C   0  0  0  0  0  0  0  0  0  0  0  0
   -1.2707   -4.1419    0.8957 C   0  0  0  0  0  0  0  0  0  0  0  0
   -1.6402   -5.2352    1.6171 O   0  0  0  0  0  0  0  0  0  0  0  0
   -1.7582    1.3241   -0.4207 H   0  0  0  0  0  0  0  0  0  0  0  0
    0.9228    0.2774    0.2808 H   0  0  0  0  0  0  0  0  0  0  0  0
    0.7674   -0.9379   -2.0100 H   0  0  0  0  0  0  0  0  0  0  0  0
   -0.9085   -0.4597   -2.0962 H   0  0  0  0  0  0  0  0  0  0  0  0
    1.5132   -2.4591   -0.0844 H   0  0  0  0  0  0  0  0  0  0  0  0
   -2.6272   -1.6060   -0.9135 H   0  0  0  0  0  0  0  0  0  0  0  0
    0.8414   -4.4400    1.2249 H   0  0  0  0  0  0  0  0  0  0  0  0
   -3.2957   -3.5874    0.3962 H   0  0  0  0  0  0  0  0  0  0  0  0
   -2.6065   -5.3250    1.6207 H   0  0  0  0  0  0  0  0  0  0  0  0
    2.0612    1.4123   -1.7699 N   0  0  0  0  0  0  0  0  0  0  0  0
    2.8335    2.3389   -2.5660 C   0  0  2  0  0  0  0  0  0  0  0  0
    1.9802    2.7628   -3.7541 C   0  0  0  0  0  0  0  0  0  0  0  0
    1.0397    2.0938   -4.1773 O   0  0  0  0  0  0  0  0  0  0  0  0
    4.1399    1.7141   -3.0304 C   0  0  0  0  0  0  0  0  0  0  0  0
    2.4912    0.5319   -1.5019 H   0  0  0  0  0  0  0  0  0  0  0  0
    3.0354    3.2089   -1.9316 H   0  0  0  0  0  0  0  0  0  0  0  0
    3.9578    0.8408   -3.6673 H   0  0  0  0  0  0  0  0  0  0  0  0
    4.7367    2.4266   -3.6093 H   0  0  0  0  0  0  0  0  0  0  0  0
    4.7391    1.3828   -2.1754 H   0  0  0  0  0  0  0  0  0  0  0  0
    2.4193    3.9548   -4.3131 N   0  0  0  0  0  0  0  0  0  0  0  0
    1.7820    4.5597   -5.4594 C   0  0  0  0  0  0  0  0  0  0  0  0
    3.1953    4.4513   -3.8853 H   0  0  0  0  0  0  0  0  0  0  0  0
    2.2816    4.2205   -6.3788 H   0  0  0  0  0  0  0  0  0  0  0  0
    0.7226    4.2650   -5.4878 H   0  0  0  0  0  0  0  0  0  0  0  0
    1.8561    5.6547   -5.3846 H   0  0  0  0  0  0  0  0  0  0  0  0
 23 25  2  0  0  0  0
 22 23  1  0  0  0  0
 24 26  1  0  0  0  0
 22 24  2  0  0  0  0
 25 27  1  0  0  0  0
 26 27  2  0  0  0  0
 21 22  1  0  0  0  0
 27 28  1  0  0  0  0
  1  3  1  0  0  0  0
  1  7  1  0  0  0  0
  1  2  2  0  0  0  0
 39 40  1  0  0  0  0
 40 48  1  0  0  0  0
 40 41  2  0  0  0  0
  8  9  1  0  0  0  0
  9 17  1  0  0  0  0
  9 10  2  0  0  0  0
 18 19  1  0  0  0  0
 19 38  1  0  0  0  0
 19 20  2  0  0  0  0
 39 42  1  0  0  0  0
  8 11  1  0  0  0  0
 48 49  1  0  0  0  0
 18 21  1  0  0  0  0
 38 39  1  0  0  0  0
  7  8  1  0  0  0  0
 17 18  1  0  0  0  0
 23 33  1  0  0  0  0
 24 34  1  0  0  0  0
 25 35  1  0  0  0  0
 26 36  1  0  0  0  0
  3  4  1  0  0  0  0
  3  5  1  0  0  0  0
  3  6  1  0  0  0  0
 42 45  1  0  0  0  0
 42 46  1  0  0  0  0
 42 47  1  0  0  0  0
 11 14  1  0  0  0  0
 11 15  1  0  0  0  0
 11 16  1  0  0  0  0
 49 51  1  0  0  0  0
 49 52  1  0  0  0  0
 49 53  1  0  0  0  0
 21 31  1  0  0  0  0
 21 32  1  0  0  0  0
 39 44  1  0  0  0  0
  8 13  1  0  0  0  0
 18 30  1  0  0  0  0
 48 50  1  0  0  0  0
  7 12  1  0  0  0  0
 38 43  1  0  0  0  0
 17 29  1  0  0  0  0
 28 37  1  0  0  0  0
M  END
$$$$

  -OEChem-05262214473D

 53 53  0     1  0  0  0  0  0999 V2000
   -1.9298    0.2574    3.9747 C   0  0  0  0  0  0  0  0  0  0  0  0
   -0.9825   -0.3573    3.4990 O   0  0  0  0  0  0  0  0  0  0  0  0
   -2.3617   -0.0250    5.3754 C   0  0  0  0  0  0  0  0  0  0  0  0
   -3.1214   -0.8213    5.4288 H   0  0  0  0  0  0  0  0  0  0  0  0
   -1.5305   -0.3726    6.0097 H   0  0  0  0  0  0  0  0  0  0  0  0
   -2.7997    0.8299    5.9150 H   0  0  0  0  0  0  0  0  0  0  0  0
   -2.6795    1.2298    3.3336 N   0  0  0  0  0  0  0  0  0  0  0  0
   -2.4327    1.6559    1.9812 C   0  0  2  0  0  0  0  0  0  0  0  0
   -1.0977    1.0705    1.5400 C   0  0  0  0  0  0  0  0  0  0  0  0
   -0.2256    0.7177    2.3313 O   0  0  0  0  0  0  0  0  0  0  0  0
   -2.4239    3.1726    1.8718 C   0  0  0  0  0  0  0  0  0  0  0  0
   -3.4446    1.6657    3.8454 H   0  0  0  0  0  0  0  0  0  0  0  0
   -3.2368    1.2374    1.3661 H   0  0  0  0  0  0  0  0  0  0  0  0
   -1.6248    3.6099    2.4815 H   0  0  0  0  0  0  0  0  0  0  0  0
   -2.2644    3.4949    0.8375 H   0  0  0  0  0  0  0  0  0  0  0  0
   -3.3741    3.5939    2.2175 H   0  0  0  0  0  0  0  0  0  0  0  0
   -0.9750    1.0274    0.1566 N   0  0  0  0  0  0  0  0  0  0  0  0
    0.2023    0.5266   -0.5070 C   0  0  2  0  0  0  0  0  0  0  0  0
    0.9668    1.7329   -1.0404 C   0  0  0  0  0  0  0  0  0  0  0  0
    0.6020    2.8919   -0.8547 O   0  0  0  0  0  0  0  0  0  0  0  0
   -0.1424   -0.4341   -1.6508 C   0  0  0  0  0  0  0  0  0  0  0  0
   -0.7626   -1.7214   -1.1650 C   0  0  0  0  0  0  0  0  0  0  0  0
    0.0485   -2.7459   -0.6768 C   0  0  0  0  0  0  0  0  0  0  0  0
   -2.1471   -1.8868   -1.2047 C   0  0  0  0  0  0  0  0  0  0  0  0
   -0.5249   -3.9357   -0.2283 C   0  0  0  0  0  0  0  0  0  0  0  0
   -2.7205   -3.0766   -0.7562 C   0  0  0  0  0  0  0  0  0  0  0  0
   -1.9093   -4.1011   -0.2680 C   0  0  0  0  0  0  0  0  0  0  0  0
   -2.4685   -5.2627    0.1685 O   0  0  0  0  0  0  0  0  0  0  0  0
   -1.7582    1.3241   -0.4207 H   0  0  0  0  0  0  0  0  0  0  0  0
    0.8064    0.0298    0.2612 H   0  0  0  0  0  0  0  0  0  0  0  0
    0.7550   -0.6572   -2.2437 H   0  0  0  0  0  0  0  0  0  0  0  0
   -0.8406    0.0403   -2.3530 H   0  0  0  0  0  0  0  0  0  0  0  0
    1.1279   -2.6256   -0.6422 H   0  0  0  0  0  0  0  0  0  0  0  0
   -2.7869   -1.0938   -1.5833 H   0  0  0  0  0  0  0  0  0  0  0  0
    0.1124   -4.7303    0.1506 H   0  0  0  0  0  0  0  0  0  0  0  0
   -3.7993   -3.1995   -0.7900 H   0  0  0  0  0  0  0  0  0  0  0  0
   -3.4341   -5.2260    0.0779 H   0  0  0  0  0  0  0  0  0  0  0  0
    2.1281    1.3605   -1.7031 N   0  0  0  0  0  0  0  0  0  0  0  0
    3.0488    2.3102   -2.2855 C   0  0  2  0  0  0  0  0  0  0  0  0
    2.2459    3.2757   -3.1473 C   0  0  0  0  0  0  0  0  0  0  0  0
    1.1398    3.0022   -3.6087 O   0  0  0  0  0  0  0  0  0  0  0  0
    4.1198    1.6100   -3.1073 C   0  0  0  0  0  0  0  0  0  0  0  0
    2.3417    0.3706   -1.7828 H   0  0  0  0  0  0  0  0  0  0  0  0
    3.5074    2.8566   -1.4543 H   0  0  0  0  0  0  0  0  0  0  0  0
    3.6792    1.0571   -3.9449 H   0  0  0  0  0  0  0  0  0  0  0  0
    4.8330    2.3287   -3.5243 H   0  0  0  0  0  0  0  0  0  0  0  0
    4.6767    0.8943   -2.4929 H   0  0  0  0  0  0  0  0  0  0  0  0
    2.9285    4.4622   -3.3763 N   0  0  0  0  0  0  0  0  0  0  0  0
    2.3826    5.5339   -4.1760 C   0  0  0  0  0  0  0  0  0  0  0  0
    3.8329    4.6108   -2.9386 H   0  0  0  0  0  0  0  0  0  0  0  0
    2.7137    5.4194   -5.2187 H   0  0  0  0  0  0  0  0  0  0  0  0
    1.2839    5.4993   -4.1344 H   0  0  0  0  0  0  0  0  0  0  0  0
    2.7341    6.4996   -3.7837 H   0  0  0  0  0  0  0  0  0  0  0  0
 23 25  2  0  0  0  0
 22 23  1  0  0  0  0
 24 26  1  0  0  0  0
 22 24  2  0  0  0  0
 25 27  1  0  0  0  0
 26 27  2  0  0  0  0
 21 22  1  0  0  0  0
 27 28  1  0  0  0  0
  1  3  1  0  0  0  0
  1  7  1  0  0  0  0
  1  2  2  0  0  0  0
 39 40  1  0  0  0  0
 40 48  1  0  0  0  0
 40 41  2  0  0  0  0
  8  9  1  0  0  0  0
  9 17  1  0  0  0  0
  9 10  2  0  0  0  0
 18 19  1  0  0  0  0
 19 38  1  0  0  0  0
 19 20  2  0  0  0  0
 39 42  1  0  0  0  0
  8 11  1  0  0  0  0
 48 49  1  0  0  0  0
 18 21  1  0  0  0  0
 38 39  1  0  0  0  0
  7  8  1  0  0  0  0
 17 18  1  0  0  0  0
 23 33  1  0  0  0  0
 24 34  1  0  0  0  0
 25 35  1  0  0  0  0
 26 36  1  0  0  0  0
  3  4  1  0  0  0  0
  3  5  1  0  0  0  0
  3  6  1  0  0  0  0
 42 45  1  0  0  0  0
 42 46  1  0  0  0  0
 42 47  1  0  0  0  0
 11 14  1  0  0  0  0
 11 15  1  0  0  0  0
 11 16  1  0  0  0  0
 49 51  1  0  0  0  0
 49 52  1  0  0  0  0
 49 53  1  0  0  0  0
 21 31  1  0  0  0  0
 21 32  1  0  0  0  0
 39 44  1  0  0  0  0
  8 13  1  0  0  0  0
 18 30  1  0  0  0  0
 48 50  1  0  0  0  0
  7 12  1  0  0  0  0
 38 43  1  0  0  0  0
 17 29  1  0  0  0  0
 28 37  1  0  0  0  0
M  END
$$$$

  -OEChem-05262214473D

 53 53  0     1  0  0  0  0  0999 V2000
   -1.9298    0.2574    3.9747 C   0  0  0  0  0  0  0  0  0  0  0  0
   -0.9825   -0.3573    3.4990 O   0  0  0  0  0  0  0  0  0  0  0  0
   -2.3617   -0.0250    5.3754 C   0  0  0  0  0  0  0  0  0  0  0  0
   -3.1214   -0.8213    5.4288 H   0  0  0  0  0  0  0  0  0  0  0  0
   -1.5305   -0.3726    6.0097 H   0  0  0  0  0  0  0  0  0  0  0  0
   -2.7997    0.8299    5.9150 H   0  0  0  0  0  0  0  0  0  0  0  0
   -2.6795    1.2298    3.3336 N   0  0  0  0  0  0  0  0  0  0  0  0
   -2.4327    1.6559    1.9812 C   0  0  2  0  0  0  0  0  0  0  0  0
   -1.0977    1.0705    1.5400 C   0  0  0  0  0  0  0  0  0  0  0  0
   -0.2256    0.7177    2.3313 O   0  0  0  0  0  0  0  0  0  0  0  0
   -2.4239    3.1726    1.8718 C   0  0  0  0  0  0  0  0  0  0  0  0
   -3.4446    1.6657    3.8454 H   0  0  0  0  0  0  0  0  0  0  0  0
   -3.2368    1.2374    1.3661 H   0  0  0  0  0  0  0  0  0  0  0  0
   -1.6248    3.6099    2.4815 H   0  0  0  0  0  0  0  0  0  0  0  0
   -2.2644    3.4949    0.8375 H   0  0  0  0  0  0  0  0  0  0  0  0
   -3.3741    3.5939    2.2175 H   0  0  0  0  0  0  0  0  0  0  0  0
   -0.9750    1.0274    0.1566 N   0  0  0  0  0  0  0  0  0  0  0  0
    0.2023    0.5266   -0.5070 C   0  0  2  0  0  0  0  0  0  0  0  0
    0.9668    1.7329   -1.0404 C   0  0  0  0  0  0  0  0  0  0  0  0
    0.7688    2.8794   -0.6438 O   0  0  0  0  0  0  0  0  0  0  0  0
   -0.1424   -0.4341   -1.6508 C   0  0  0  0  0  0  0  0  0  0  0  0
   -0.7626   -1.7214   -1.1650 C   0  0  0  0  0  0  0  0  0  0  0  0
    0.0485   -2.7459   -0.6768 C   0  0  0  0  0  0  0  0  0  0  0  0
   -2.1471   -1.8868   -1.2047 C   0  0  0  0  0  0  0  0  0  0  0  0
   -0.5249   -3.9357   -0.2283 C   0  0  0  0  0  0  0  0  0  0  0  0
   -2.7205   -3.0766   -0.7562 C   0  0  0  0  0  0  0  0  0  0  0  0
   -1.9093   -4.1011   -0.2680 C   0  0  0  0  0  0  0  0  0  0  0  0
   -2.4685   -5.2627    0.1685 O   0  0  0  0  0  0  0  0  0  0  0  0
   -1.7582    1.3241   -0.4207 H   0  0  0  0  0  0  0  0  0  0  0  0
    0.8064    0.0298    0.2612 H   0  0  0  0  0  0  0  0  0  0  0  0
    0.7550   -0.6572   -2.2437 H   0  0  0  0  0  0  0  0  0  0  0  0
   -0.8406    0.0403   -2.3530 H   0  0  0  0  0  0  0  0  0  0  0  0
    1.1279   -2.6256   -0.6422 H   0  0  0  0  0  0  0  0  0  0  0  0
   -2.7869   -1.0938   -1.5833 H   0  0  0  0  0  0  0  0  0  0  0  0
    0.1124   -4.7303    0.1506 H   0  0  0  0  0  0  0  0  0  0  0  0
   -3.7993   -3.1995   -0.7900 H   0  0  0  0  0  0  0  0  0  0  0  0
   -3.4341   -5.2260    0.0779 H   0  0  0  0  0  0  0  0  0  0  0  0
    1.9280    1.3681   -1.9729 N   0  0  0  0  0  0  0  0  0  0  0  0
    2.8082    2.3159   -2.6176 C   0  0  2  0  0  0  0  0  0  0  0  0
    1.9549    3.4509   -3.1682 C   0  0  0  0  0  0  0  0  0  0  0  0
    0.7568    3.3303   -3.4156 O   0  0  0  0  0  0  0  0  0  0  0  0
    3.6157    1.6565   -3.7248 C   0  0  0  0  0  0  0  0  0  0  0  0
    2.0172    0.3855   -2.2143 H   0  0  0  0  0  0  0  0  0  0  0  0
    3.4773    2.7043   -1.8421 H   0  0  0  0  0  0  0  0  0  0  0  0
    2.9622    1.2612   -4.5111 H   0  0  0  0  0  0  0  0  0  0  0  0
    4.3026    2.3691   -4.1932 H   0  0  0  0  0  0  0  0  0  0  0  0
    4.2060    0.8215   -3.3323 H   0  0  0  0  0  0  0  0  0  0  0  0
    2.6980    4.6016   -3.3914 N   0  0  0  0  0  0  0  0  0  0  0  0
    2.1186    5.8130   -3.9231 C   0  0  0  0  0  0  0  0  0  0  0  0
    3.6819    4.6177   -3.1395 H   0  0  0  0  0  0  0  0  0  0  0  0
    2.2220    5.8196   -5.0182 H   0  0  0  0  0  0  0  0  0  0  0  0
    1.0526    5.8576   -3.6553 H   0  0  0  0  0  0  0  0  0  0  0  0
    2.6396    6.6847   -3.5004 H   0  0  0  0  0  0  0  0  0  0  0  0
 23 25  2  0  0  0  0
 22 23  1  0  0  0  0
 24 26  1  0  0  0  0
 22 24  2  0  0  0  0
 25 27  1  0  0  0  0
 26 27  2  0  0  0  0
 21 22  1  0  0  0  0
 27 28  1  0  0  0  0
  1  3  1  0  0  0  0
  1  7  1  0  0  0  0
  1  2  2  0  0  0  0
 39 40  1  0  0  0  0
 40 48  1  0  0  0  0
 40 41  2  0  0  0  0
  8  9  1  0  0  0  0
  9 17  1  0  0  0  0
  9 10  2  0  0  0  0
 18 19  1  0  0  0  0
 19 38  1  0  0  0  0
 19 20  2  0  0  0  0
 39 42  1  0  0  0  0
  8 11  1  0  0  0  0
 48 49  1  0  0  0  0
 18 21  1  0  0  0  0
 38 39  1  0  0  0  0
  7  8  1  0  0  0  0
 17 18  1  0  0  0  0
 23 33  1  0  0  0  0
 24 34  1  0  0  0  0
 25 35  1  0  0  0  0
 26 36  1  0  0  0  0
  3  4  1  0  0  0  0
  3  5  1  0  0  0  0
  3  6  1  0  0  0  0
 42 45  1  0  0  0  0
 42 46  1  0  0  0  0
 42 47  1  0  0  0  0
 11 14  1  0  0  0  0
 11 15  1  0  0  0  0
 11 16  1  0  0  0  0
 49 51  1  0  0  0  0
 49 52  1  0  0  0  0
 49 53  1  0  0  0  0
 21 31  1  0  0  0  0
 21 32  1  0  0  0  0
 39 44  1  0  0  0  0
  8 13  1  0  0  0  0
 18 30  1  0  0  0  0
 48 50  1  0  0  0  0
  7 12  1  0  0  0  0
 38 43  1  0  0  0  0
 17 29  1  0  0  0  0
 28 37  1  0  0  0  0
M  END
$$$$

  -OEChem-05262214473D

 53 53  0     1  0  0  0  0  0999 V2000
   -1.9298    0.2574    3.9747 C   0  0  0  0  0  0  0  0  0  0  0  0
   -0.9825   -0.3573    3.4990 O   0  0  0  0  0  0  0  0  0  0  0  0
   -2.3617   -0.0250    5.3754 C   0  0  0  0  0  0  0  0  0  0  0  0
   -3.1214   -0.8213    5.4288 H   0  0  0  0  0  0  0  0  0  0  0  0
   -1.5305   -0.3726    6.0097 H   0  0  0  0  0  0  0  0  0  0  0  0
   -2.7997    0.8299    5.9150 H   0  0  0  0  0  0  0  0  0  0  0  0
   -2.6795    1.2298    3.3336 N   0  0  0  0  0  0  0  0  0  0  0  0
   -2.4327    1.6559    1.9812 C   0  0  2  0  0  0  0  0  0  0  0  0
   -1.0977    1.0705    1.5400 C   0  0  0  0  0  0  0  0  0  0  0  0
   -0.2256    0.7177    2.3313 O   0  0  0  0  0  0  0  0  0  0  0  0
   -2.4239    3.1726    1.8718 C   0  0  0  0  0  0  0  0  0  0  0  0
   -3.4446    1.6657    3.8454 H   0  0  0  0  0  0  0  0  0  0  0  0
   -3.2368    1.2374    1.3661 H   0  0  0  0  0  0  0  0  0  0  0  0
   -1.6248    3.6099    2.4815 H   0  0  0  0  0  0  0  0  0  0  0  0
   -2.2644    3.4949    0.8375 H   0  0  0  0  0  0  0  0  0  0  0  0
   -3.3741    3.5939    2.2175 H   0  0  0  0  0  0  0  0  0  0  0  0
   -0.9750    1.0274    0.1566 N   0  0  0  0  0  0  0  0  0  0  0  0
    0.2023    0.5266   -0.5070 C   0  0  2  0  0  0  0  0  0  0  0  0
    0.9668    1.7329   -1.0404 C   0  0  0  0  0  0  0  0  0  0  0  0
    0.9720    2.8248   -0.4759 O   0  0  0  0  0  0  0  0  0  0  0  0
   -0.1424   -0.4341   -1.6508 C   0  0  0  0  0  0  0  0  0  0  0  0
   -0.7626   -1.7214   -1.1650 C   0  0  0  0  0  0  0  0  0  0  0  0
    0.0485   -2.7459   -0.6768 C   0  0  0  0  0  0  0  0  0  0  0  0
   -2.1471   -1.8868   -1.2047 C   0  0  0  0  0  0  0  0  0  0  0  0
   -0.5249   -3.9357   -0.2283 C   0  0  0  0  0  0  0  0  0  0  0  0
   -2.7205   -3.0766   -0.7562 C   0  0  0  0  0  0  0  0  0  0  0  0
   -1.9093   -4.1011   -0.2680 C   0  0  0  0  0  0  0  0  0  0  0  0
   -2.4685   -5.2627    0.1685 O   0  0  0  0  0  0  0  0  0  0  0  0
   -1.7582    1.3241   -0.4207 H   0  0  0  0  0  0  0  0  0  0  0  0
    0.8064    0.0298    0.2612 H   0  0  0  0  0  0  0  0  0  0  0  0
    0.7550   -0.6572   -2.2437 H   0  0  0  0  0  0  0  0  0  0  0  0
   -0.8406    0.0403   -2.3530 H   0  0  0  0  0  0  0  0  0  0  0  0
    1.1279   -2.6256   -0.6422 H   0  0  0  0  0  0  0  0  0  0  0  0
   -2.7869   -1.0938   -1.5833 H   0  0  0  0  0  0  0  0  0  0  0  0
    0.1124   -4.7303    0.1506 H   0  0  0  0  0  0  0  0  0  0  0  0
   -3.7993   -3.1995   -0.7900 H   0  0  0  0  0  0  0  0  0  0  0  0
   -3.4341   -5.2260    0.0779 H   0  0  0  0  0  0  0  0  0  0  0  0
    1.6801    1.4285   -2.1915 N   0  0  0  0  0  0  0  0  0  0  0  0
    2.5083    2.3862   -2.8884 C   0  0  2  0  0  0  0  0  0  0  0  0
    1.6854    3.6492   -3.1060 C   0  0  0  0  0  0  0  0  0  0  0  0
    0.4562    3.6568   -3.1080 O   0  0  0  0  0  0  0  0  0  0  0  0
    3.0065    1.8272   -4.2120 C   0  0  0  0  0  0  0  0  0  0  0  0
    1.6168    0.4852   -2.5628 H   0  0  0  0  0  0  0  0  0  0  0  0
    3.3550    2.6102   -2.2303 H   0  0  0  0  0  0  0  0  0  0  0  0
    2.1722    1.5968   -4.8846 H   0  0  0  0  0  0  0  0  0  0  0  0
    3.6569    2.5431   -4.7254 H   0  0  0  0  0  0  0  0  0  0  0  0
    3.5729    0.9027   -4.0562 H   0  0  0  0  0  0  0  0  0  0  0  0
    2.4850    4.7590   -3.3407 N   0  0  0  0  0  0  0  0  0  0  0  0
    1.9407    6.0737   -3.5885 C   0  0  0  0  0  0  0  0  0  0  0  0
    3.4956    4.6641   -3.3017 H   0  0  0  0  0  0  0  0  0  0  0  0
    1.8245    6.2247   -4.6718 H   0  0  0  0  0  0  0  0  0  0  0  0
    0.9598    6.1626   -3.0987 H   0  0  0  0  0  0  0  0  0  0  0  0
    2.6232    6.8353   -3.1833 H   0  0  0  0  0  0  0  0  0  0  0  0
 23 25  2  0  0  0  0
 22 23  1  0  0  0  0
 24 26  1  0  0  0  0
 22 24  2  0  0  0  0
 25 27  1  0  0  0  0
 26 27  2  0  0  0  0
 21 22  1  0  0  0  0
 27 28  1  0  0  0  0
  1  3  1  0  0  0  0
  1  7  1  0  0  0  0
  1  2  2  0  0  0  0
 39 40  1  0  0  0  0
 40 48  1  0  0  0  0
 40 41  2  0  0  0  0
  8  9  1  0  0  0  0
  9 17  1  0  0  0  0
  9 10  2  0  0  0  0
 18 19  1  0  0  0  0
 19 38  1  0  0  0  0
 19 20  2  0  0  0  0
 39 42  1  0  0  0  0
  8 11  1  0  0  0  0
 48 49  1  0  0  0  0
 18 21  1  0  0  0  0
 38 39  1  0  0  0  0
  7  8  1  0  0  0  0
 17 18  1  0  0  0  0
 23 33  1  0  0  0  0
 24 34  1  0  0  0  0
 25 35  1  0  0  0  0
 26 36  1  0  0  0  0
  3  4  1  0  0  0  0
  3  5  1  0  0  0  0
  3  6  1  0  0  0  0
 42 45  1  0  0  0  0
 42 46  1  0  0  0  0
 42 47  1  0  0  0  0
 11 14  1  0  0  0  0
 11 15  1  0  0  0  0
 11 16  1  0  0  0  0
 49 51  1  0  0  0  0
 49 52  1  0  0  0  0
 49 53  1  0  0  0  0
 21 31  1  0  0  0  0
 21 32  1  0  0  0  0
 39 44  1  0  0  0  0
  8 13  1  0  0  0  0
 18 30  1  0  0  0  0
 48 50  1  0  0  0  0
  7 12  1  0  0  0  0
 38 43  1  0  0  0  0
 17 29  1  0  0  0  0
 28 37  1  0  0  0  0
M  END
$$$$

  -OEChem-05262214473D

 53 53  0     1  0  0  0  0  0999 V2000
   -1.9298    0.2574    3.9747 C   0  0  0  0  0  0  0  0  0  0  0  0
   -0.9825   -0.3573    3.4990 O   0  0  0  0  0  0  0  0  0  0  0  0
   -2.3617   -0.0250    5.3754 C   0  0  0  0  0  0  0  0  0  0  0  0
   -3.1214   -0.8213    5.4288 H   0  0  0  0  0  0  0  0  0  0  0  0
   -1.5305   -0.3726    6.0097 H   0  0  0  0  0  0  0  0  0  0  0  0
   -2.7997    0.8299    5.9150 H   0  0  0  0  0  0  0  0  0  0  0  0
   -2.6795    1.2298    3.3336 N   0  0  0  0  0  0  0  0  0  0  0  0
   -2.4327    1.6559    1.9812 C   0  0  2  0  0  0  0  0  0  0  0  0
   -1.0977    1.0705    1.5400 C   0  0  0  0  0  0  0  0  0  0  0  0
   -0.2256    0.7177    2.3313 O   0  0  0  0  0  0  0  0  0  0  0  0
   -2.4239    3.1726    1.8718 C   0  0  0  0  0  0  0  0  0  0  0  0
   -3.4446    1.6657    3.8454 H   0  0  0  0  0  0  0  0  0  0  0  0
   -3.2368    1.2374    1.3661 H   0  0  0  0  0  0  0  0  0  0  0  0
   -1.6248    3.6099    2.4815 H   0  0  0  0  0  0  0  0  0  0  0  0
   -2.2644    3.4949    0.8375 H   0  0  0  0  0  0  0  0  0  0  0  0
   -3.3741    3.5939    2.2175 H   0  0  0  0  0  0  0  0  0  0  0  0
   -0.9750    1.0274    0.1566 N   0  0  0  0  0  0  0  0  0  0  0  0
    0.2023    0.5266   -0.5070 C   0  0  2  0  0  0  0  0  0  0  0  0
    0.9668    1.7329   -1.0404 C   0  0  0  0  0  0  0  0  0  0  0  0
    1.1977    2.7319   -0.3624 O   0  0  0  0  0  0  0  0  0  0  0  0
   -0.1424   -0.4341   -1.6508 C   0  0  0  0  0  0  0  0  0  0  0  0
   -0.7626   -1.7214   -1.1650 C   0  0  0  0  0  0  0  0  0  0  0  0
    0.0485   -2.7459   -0.6768 C   0  0  0  0  0  0  0  0  0  0  0  0
   -2.1471   -1.8868   -1.2047 C   0  0  0  0  0  0  0  0  0  0  0  0
   -0.5249   -3.9357   -0.2283 C   0  0  0  0  0  0  0  0  0  0  0  0
   -2.7205   -3.0766   -0.7562 C   0  0  0  0  0  0  0  0  0  0  0  0
   -1.9093   -4.1011   -0.2680 C   0  0  0  0  0  0  0  0  0  0  0  0
   -2.4685   -5.2627    0.1685 O   0  0  0  0  0  0  0  0  0  0  0  0
   -1.7582    1.3241   -0.4207 H   0  0  0  0  0  0  0  0  0  0  0  0
    0.8064    0.0298    0.2612 H   0  0  0  0  0  0  0  0  0  0  0  0
    0.7550   -0.6572   -2.2437 H   0  0  0  0  0  0  0  0  0  0  0  0
   -0.8406    0.0403   -2.3530 H   0  0  0  0  0  0  0  0  0  0  0  0
    1.1279   -2.6256   -0.6422 H   0  0  0  0  0  0  0  0  0  0  0  0
   -2.7869   -1.0938   -1.5833 H   0  0  0  0  0  0  0  0  0  0  0  0
    0.1124   -4.7303    0.1506 H   0  0  0  0  0  0  0  0  0  0  0  0
   -3.7993   -3.1995   -0.7900 H   0  0  0  0  0  0  0  0  0  0  0  0
   -3.4341   -5.2260    0.0779 H   0  0  0  0  0  0  0  0  0  0  0  0
    1.4014    1.5378   -2.3440 N   0  0  0  0  0  0  0  0  0  0  0  0
    2.1696    2.5165   -3.0794 C   0  0  2  0  0  0  0  0  0  0  0  0
    1.4558    3.8570   -2.9650 C   0  0  0  0  0  0  0  0  0  0  0  0
    0.2584    3.9595   -2.7070 O   0  0  0  0  0  0  0  0  0  0  0  0
    2.3337    2.1106   -4.5357 C   0  0  0  0  0  0  0  0  0  0  0  0
    1.1677    0.6630   -2.8045 H   0  0  0  0  0  0  0  0  0  0  0  0
    3.1488    2.5807   -2.5925 H   0  0  0  0  0  0  0  0  0  0  0  0
    1.3630    2.0410   -5.0401 H   0  0  0  0  0  0  0  0  0  0  0  0
    2.9400    2.8387   -5.0847 H   0  0  0  0  0  0  0  0  0  0  0  0
    2.8204    1.1325   -4.6152 H   0  0  0  0  0  0  0  0  0  0  0  0
    2.3039    4.9238   -3.2276 N   0  0  0  0  0  0  0  0  0  0  0  0
    1.8610    6.2982   -3.1950 C   0  0  0  0  0  0  0  0  0  0  0  0
    3.2865    4.7468   -3.4142 H   0  0  0  0  0  0  0  0  0  0  0  0
    1.5480    6.6071   -4.2033 H   0  0  0  0  0  0  0  0  0  0  0  0
    1.0117    6.3933   -2.5024 H   0  0  0  0  0  0  0  0  0  0  0  0
    2.6859    6.9411   -2.8542 H   0  0  0  0  0  0  0  0  0  0  0  0
 23 25  2  0  0  0  0
 22 23  1  0  0  0  0
 24 26  1  0  0  0  0
 22 24  2  0  0  0  0
 25 27  1  0  0  0  0
 26 27  2  0  0  0  0
 21 22  1  0  0  0  0
 27 28  1  0  0  0  0
  1  3  1  0  0  0  0
  1  7  1  0  0  0  0
  1  2  2  0  0  0  0
 39 40  1  0  0  0  0
 40 48  1  0  0  0  0
 40 41  2  0  0  0  0
  8  9  1  0  0  0  0
  9 17  1  0  0  0  0
  9 10  2  0  0  0  0
 18 19  1  0  0  0  0
 19 38  1  0  0  0  0
 19 20  2  0  0  0  0
 39 42  1  0  0  0  0
  8 11  1  0  0  0  0
 48 49  1  0  0  0  0
 18 21  1  0  0  0  0
 38 39  1  0  0  0  0
  7  8  1  0  0  0  0
 17 18  1  0  0  0  0
 23 33  1  0  0  0  0
 24 34  1  0  0  0  0
 25 35  1  0  0  0  0
 26 36  1  0  0  0  0
  3  4  1  0  0  0  0
  3  5  1  0  0  0  0
  3  6  1  0  0  0  0
 42 45  1  0  0  0  0
 42 46  1  0  0  0  0
 42 47  1  0  0  0  0
 11 14  1  0  0  0  0
 11 15  1  0  0  0  0
 11 16  1  0  0  0  0
 49 51  1  0  0  0  0
 49 52  1  0  0  0  0
 49 53  1  0  0  0  0
 21 31  1  0  0  0  0
 21 32  1  0  0  0  0
 39 44  1  0  0  0  0
  8 13  1  0  0  0  0
 18 30  1  0  0  0  0
 48 50  1  0  0  0  0
  7 12  1  0  0  0  0
 38 43  1  0  0  0  0
 17 29  1  0  0  0  0
 28 37  1  0  0  0  0
M  END
$$$$

  -OEChem-05262214473D

 53 53  0     1  0  0  0  0  0999 V2000
   -1.9298    0.2574    3.9747 C   0  0  0  0  0  0  0  0  0  0  0  0
   -0.9825   -0.3573    3.4990 O   0  0  0  0  0  0  0  0  0  0  0  0
   -2.3617   -0.0250    5.3754 C   0  0  0  0  0  0  0  0  0  0  0  0
   -3.1214   -0.8213    5.4288 H   0  0  0  0  0  0  0  0  0  0  0  0
   -1.5305   -0.3726    6.0097 H   0  0  0  0  0  0  0  0  0  0  0  0
   -2.7997    0.8299    5.9150 H   0  0  0  0  0  0  0  0  0  0  0  0
   -2.6795    1.2298    3.3336 N   0  0  0  0  0  0  0  0  0  0  0  0
   -2.4327    1.6559    1.9812 C   0  0  2  0  0  0  0  0  0  0  0  0
   -1.0977    1.0705    1.5400 C   0  0  0  0  0  0  0  0  0  0  0  0
   -0.2256    0.7177    2.3313 O   0  0  0  0  0  0  0  0  0  0  0  0
   -2.4239    3.1726    1.8718 C   0  0  0  0  0  0  0  0  0  0  0  0
   -3.4446    1.6657    3.8454 H   0  0  0  0  0  0  0  0  0  0  0  0
   -3.2368    1.2374    1.3661 H   0  0  0  0  0  0  0  0  0  0  0  0
   -1.6248    3.6099    2.4815 H   0  0  0  0  0  0  0  0  0  0  0  0
   -2.2644    3.4949    0.8375 H   0  0  0  0  0  0  0  0  0  0  0  0
   -3.3741    3.5939    2.2175 H   0  0  0  0  0  0  0  0  0  0  0  0
   -0.9750    1.0274    0.1566 N   0  0  0  0  0  0  0  0  0  0  0  0
    0.2023    0.5266   -0.5070 C   0  0  2  0  0  0  0  0  0  0  0  0
    0.9668    1.7329   -1.0404 C   0  0  0  0  0  0  0  0  0  0  0  0
    1.4306    2.6070   -0.3111 O   0  0  0  0  0  0  0  0  0  0  0  0
   -0.1424   -0.4341   -1.6508 C   0  0  0  0  0  0  0  0  0  0  0  0
   -0.7626   -1.7214   -1.1650 C   0  0  0  0  0  0  0  0  0  0  0  0
    0.0485   -2.7459   -0.6768 C   0  0  0  0  0  0  0  0  0  0  0  0
   -2.1471   -1.8868   -1.2047 C   0  0  0  0  0  0  0  0  0  0  0  0
   -0.5249   -3.9357   -0.2283 C   0  0  0  0  0  0  0  0  0  0  0  0
   -2.7205   -3.0766   -0.7562 C   0  0  0  0  0  0  0  0  0  0  0  0
   -1.9093   -4.1011   -0.2680 C   0  0  0  0  0  0  0  0  0  0  0  0
   -2.4685   -5.2627    0.1685 O   0  0  0  0  0  0  0  0  0  0  0  0
   -1.7582    1.3241   -0.4207 H   0  0  0  0  0  0  0  0  0  0  0  0
    0.8064    0.0298    0.2612 H   0  0  0  0  0  0  0  0  0  0  0  0
    0.7550   -0.6572   -2.2437 H   0  0  0  0  0  0  0  0  0  0  0  0
   -0.8406    0.0403   -2.3530 H   0  0  0  0  0  0  0  0  0  0  0  0
    1.1279   -2.6256   -0.6422 H   0  0  0  0  0  0  0  0  0  0  0  0
   -2.7869   -1.0938   -1.5833 H   0  0  0  0  0  0  0  0  0  0  0  0
    0.1124   -4.7303    0.1506 H   0  0  0  0  0  0  0  0  0  0  0  0
   -3.7993   -3.1995   -0.7900 H   0  0  0  0  0  0  0  0  0  0  0  0
   -3.4341   -5.2260    0.0779 H   0  0  0  0  0  0  0  0  0  0  0  0
    1.1108    1.6883   -2.4201 N   0  0  0  0  0  0  0  0  0  0  0  0
    1.8150    2.6978   -3.1776 C   0  0  2  0  0  0  0  0  0  0  0  0
    1.2818    4.0603   -2.7549 C   0  0  0  0  0  0  0  0  0  0  0  0
    0.1768    4.2178   -2.2398 O   0  0  0  0  0  0  0  0  0  0  0  0
    1.6432    2.4872   -4.6738 C   0  0  0  0  0  0  0  0  0  0  0  0
    0.7005    0.9068   -2.9228 H   0  0  0  0  0  0  0  0  0  0  0  0
    2.8728    2.6180   -2.9039 H   0  0  0  0  0  0  0  0  0  0  0  0
    0.5898    2.5634   -4.9669 H   0  0  0  0  0  0  0  0  0  0  0  0
    2.2006    3.2357   -5.2465 H   0  0  0  0  0  0  0  0  0  0  0  0
    1.9999    1.4951   -4.9713 H   0  0  0  0  0  0  0  0  0  0  0  0
    2.1670    5.0847   -3.0599 N   0  0  0  0  0  0  0  0  0  0  0  0
    1.8849    6.4711   -2.7695 C   0  0  0  0  0  0  0  0  0  0  0  0
    3.0690    4.8603   -3.4694 H   0  0  0  0  0  0  0  0  0  0  0  0
    1.4116    6.9406   -3.6445 H   0  0  0  0  0  0  0  0  0  0  0  0
    1.2049    6.5340   -1.9072 H   0  0  0  0  0  0  0  0  0  0  0  0
    2.8234    6.9949   -2.5353 H   0  0  0  0  0  0  0  0  0  0  0  0
 23 25  2  0  0  0  0
 22 23  1  0  0  0  0
 24 26  1  0  0  0  0
 22 24  2  0  0  0  0
 25 27  1  0  0  0  0
 26 27  2  0  0  0  0
 21 22  1  0  0  0  0
 27 28  1  0  0  0  0
  1  3  1  0  0  0  0
  1  7  1  0  0  0  0
  1  2  2  0  0  0  0
 39 40  1  0  0  0  0
 40 48  1  0  0  0  0
 40 41  2  0  0  0  0
  8  9  1  0  0  0  0
  9 17  1  0  0  0  0
  9 10  2  0  0  0  0
 18 19  1  0  0  0  0
 19 38  1  0  0  0  0
 19 20  2  0  0  0  0
 39 42  1  0  0  0  0
  8 11  1  0  0  0  0
 48 49  1  0  0  0  0
 18 21  1  0  0  0  0
 38 39  1  0  0  0  0
  7  8  1  0  0  0  0
 17 18  1  0  0  0  0
 23 33  1  0  0  0  0
 24 34  1  0  0  0  0
 25 35  1  0  0  0  0
 26 36  1  0  0  0  0
  3  4  1  0  0  0  0
  3  5  1  0  0  0  0
  3  6  1  0  0  0  0
 42 45  1  0  0  0  0
 42 46  1  0  0  0  0
 42 47  1  0  0  0  0
 11 14  1  0  0  0  0
 11 15  1  0  0  0  0
 11 16  1  0  0  0  0
 49 51  1  0  0  0  0
 49 52  1  0  0  0  0
 49 53  1  0  0  0  0
 21 31  1  0  0  0  0
 21 32  1  0  0  0  0
 39 44  1  0  0  0  0
  8 13  1  0  0  0  0
 18 30  1  0  0  0  0
 48 50  1  0  0  0  0
  7 12  1  0  0  0  0
 38 43  1  0  0  0  0
 17 29  1  0  0  0  0
 28 37  1  0  0  0  0
M  END
$$$$

  -OEChem-05262214473D

 53 53  0     1  0  0  0  0  0999 V2000
   -1.9298    0.2574    3.9747 C   0  0  0  0  0  0  0  0  0  0  0  0
   -0.9825   -0.3573    3.4990 O   0  0  0  0  0  0  0  0  0  0  0  0
   -2.3617   -0.0250    5.3754 C   0  0  0  0  0  0  0  0  0  0  0  0
   -3.1214   -0.8213    5.4288 H   0  0  0  0  0  0  0  0  0  0  0  0
   -1.5305   -0.3726    6.0097 H   0  0  0  0  0  0  0  0  0  0  0  0
   -2.7997    0.8299    5.9150 H   0  0  0  0  0  0  0  0  0  0  0  0
   -2.6795    1.2298    3.3336 N   0  0  0  0  0  0  0  0  0  0  0  0
   -2.4327    1.6559    1.9812 C   0  0  2  0  0  0  0  0  0  0  0  0
   -1.0977    1.0705    1.5400 C   0  0  0  0  0  0  0  0  0  0  0  0
   -0.2256    0.7177    2.3313 O   0  0  0  0  0  0  0  0  0  0  0  0
   -2.4239    3.1726    1.8718 C   0  0  0  0  0  0  0  0  0  0  0  0
   -3.4446    1.6657    3.8454 H   0  0  0  0  0  0  0  0  0  0  0  0
   -3.2368    1.2374    1.3661 H   0  0  0  0  0  0  0  0  0  0  0  0
   -1.6248    3.6099    2.4815 H   0  0  0  0  0  0  0  0  0  0  0  0
   -2.2644    3.4949    0.8375 H   0  0  0  0  0  0  0  0  0  0  0  0
   -3.3741    3.5939    2.2175 H   0  0  0  0  0  0  0  0  0  0  0  0
   -0.9750    1.0274    0.1566 N   0  0  0  0  0  0  0  0  0  0  0  0
    0.2023    0.5266   -0.5070 C   0  0  2  0  0  0  0  0  0  0  0  0
    0.9668    1.7329   -1.0404 C   0  0  0  0  0  0  0  0  0  0  0  0
    1.6547    2.4586   -0.3255 O   0  0  0  0  0  0  0  0  0  0  0  0
   -0.1424   -0.4341   -1.6508 C   0  0  0  0  0  0  0  0  0  0  0  0
   -0.7626   -1.7214   -1.1650 C   0  0  0  0  0  0  0  0  0  0  0  0
    0.0485   -2.7459   -0.6768 C   0  0  0  0  0  0  0  0  0  0  0  0
   -2.1471   -1.8868   -1.2047 C   0  0  0  0  0  0  0  0  0  0  0  0
   -0.5249   -3.9357   -0.2283 C   0  0  0  0  0  0  0  0  0  0  0  0
   -2.7205   -3.0766   -0.7562 C   0  0  0  0  0  0  0  0  0  0  0  0
   -1.9093   -4.1011   -0.2680 C   0  0  0  0  0  0  0  0  0  0  0  0
   -2.4685   -5.2627    0.1685 O   0  0  0  0  0  0  0  0  0  0  0  0
   -1.7582    1.3241   -0.4207 H   0  0  0  0  0  0  0  0  0  0  0  0
    0.8064    0.0298    0.2612 H   0  0  0  0  0  0  0  0  0  0  0  0
    0.7550   -0.6572   -2.2437 H   0  0  0  0  0  0  0  0  0  0  0  0
   -0.8406    0.0403   -2.3530 H   0  0  0  0  0  0  0  0  0  0  0  0
    1.1279   -2.6256   -0.6422 H   0  0  0  0  0  0  0  0  0  0  0  0
   -2.7869   -1.0938   -1.5833 H   0  0  0  0  0  0  0  0  0  0  0  0
    0.1124   -4.7303    0.1506 H   0  0  0  0  0  0  0  0  0  0  0  0
   -3.7993   -3.1995   -0.7900 H   0  0  0  0  0  0  0  0  0  0  0  0
   -3.4341   -5.2260    0.0779 H   0  0  0  0  0  0  0  0  0  0  0  0
    0.8282    1.8699   -2.4146 N   0  0  0  0  0  0  0  0  0  0  0  0
    1.4689    2.9177   -3.1763 C   0  0  2  0  0  0  0  0  0  0  0  0
    1.1751    4.2451   -2.4898 C   0  0  0  0  0  0  0  0  0  0  0  0
    0.2171    4.4140   -1.7383 O   0  0  0  0  0  0  0  0  0  0  0  0
    0.9821    2.9314   -4.6169 C   0  0  0  0  0  0  0  0  0  0  0  0
    0.2471    1.2000   -2.9098 H   0  0  0  0  0  0  0  0  0  0  0  0
    2.5458    2.7194   -3.1433 H   0  0  0  0  0  0  0  0  0  0  0  0
   -0.0948    3.1286   -4.6701 H   0  0  0  0  0  0  0  0  0  0  0  0
    1.4893    3.7072   -5.1999 H   0  0  0  0  0  0  0  0  0  0  0  0
    1.1673    1.9659   -5.1001 H   0  0  0  0  0  0  0  0  0  0  0  0
    2.0837    5.2308   -2.8490 N   0  0  0  0  0  0  0  0  0  0  0  0
    2.0108    6.5808   -2.3410 C   0  0  0  0  0  0  0  0  0  0  0  0
    2.8580    4.9968   -3.4633 H   0  0  0  0  0  0  0  0  0  0  0  0
    1.4245    7.2026   -3.0335 H   0  0  0  0  0  0  0  0  0  0  0  0
    1.5261    6.5752   -1.3535 H   0  0  0  0  0  0  0  0  0  0  0  0
    3.0264    6.9930   -2.2485 H   0  0  0  0  0  0  0  0  0  0  0  0
 23 25  2  0  0  0  0
 22 23  1  0  0  0  0
 24 26  1  0  0  0  0
 22 24  2  0  0  0  0
 25 27  1  0  0  0  0
 26 27  2  0  0  0  0
 21 22  1  0  0  0  0
 27 28  1  0  0  0  0
  1  3  1  0  0  0  0
  1  7  1  0  0  0  0
  1  2  2  0  0  0  0
 39 40  1  0  0  0  0
 40 48  1  0  0  0  0
 40 41  2  0  0  0  0
  8  9  1  0  0  0  0
  9 17  1  0  0  0  0
  9 10  2  0  0  0  0
 18 19  1  0  0  0  0
 19 38  1  0  0  0  0
 19 20  2  0  0  0  0
 39 42  1  0  0  0  0
  8 11  1  0  0  0  0
 48 49  1  0  0  0  0
 18 21  1  0  0  0  0
 38 39  1  0  0  0  0
  7  8  1  0  0  0  0
 17 18  1  0  0  0  0
 23 33  1  0  0  0  0
 24 34  1  0  0  0  0
 25 35  1  0  0  0  0
 26 36  1  0  0  0  0
  3  4  1  0  0  0  0
  3  5  1  0  0  0  0
  3  6  1  0  0  0  0
 42 45  1  0  0  0  0
 42 46  1  0  0  0  0
 42 47  1  0  0  0  0
 11 14  1  0  0  0  0
 11 15  1  0  0  0  0
 11 16  1  0  0  0  0
 49 51  1  0  0  0  0
 49 52  1  0  0  0  0
 49 53  1  0  0  0  0
 21 31  1  0  0  0  0
 21 32  1  0  0  0  0
 39 44  1  0  0  0  0
  8 13  1  0  0  0  0
 18 30  1  0  0  0  0
 48 50  1  0  0  0  0
  7 12  1  0  0  0  0
 38 43  1  0  0  0  0
 17 29  1  0  0  0  0
 28 37  1  0  0  0  0
M  END
$$$$

  -OEChem-05262214473D

 53 53  0     1  0  0  0  0  0999 V2000
   -1.9298    0.2574    3.9747 C   0  0  0  0  0  0  0  0  0  0  0  0
   -0.9825   -0.3573    3.4990 O   0  0  0  0  0  0  0  0  0  0  0  0
   -2.3617   -0.0250    5.3754 C   0  0  0  0  0  0  0  0  0  0  0  0
   -3.1214   -0.8213    5.4288 H   0  0  0  0  0  0  0  0  0  0  0  0
   -1.5305   -0.3726    6.0097 H   0  0  0  0  0  0  0  0  0  0  0  0
   -2.7997    0.8299    5.9150 H   0  0  0  0  0  0  0  0  0  0  0  0
   -2.6795    1.2298    3.3336 N   0  0  0  0  0  0  0  0  0  0  0  0
   -2.4327    1.6559    1.9812 C   0  0  2  0  0  0  0  0  0  0  0  0
   -1.0977    1.0705    1.5400 C   0  0  0  0  0  0  0  0  0  0  0  0
   -0.2256    0.7177    2.3313 O   0  0  0  0  0  0  0  0  0  0  0  0
   -2.4239    3.1726    1.8718 C   0  0  0  0  0  0  0  0  0  0  0  0
   -3.4446    1.6657    3.8454 H   0  0  0  0  0  0  0  0  0  0  0  0
   -3.2368    1.2374    1.3661 H   0  0  0  0  0  0  0  0  0  0  0  0
   -1.6248    3.6099    2.4815 H   0  0  0  0  0  0  0  0  0  0  0  0
   -2.2644    3.4949    0.8375 H   0  0  0  0  0  0  0  0  0  0  0  0
   -3.3741    3.5939    2.2175 H   0  0  0  0  0  0  0  0  0  0  0  0
   -0.9750    1.0274    0.1566 N   0  0  0  0  0  0  0  0  0  0  0  0
    0.2023    0.5266   -0.5070 C   0  0  2  0  0  0  0  0  0  0  0  0
    0.9668    1.7329   -1.0404 C   0  0  0  0  0  0  0  0  0  0  0  0
    1.8548    2.2969   -0.4045 O   0  0  0  0  0  0  0  0  0  0  0  0
   -0.1424   -0.4341   -1.6508 C   0  0  0  0  0  0  0  0  0  0  0  0
   -0.7626   -1.7214   -1.1650 C   0  0  0  0  0  0  0  0  0  0  0  0
    0.0485   -2.7459   -0.6768 C   0  0  0  0  0  0  0  0  0  0  0  0
   -2.1471   -1.8868   -1.2047 C   0  0  0  0  0  0  0  0  0  0  0  0
   -0.5249   -3.9357   -0.2283 C   0  0  0  0  0  0  0  0  0  0  0  0
   -2.7205   -3.0766   -0.7562 C   0  0  0  0  0  0  0  0  0  0  0  0
   -1.9093   -4.1011   -0.2680 C   0  0  0  0  0  0  0  0  0  0  0  0
   -2.4685   -5.2627    0.1685 O   0  0  0  0  0  0  0  0  0  0  0  0
   -1.7582    1.3241   -0.4207 H   0  0  0  0  0  0  0  0  0  0  0  0
    0.8064    0.0298    0.2612 H   0  0  0  0  0  0  0  0  0  0  0  0
    0.7550   -0.6572   -2.2437 H   0  0  0  0  0  0  0  0  0  0  0  0
   -0.8406    0.0403   -2.3530 H   0  0  0  0  0  0  0  0  0  0  0  0
    1.1279   -2.6256   -0.6422 H   0  0  0  0  0  0  0  0  0  0  0  0
   -2.7869   -1.0938   -1.5833 H   0  0  0  0  0  0  0  0  0  0  0  0
    0.1124   -4.7303    0.1506 H   0  0  0  0  0  0  0  0  0  0  0  0
   -3.7993   -3.1995   -0.7900 H   0  0  0  0  0  0  0  0  0  0  0  0
   -3.4341   -5.2260    0.0779 H   0  0  0  0  0  0  0  0  0  0  0  0
    0.5727    2.0702   -2.3278 N   0  0  0  0  0  0  0  0  0  0  0  0
    1.1548    3.1614   -3.0756 C   0  0  2  0  0  0  0  0  0  0  0  0
    1.1430    4.3989   -2.1880 C   0  0  0  0  0  0  0  0  0  0  0  0
    0.3764    4.5348   -1.2366 O   0  0  0  0  0  0  0  0  0  0  0  0
    0.3953    3.4129   -4.3689 C   0  0  0  0  0  0  0  0  0  0  0  0
   -0.1617    1.5225   -2.7664 H   0  0  0  0  0  0  0  0  0  0  0  0
    2.1901    2.8780   -3.2945 H   0  0  0  0  0  0  0  0  0  0  0  0
   -0.6442    3.6980   -4.1697 H   0  0  0  0  0  0  0  0  0  0  0  0
    0.8545    4.2210   -4.9479 H   0  0  0  0  0  0  0  0  0  0  0  0
    0.3793    2.5128   -4.9929 H   0  0  0  0  0  0  0  0  0  0  0  0
    2.0596    5.3520   -2.6092 N   0  0  0  0  0  0  0  0  0  0  0  0
    2.2301    6.6198   -1.9385 C   0  0  0  0  0  0  0  0  0  0  0  0
    2.6677    5.1469   -3.3966 H   0  0  0  0  0  0  0  0  0  0  0  0
    1.5857    7.3752   -2.4120 H   0  0  0  0  0  0  0  0  0  0  0  0
    1.9535    6.5140   -0.8791 H   0  0  0  0  0  0  0  0  0  0  0  0
    3.2811    6.9356   -2.0133 H   0  0  0  0  0  0  0  0  0  0  0  0
 23 25  2  0  0  0  0
 22 23  1  0  0  0  0
 24 26  1  0  0  0  0
 22 24  2  0  0  0  0
 25 27  1  0  0  0  0
 26 27  2  0  0  0  0
 21 22  1  0  0  0  0
 27 28  1  0  0  0  0
  1  3  1  0  0  0  0
  1  7  1  0  0  0  0
  1  2  2  0  0  0  0
 39 40  1  0  0  0  0
 40 48  1  0  0  0  0
 40 41  2  0  0  0  0
  8  9  1  0  0  0  0
  9 17  1  0  0  0  0
  9 10  2  0  0  0  0
 18 19  1  0  0  0  0
 19 38  1  0  0  0  0
 19 20  2  0  0  0  0
 39 42  1  0  0  0  0
  8 11  1  0  0  0  0
 48 49  1  0  0  0  0
 18 21  1  0  0  0  0
 38 39  1  0  0  0  0
  7  8  1  0  0  0  0
 17 18  1  0  0  0  0
 23 33  1  0  0  0  0
 24 34  1  0  0  0  0
 25 35  1  0  0  0  0
 26 36  1  0  0  0  0
  3  4  1  0  0  0  0
  3  5  1  0  0  0  0
  3  6  1  0  0  0  0
 42 45  1  0  0  0  0
 42 46  1  0  0  0  0
 42 47  1  0  0  0  0
 11 14  1  0  0  0  0
 11 15  1  0  0  0  0
 11 16  1  0  0  0  0
 49 51  1  0  0  0  0
 49 52  1  0  0  0  0
 49 53  1  0  0  0  0
 21 31  1  0  0  0  0
 21 32  1  0  0  0  0
 39 44  1  0  0  0  0
  8 13  1  0  0  0  0
 18 30  1  0  0  0  0
 48 50  1  0  0  0  0
  7 12  1  0  0  0  0
 38 43  1  0  0  0  0
 17 29  1  0  0  0  0
 28 37  1  0  0  0  0
M  END
$$$$

  -OEChem-05262214473D

 53 53  0     1  0  0  0  0  0999 V2000
   -1.9298    0.2574    3.9747 C   0  0  0  0  0  0  0  0  0  0  0  0
   -0.9825   -0.3573    3.4990 O   0  0  0  0  0  0  0  0  0  0  0  0
   -2.3617   -0.0250    5.3754 C   0  0  0  0  0  0  0  0  0  0  0  0
   -3.1214   -0.8213    5.4288 H   0  0  0  0  0  0  0  0  0  0  0  0
   -1.5305   -0.3726    6.0097 H   0  0  0  0  0  0  0  0  0  0  0  0
   -2.7997    0.8299    5.9150 H   0  0  0  0  0  0  0  0  0  0  0  0
   -2.6795    1.2298    3.3336 N   0  0  0  0  0  0  0  0  0  0  0  0
   -2.4327    1.6559    1.9812 C   0  0  2  0  0  0  0  0  0  0  0  0
   -1.0977    1.0705    1.5400 C   0  0  0  0  0  0  0  0  0  0  0  0
   -0.2256    0.7177    2.3313 O   0  0  0  0  0  0  0  0  0  0  0  0
   -2.4239    3.1726    1.8718 C   0  0  0  0  0  0  0  0  0  0  0  0
   -3.4446    1.6657    3.8454 H   0  0  0  0  0  0  0  0  0  0  0  0
   -3.2368    1.2374    1.3661 H   0  0  0  0  0  0  0  0  0  0  0  0
   -1.6248    3.6099    2.4815 H   0  0  0  0  0  0  0  0  0  0  0  0
   -2.2644    3.4949    0.8375 H   0  0  0  0  0  0  0  0  0  0  0  0
   -3.3741    3.5939    2.2175 H   0  0  0  0  0  0  0  0  0  0  0  0
   -0.9750    1.0274    0.1566 N   0  0  0  0  0  0  0  0  0  0  0  0
    0.2023    0.5266   -0.5070 C   0  0  2  0  0  0  0  0  0  0  0  0
    0.9668    1.7329   -1.0404 C   0  0  0  0  0  0  0  0  0  0  0  0
    2.0173    2.1327   -0.5427 O   0  0  0  0  0  0  0  0  0  0  0  0
   -0.1424   -0.4341   -1.6508 C   0  0  0  0  0  0  0  0  0  0  0  0
   -0.7626   -1.7214   -1.1650 C   0  0  0  0  0  0  0  0  0  0  0  0
    0.0485   -2.7459   -0.6768 C   0  0  0  0  0  0  0  0  0  0  0  0
   -2.1471   -1.8868   -1.2047 C   0  0  0  0  0  0  0  0  0  0  0  0
   -0.5249   -3.9357   -0.2283 C   0  0  0  0  0  0  0  0  0  0  0  0
   -2.7205   -3.0766   -0.7562 C   0  0  0  0  0  0  0  0  0  0  0  0
   -1.9093   -4.1011   -0.2680 C   0  0  0  0  0  0  0  0  0  0  0  0
   -2.4685   -5.2627    0.1685 O   0  0  0  0  0  0  0  0  0  0  0  0
   -1.7582    1.3241   -0.4207 H   0  0  0  0  0  0  0  0  0  0  0  0
    0.8064    0.0298    0.2612 H   0  0  0  0  0  0  0  0  0  0  0  0
    0.7550   -0.6572   -2.2437 H   0  0  0  0  0  0  0  0  0  0  0  0
   -0.8406    0.0403   -2.3530 H   0  0  0  0  0  0  0  0  0  0  0  0
    1.1279   -2.6256   -0.6422 H   0  0  0  0  0  0  0  0  0  0  0  0
   -2.7869   -1.0938   -1.5833 H   0  0  0  0  0  0  0  0  0  0  0  0
    0.1124   -4.7303    0.1506 H   0  0  0  0  0  0  0  0  0  0  0  0
   -3.7993   -3.1995   -0.7900 H   0  0  0  0  0  0  0  0  0  0  0  0
   -3.4341   -5.2260    0.0779 H   0  0  0  0  0  0  0  0  0  0  0  0
    0.3619    2.2755   -2.1656 N   0  0  0  0  0  0  0  0  0  0  0  0
    0.8940    3.4121   -2.8824 C   0  0  2  0  0  0  0  0  0  0  0  0
    1.1878    4.5111   -1.8699 C   0  0  0  0  0  0  0  0  0  0  0  0
    0.6440    4.5719   -0.7691 O   0  0  0  0  0  0  0  0  0  0  0  0
   -0.0770    3.8990   -3.9467 C   0  0  0  0  0  0  0  0  0  0  0  0
   -0.4980    1.8524   -2.5022 H   0  0  0  0  0  0  0  0  0  0  0  0
    1.8299    3.0831   -3.3471 H   0  0  0  0  0  0  0  0  0  0  0  0
   -1.0207    4.2328   -3.5001 H   0  0  0  0  0  0  0  0  0  0  0  0
    0.3394    4.7420   -4.5079 H   0  0  0  0  0  0  0  0  0  0  0  0
   -0.3104    3.0984   -4.6570 H   0  0  0  0  0  0  0  0  0  0  0  0
    2.0964    5.4402   -2.3570 N   0  0  0  0  0  0  0  0  0  0  0  0
    2.5278    6.5853   -1.5897 C   0  0  0  0  0  0  0  0  0  0  0  0
    2.5111    5.3005   -3.2737 H   0  0  0  0  0  0  0  0  0  0  0  0
    1.8844    7.4466   -1.8222 H   0  0  0  0  0  0  0  0  0  0  0  0
    2.4579    6.3547   -0.5164 H   0  0  0  0  0  0  0  0  0  0  0  0
    3.5700    6.8265   -1.8458 H   0  0  0  0  0  0  0  0  0  0  0  0
 23 25  2  0  0  0  0
 22 23  1  0  0  0  0
 24 26  1  0  0  0  0
 22 24  2  0  0  0  0
 25 27  1  0  0  0  0
 26 27  2  0  0  0  0
 21 22  1  0  0  0  0
 27 28  1  0  0  0  0
  1  3  1  0  0  0  0
  1  7  1  0  0  0  0
  1  2  2  0  0  0  0
 39 40  1  0  0  0  0
 40 48  1  0  0  0  0
 40 41  2  0  0  0  0
  8  9  1  0  0  0  0
  9 17  1  0  0  0  0
  9 10  2  0  0  0  0
 18 19  1  0  0  0  0
 19 38  1  0  0  0  0
 19 20  2  0  0  0  0
 39 42  1  0  0  0  0
  8 11  1  0  0  0  0
 48 49  1  0  0  0  0
 18 21  1  0  0  0  0
 38 39  1  0  0  0  0
  7  8  1  0  0  0  0
 17 18  1  0  0  0  0
 23 33  1  0  0  0  0
 24 34  1  0  0  0  0
 25 35  1  0  0  0  0
 26 36  1  0  0  0  0
  3  4  1  0  0  0  0
  3  5  1  0  0  0  0
  3  6  1  0  0  0  0
 42 45  1  0  0  0  0
 42 46  1  0  0  0  0
 42 47  1  0  0  0  0
 11 14  1  0  0  0  0
 11 15  1  0  0  0  0
 11 16  1  0  0  0  0
 49 51  1  0  0  0  0
 49 52  1  0  0  0  0
 49 53  1  0  0  0  0
 21 31  1  0  0  0  0
 21 32  1  0  0  0  0
 39 44  1  0  0  0  0
  8 13  1  0  0  0  0
 18 30  1  0  0  0  0
 48 50  1  0  0  0  0
  7 12  1  0  0  0  0
 38 43  1  0  0  0  0
 17 29  1  0  0  0  0
 28 37  1  0  0  0  0
M  END
$$$$

  -OEChem-05262214473D

 53 53  0     1  0  0  0  0  0999 V2000
   -1.9298    0.2574    3.9747 C   0  0  0  0  0  0  0  0  0  0  0  0
   -0.9825   -0.3573    3.4990 O   0  0  0  0  0  0  0  0  0  0  0  0
   -2.3617   -0.0250    5.3754 C   0  0  0  0  0  0  0  0  0  0  0  0
   -3.1214   -0.8213    5.4288 H   0  0  0  0  0  0  0  0  0  0  0  0
   -1.5305   -0.3726    6.0097 H   0  0  0  0  0  0  0  0  0  0  0  0
   -2.7997    0.8299    5.9150 H   0  0  0  0  0  0  0  0  0  0  0  0
   -2.6795    1.2298    3.3336 N   0  0  0  0  0  0  0  0  0  0  0  0
   -2.4327    1.6559    1.9812 C   0  0  2  0  0  0  0  0  0  0  0  0
   -1.0977    1.0705    1.5400 C   0  0  0  0  0  0  0  0  0  0  0  0
   -0.2256    0.7177    2.3313 O   0  0  0  0  0  0  0  0  0  0  0  0
   -2.4239    3.1726    1.8718 C   0  0  0  0  0  0  0  0  0  0  0  0
   -3.4446    1.6657    3.8454 H   0  0  0  0  0  0  0  0  0  0  0  0
   -3.2368    1.2374    1.3661 H   0  0  0  0  0  0  0  0  0  0  0  0
   -1.6248    3.6099    2.4815 H   0  0  0  0  0  0  0  0  0  0  0  0
   -2.2644    3.4949    0.8375 H   0  0  0  0  0  0  0  0  0  0  0  0
   -3.3741    3.5939    2.2175 H   0  0  0  0  0  0  0  0  0  0  0  0
   -0.9750    1.0274    0.1566 N   0  0  0  0  0  0  0  0  0  0  0  0
    0.2023    0.5266   -0.5070 C   0  0  2  0  0  0  0  0  0  0  0  0
    0.9668    1.7329   -1.0404 C   0  0  0  0  0  0  0  0  0  0  0  0
    2.1310    1.9775   -0.7309 O   0  0  0  0  0  0  0  0  0  0  0  0
   -0.1424   -0.4341   -1.6508 C   0  0  0  0  0  0  0  0  0  0  0  0
   -0.7626   -1.7214   -1.1650 C   0  0  0  0  0  0  0  0  0  0  0  0
    0.0485   -2.7459   -0.6768 C   0  0  0  0  0  0  0  0  0  0  0  0
   -2.1471   -1.8868   -1.2047 C   0  0  0  0  0  0  0  0  0  0  0  0
   -0.5249   -3.9357   -0.2283 C   0  0  0  0  0  0  0  0  0  0  0  0
   -2.7205   -3.0766   -0.7562 C   0  0  0  0  0  0  0  0  0  0  0  0
   -1.9093   -4.1011   -0.2680 C   0  0  0  0  0  0  0  0  0  0  0  0
   -2.4685   -5.2627    0.1685 O   0  0  0  0  0  0  0  0  0  0  0  0
   -1.7582    1.3241   -0.4207 H   0  0  0  0  0  0  0  0  0  0  0  0
    0.8064    0.0298    0.2612 H   0  0  0  0  0  0  0  0  0  0  0  0
    0.7550   -0.6572   -2.2437 H   0  0  0  0  0  0  0  0  0  0  0  0
   -0.8406    0.0403   -2.3530 H   0  0  0  0  0  0  0  0  0  0  0  0
    1.1279   -2.6256   -0.6422 H   0  0  0  0  0  0  0  0  0  0  0  0
   -2.7869   -1.0938   -1.5833 H   0  0  0  0  0  0  0  0  0  0  0  0
    0.1124   -4.7303    0.1506 H   0  0  0  0  0  0  0  0  0  0  0  0
   -3.7993   -3.1995   -0.7900 H   0  0  0  0  0  0  0  0  0  0  0  0
   -3.4341   -5.2260    0.0779 H   0  0  0  0  0  0  0  0  0  0  0  0
    0.2101    2.4718   -1.9391 N   0  0  0  0  0  0  0  0  0  0  0  0
    0.7044    3.6528   -2.6098 C   0  0  2  0  0  0  0  0  0  0  0  0
    1.3064    4.5742   -1.5572 C   0  0  0  0  0  0  0  0  0  0  0  0
    1.0017    4.5228   -0.3674 O   0  0  0  0  0  0  0  0  0  0  0  0
   -0.4028    4.3565   -3.3790 C   0  0  0  0  0  0  0  0  0  0  0  0
   -0.7388    2.1673   -2.1354 H   0  0  0  0  0  0  0  0  0  0  0  0
    1.4898    3.3206   -3.2975 H   0  0  0  0  0  0  0  0  0  0  0  0
   -1.1989    4.6965   -2.7067 H   0  0  0  0  0  0  0  0  0  0  0  0
   -0.0209    5.2348   -3.9098 H   0  0  0  0  0  0  0  0  0  0  0  0
   -0.8547    3.6830   -4.1153 H   0  0  0  0  0  0  0  0  0  0  0  0
    2.1917    5.4893   -2.1095 N   0  0  0  0  0  0  0  0  0  0  0  0
    2.8838    6.4797   -1.3182 C   0  0  0  0  0  0  0  0  0  0  0  0
    2.3989    5.4470   -3.1029 H   0  0  0  0  0  0  0  0  0  0  0  0
    2.3002    7.4120   -1.3044 H   0  0  0  0  0  0  0  0  0  0  0  0
    3.0050    6.1080   -0.2900 H   0  0  0  0  0  0  0  0  0  0  0  0
    3.8736    6.6733   -1.7572 H   0  0  0  0  0  0  0  0  0  0  0  0
 23 25  2  0  0  0  0
 22 23  1  0  0  0  0
 24 26  1  0  0  0  0
 22 24  2  0  0  0  0
 25 27  1  0  0  0  0
 26 27  2  0  0  0  0
 21 22  1  0  0  0  0
 27 28  1  0  0  0  0
  1  3  1  0  0  0  0
  1  7  1  0  0  0  0
  1  2  2  0  0  0  0
 39 40  1  0  0  0  0
 40 48  1  0  0  0  0
 40 41  2  0  0  0  0
  8  9  1  0  0  0  0
  9 17  1  0  0  0  0
  9 10  2  0  0  0  0
 18 19  1  0  0  0  0
 19 38  1  0  0  0  0
 19 20  2  0  0  0  0
 39 42  1  0  0  0  0
  8 11  1  0  0  0  0
 48 49  1  0  0  0  0
 18 21  1  0  0  0  0
 38 39  1  0  0  0  0
  7  8  1  0  0  0  0
 17 18  1  0  0  0  0
 23 33  1  0  0  0  0
 24 34  1  0  0  0  0
 25 35  1  0  0  0  0
 26 36  1  0  0  0  0
  3  4  1  0  0  0  0
  3  5  1  0  0  0  0
  3  6  1  0  0  0  0
 42 45  1  0  0  0  0
 42 46  1  0  0  0  0
 42 47  1  0  0  0  0
 11 14  1  0  0  0  0
 11 15  1  0  0  0  0
 11 16  1  0  0  0  0
 49 51  1  0  0  0  0
 49 52  1  0  0  0  0
 49 53  1  0  0  0  0
 21 31  1  0  0  0  0
 21 32  1  0  0  0  0
 39 44  1  0  0  0  0
  8 13  1  0  0  0  0
 18 30  1  0  0  0  0
 48 50  1  0  0  0  0
  7 12  1  0  0  0  0
 38 43  1  0  0  0  0
 17 29  1  0  0  0  0
 28 37  1  0  0  0  0
M  END
$$$$

  -OEChem-05262214473D

 53 53  0     1  0  0  0  0  0999 V2000
   -1.9298    0.2574    3.9747 C   0  0  0  0  0  0  0  0  0  0  0  0
   -0.9825   -0.3573    3.4990 O   0  0  0  0  0  0  0  0  0  0  0  0
   -2.3617   -0.0250    5.3754 C   0  0  0  0  0  0  0  0  0  0  0  0
   -3.1214   -0.8213    5.4288 H   0  0  0  0  0  0  0  0  0  0  0  0
   -1.5305   -0.3726    6.0097 H   0  0  0  0  0  0  0  0  0  0  0  0
   -2.7997    0.8299    5.9150 H   0  0  0  0  0  0  0  0  0  0  0  0
   -2.6795    1.2298    3.3336 N   0  0  0  0  0  0  0  0  0  0  0  0
   -2.4327    1.6559    1.9812 C   0  0  2  0  0  0  0  0  0  0  0  0
   -1.0977    1.0705    1.5400 C   0  0  0  0  0  0  0  0  0  0  0  0
   -0.2256    0.7177    2.3313 O   0  0  0  0  0  0  0  0  0  0  0  0
   -2.4239    3.1726    1.8718 C   0  0  0  0  0  0  0  0  0  0  0  0
   -3.4446    1.6657    3.8454 H   0  0  0  0  0  0  0  0  0  0  0  0
   -3.2368    1.2374    1.3661 H   0  0  0  0  0  0  0  0  0  0  0  0
   -1.6248    3.6099    2.4815 H   0  0  0  0  0  0  0  0  0  0  0  0
   -2.2644    3.4949    0.8375 H   0  0  0  0  0  0  0  0  0  0  0  0
   -3.3741    3.5939    2.2175 H   0  0  0  0  0  0  0  0  0  0  0  0
   -0.9750    1.0274    0.1566 N   0  0  0  0  0  0  0  0  0  0  0  0
    0.2023    0.5266   -0.5070 C   0  0  2  0  0  0  0  0  0  0  0  0
    0.9668    1.7329   -1.0404 C   0  0  0  0  0  0  0  0  0  0  0  0
    2.1883    1.8416   -0.9561 O   0  0  0  0  0  0  0  0  0  0  0  0
   -0.1424   -0.4341   -1.6508 C   0  0  0  0  0  0  0  0  0  0  0  0
   -0.7626   -1.7214   -1.1650 C   0  0  0  0  0  0  0  0  0  0  0  0
    0.0485   -2.7459   -0.6768 C   0  0  0  0  0  0  0  0  0  0  0  0
   -2.1471   -1.8868   -1.2047 C   0  0  0  0  0  0  0  0  0  0  0  0
   -0.5249   -3.9357   -0.2283 C   0  0  0  0  0  0  0  0  0  0  0  0
   -2.7205   -3.0766   -0.7562 C   0  0  0  0  0  0  0  0  0  0  0  0
   -1.9093   -4.1011   -0.2680 C   0  0  0  0  0  0  0  0  0  0  0  0
   -2.4685   -5.2627    0.1685 O   0  0  0  0  0  0  0  0  0  0  0  0
   -1.7582    1.3241   -0.4207 H   0  0  0  0  0  0  0  0  0  0  0  0
    0.8064    0.0298    0.2612 H   0  0  0  0  0  0  0  0  0  0  0  0
    0.7550   -0.6572   -2.2437 H   0  0  0  0  0  0  0  0  0  0  0  0
   -0.8406    0.0403   -2.3530 H   0  0  0  0  0  0  0  0  0  0  0  0
    1.1279   -2.6256   -0.6422 H   0  0  0  0  0  0  0  0  0  0  0  0
   -2.7869   -1.0938   -1.5833 H   0  0  0  0  0  0  0  0  0  0  0  0
    0.1124   -4.7303    0.1506 H   0  0  0  0  0  0  0  0  0  0  0  0
   -3.7993   -3.1995   -0.7900 H   0  0  0  0  0  0  0  0  0  0  0  0
   -3.4341   -5.2260    0.0779 H   0  0  0  0  0  0  0  0  0  0  0  0
    0.1276    2.6458   -1.6638 N   0  0  0  0  0  0  0  0  0  0  0  0
    0.5988    3.8671   -2.2765 C   0  0  2  0  0  0  0  0  0  0  0  0
    1.4906    4.5838   -1.2713 C   0  0  0  0  0  0  0  0  0  0  0  0
    1.4249    4.3909   -0.0590 O   0  0  0  0  0  0  0  0  0  0  0  0
   -0.5599    4.7542   -2.7046 C   0  0  0  0  0  0  0  0  0  0  0  0
   -0.8678    2.4456   -1.6908 H   0  0  0  0  0  0  0  0  0  0  0  0
    1.1929    3.5744   -3.1491 H   0  0  0  0  0  0  0  0  0  0  0  0
   -1.1666    5.0576   -1.8436 H   0  0  0  0  0  0  0  0  0  0  0  0
   -0.2017    5.6658   -3.1942 H   0  0  0  0  0  0  0  0  0  0  0  0
   -1.2167    4.2266   -3.4046 H   0  0  0  0  0  0  0  0  0  0  0  0
    2.3388    5.4960   -1.8835 N   0  0  0  0  0  0  0  0  0  0  0  0
    3.2736    6.3103   -1.1425 C   0  0  0  0  0  0  0  0  0  0  0  0
    2.3389    5.5766   -2.8960 H   0  0  0  0  0  0  0  0  0  0  0  0
    2.8047    7.2737   -0.8940 H   0  0  0  0  0  0  0  0  0  0  0  0
    3.5575    5.7908   -0.2154 H   0  0  0  0  0  0  0  0  0  0  0  0
    4.1711    6.4863   -1.7538 H   0  0  0  0  0  0  0  0  0  0  0  0
 23 25  2  0  0  0  0
 22 23  1  0  0  0  0
 24 26  1  0  0  0  0
 22 24  2  0  0  0  0
 25 27  1  0  0  0  0
 26 27  2  0  0  0  0
 21 22  1  0  0  0  0
 27 28  1  0  0  0  0
  1  3  1  0  0  0  0
  1  7  1  0  0  0  0
  1  2  2  0  0  0  0
 39 40  1  0  0  0  0
 40 48  1  0  0  0  0
 40 41  2  0  0  0  0
  8  9  1  0  0  0  0
  9 17  1  0  0  0  0
  9 10  2  0  0  0  0
 18 19  1  0  0  0  0
 19 38  1  0  0  0  0
 19 20  2  0  0  0  0
 39 42  1  0  0  0  0
  8 11  1  0  0  0  0
 48 49  1  0  0  0  0
 18 21  1  0  0  0  0
 38 39  1  0  0  0  0
  7  8  1  0  0  0  0
 17 18  1  0  0  0  0
 23 33  1  0  0  0  0
 24 34  1  0  0  0  0
 25 35  1  0  0  0  0
 26 36  1  0  0  0  0
  3  4  1  0  0  0  0
  3  5  1  0  0  0  0
  3  6  1  0  0  0  0
 42 45  1  0  0  0  0
 42 46  1  0  0  0  0
 42 47  1  0  0  0  0
 11 14  1  0  0  0  0
 11 15  1  0  0  0  0
 11 16  1  0  0  0  0
 49 51  1  0  0  0  0
 49 52  1  0  0  0  0
 49 53  1  0  0  0  0
 21 31  1  0  0  0  0
 21 32  1  0  0  0  0
 39 44  1  0  0  0  0
  8 13  1  0  0  0  0
 18 30  1  0  0  0  0
 48 50  1  0  0  0  0
  7 12  1  0  0  0  0
 38 43  1  0  0  0  0
 17 29  1  0  0  0  0
 28 37  1  0  0  0  0
M  END
$$$$

  -OEChem-05262214473D

 53 53  0     1  0  0  0  0  0999 V2000
   -1.9298    0.2574    3.9747 C   0  0  0  0  0  0  0  0  0  0  0  0
   -0.9825   -0.3573    3.4990 O   0  0  0  0  0  0  0  0  0  0  0  0
   -2.3617   -0.0250    5.3754 C   0  0  0  0  0  0  0  0  0  0  0  0
   -3.1214   -0.8213    5.4288 H   0  0  0  0  0  0  0  0  0  0  0  0
   -1.5305   -0.3726    6.0097 H   0  0  0  0  0  0  0  0  0  0  0  0
   -2.7997    0.8299    5.9150 H   0  0  0  0  0  0  0  0  0  0  0  0
   -2.6795    1.2298    3.3336 N   0  0  0  0  0  0  0  0  0  0  0  0
   -2.4327    1.6559    1.9812 C   0  0  2  0  0  0  0  0  0  0  0  0
   -1.0977    1.0705    1.5400 C   0  0  0  0  0  0  0  0  0  0  0  0
   -0.2256    0.7177    2.3313 O   0  0  0  0  0  0  0  0  0  0  0  0
   -2.4239    3.1726    1.8718 C   0  0  0  0  0  0  0  0  0  0  0  0
   -3.4446    1.6657    3.8454 H   0  0  0  0  0  0  0  0  0  0  0  0
   -3.2368    1.2374    1.3661 H   0  0  0  0  0  0  0  0  0  0  0  0
   -1.6248    3.6099    2.4815 H   0  0  0  0  0  0  0  0  0  0  0  0
   -2.2644    3.4949    0.8375 H   0  0  0  0  0  0  0  0  0  0  0  0
   -3.3741    3.5939    2.2175 H   0  0  0  0  0  0  0  0  0  0  0  0
   -0.9750    1.0274    0.1566 N   0  0  0  0  0  0  0  0  0  0  0  0
    0.2023    0.5266   -0.5070 C   0  0  2  0  0  0  0  0  0  0  0  0
    0.9668    1.7329   -1.0404 C   0  0  0  0  0  0  0  0  0  0  0  0
    2.1852    1.7344   -1.2030 O   0  0  0  0  0  0  0  0  0  0  0  0
   -0.1424   -0.4341   -1.6508 C   0  0  0  0  0  0  0  0  0  0  0  0
   -0.7626   -1.7214   -1.1650 C   0  0  0  0  0  0  0  0  0  0  0  0
    0.0485   -2.7459   -0.6768 C   0  0  0  0  0  0  0  0  0  0  0  0
   -2.1471   -1.8868   -1.2047 C   0  0  0  0  0  0  0  0  0  0  0  0
   -0.5249   -3.9357   -0.2283 C   0  0  0  0  0  0  0  0  0  0  0  0
   -2.7205   -3.0766   -0.7562 C   0  0  0  0  0  0  0  0  0  0  0  0
   -1.9093   -4.1011   -0.2680 C   0  0  0  0  0  0  0  0  0  0  0  0
   -2.4685   -5.2627    0.1685 O   0  0  0  0  0  0  0  0  0  0  0  0
   -1.7582    1.3241   -0.4207 H   0  0  0  0  0  0  0  0  0  0  0  0
    0.8064    0.0298    0.2612 H   0  0  0  0  0  0  0  0  0  0  0  0
    0.7550   -0.6572   -2.2437 H   0  0  0  0  0  0  0  0  0  0  0  0
   -0.8406    0.0403   -2.3530 H   0  0  0  0  0  0  0  0  0  0  0  0
    1.1279   -2.6256   -0.6422 H   0  0  0  0  0  0  0  0  0  0  0  0
   -2.7869   -1.0938   -1.5833 H   0  0  0  0  0  0  0  0  0  0  0  0
    0.1124   -4.7303    0.1506 H   0  0  0  0  0  0  0  0  0  0  0  0
   -3.7993   -3.1995   -0.7900 H   0  0  0  0  0  0  0  0  0  0  0  0
   -3.4341   -5.2260    0.0779 H   0  0  0  0  0  0  0  0  0  0  0  0
    0.1201    2.7856   -1.3584 N   0  0  0  0  0  0  0  0  0  0  0  0
    0.5845    4.0403   -1.9050 C   0  0  2  0  0  0  0  0  0  0  0  0
    1.7280    4.5393   -1.0316 C   0  0  0  0  0  0  0  0  0  0  0  0
    1.8849    4.1851    0.1350 O   0  0  0  0  0  0  0  0  0  0  0  0
   -0.5374    5.0650   -1.9694 C   0  0  0  0  0  0  0  0  0  0  0  0
   -0.8762    2.6684   -1.1989 H   0  0  0  0  0  0  0  0  0  0  0  0
    0.9595    3.8271   -2.9120 H   0  0  0  0  0  0  0  0  0  0  0  0
   -0.9259    5.2914   -0.9697 H   0  0  0  0  0  0  0  0  0  0  0  0
   -0.1909    6.0056   -2.4101 H   0  0  0  0  0  0  0  0  0  0  0  0
   -1.3715    4.6922   -2.5735 H   0  0  0  0  0  0  0  0  0  0  0  0
    2.5278    5.4598   -1.6945 N   0  0  0  0  0  0  0  0  0  0  0  0
    3.6708    6.0885   -1.0747 C   0  0  0  0  0  0  0  0  0  0  0  0
    2.3349    5.6803   -2.6670 H   0  0  0  0  0  0  0  0  0  0  0  0
    3.3635    7.0412   -0.6187 H   0  0  0  0  0  0  0  0  0  0  0  0
    4.0778    5.4247   -0.2976 H   0  0  0  0  0  0  0  0  0  0  0  0
    4.4422    6.2783   -1.8356 H   0  0  0  0  0  0  0  0  0  0  0  0
 23 25  2  0  0  0  0
 22 23  1  0  0  0  0
 24 26  1  0  0  0  0
 22 24  2  0  0  0  0
 25 27  1  0  0  0  0
 26 27  2  0  0  0  0
 21 22  1  0  0  0  0
 27 28  1  0  0  0  0
  1  3  1  0  0  0  0
  1  7  1  0  0  0  0
  1  2  2  0  0  0  0
 39 40  1  0  0  0  0
 40 48  1  0  0  0  0
 40 41  2  0  0  0  0
  8  9  1  0  0  0  0
  9 17  1  0  0  0  0
  9 10  2  0  0  0  0
 18 19  1  0  0  0  0
 19 38  1  0  0  0  0
 19 20  2  0  0  0  0
 39 42  1  0  0  0  0
  8 11  1  0  0  0  0
 48 49  1  0  0  0  0
 18 21  1  0  0  0  0
 38 39  1  0  0  0  0
  7  8  1  0  0  0  0
 17 18  1  0  0  0  0
 23 33  1  0  0  0  0
 24 34  1  0  0  0  0
 25 35  1  0  0  0  0
 26 36  1  0  0  0  0
  3  4  1  0  0  0  0
  3  5  1  0  0  0  0
  3  6  1  0  0  0  0
 42 45  1  0  0  0  0
 42 46  1  0  0  0  0
 42 47  1  0  0  0  0
 11 14  1  0  0  0  0
 11 15  1  0  0  0  0
 11 16  1  0  0  0  0
 49 51  1  0  0  0  0
 49 52  1  0  0  0  0
 49 53  1  0  0  0  0
 21 31  1  0  0  0  0
 21 32  1  0  0  0  0
 39 44  1  0  0  0  0
  8 13  1  0  0  0  0
 18 30  1  0  0  0  0
 48 50  1  0  0  0  0
  7 12  1  0  0  0  0
 38 43  1  0  0  0  0
 17 29  1  0  0  0  0
 28 37  1  0  0  0  0
M  END
$$$$

  -OEChem-05262214473D

 53 53  0     1  0  0  0  0  0999 V2000
   -1.9298    0.2574    3.9747 C   0  0  0  0  0  0  0  0  0  0  0  0
   -0.9825   -0.3573    3.4990 O   0  0  0  0  0  0  0  0  0  0  0  0
   -2.3617   -0.0250    5.3754 C   0  0  0  0  0  0  0  0  0  0  0  0
   -3.1214   -0.8213    5.4288 H   0  0  0  0  0  0  0  0  0  0  0  0
   -1.5305   -0.3726    6.0097 H   0  0  0  0  0  0  0  0  0  0  0  0
   -2.7997    0.8299    5.9150 H   0  0  0  0  0  0  0  0  0  0  0  0
   -2.6795    1.2298    3.3336 N   0  0  0  0  0  0  0  0  0  0  0  0
   -2.4327    1.6559    1.9812 C   0  0  2  0  0  0  0  0  0  0  0  0
   -1.0977    1.0705    1.5400 C   0  0  0  0  0  0  0  0  0  0  0  0
   -0.2256    0.7177    2.3313 O   0  0  0  0  0  0  0  0  0  0  0  0
   -2.4239    3.1726    1.8718 C   0  0  0  0  0  0  0  0  0  0  0  0
   -3.4446    1.6657    3.8454 H   0  0  0  0  0  0  0  0  0  0  0  0
   -3.2368    1.2374    1.3661 H   0  0  0  0  0  0  0  0  0  0  0  0
   -1.6248    3.6099    2.4815 H   0  0  0  0  0  0  0  0  0  0  0  0
   -2.2644    3.4949    0.8375 H   0  0  0  0  0  0  0  0  0  0  0  0
   -3.3741    3.5939    2.2175 H   0  0  0  0  0  0  0  0  0  0  0  0
   -0.9750    1.0274    0.1566 N   0  0  0  0  0  0  0  0  0  0  0  0
    0.2023    0.5266   -0.5070 C   0  0  2  0  0  0  0  0  0  0  0  0
    0.9668    1.7329   -1.0404 C   0  0  0  0  0  0  0  0  0  0  0  0
    2.1220    1.6632   -1.4547 O   0  0  0  0  0  0  0  0  0  0  0  0
   -0.1424   -0.4341   -1.6508 C   0  0  0  0  0  0  0  0  0  0  0  0
   -0.7626   -1.7214   -1.1650 C   0  0  0  0  0  0  0  0  0  0  0  0
    0.0485   -2.7459   -0.6768 C   0  0  0  0  0  0  0  0  0  0  0  0
   -2.1471   -1.8868   -1.2047 C   0  0  0  0  0  0  0  0  0  0  0  0
   -0.5249   -3.9357   -0.2283 C   0  0  0  0  0  0  0  0  0  0  0  0
   -2.7205   -3.0766   -0.7562 C   0  0  0  0  0  0  0  0  0  0  0  0
   -1.9093   -4.1011   -0.2680 C   0  0  0  0  0  0  0  0  0  0  0  0
   -2.4685   -5.2627    0.1685 O   0  0  0  0  0  0  0  0  0  0  0  0
   -1.7582    1.3241   -0.4207 H   0  0  0  0  0  0  0  0  0  0  0  0
    0.8064    0.0298    0.2612 H   0  0  0  0  0  0  0  0  0  0  0  0
    0.7550   -0.6572   -2.2437 H   0  0  0  0  0  0  0  0  0  0  0  0
   -0.8406    0.0403   -2.3530 H   0  0  0  0  0  0  0  0  0  0  0  0
    1.1279   -2.6256   -0.6422 H   0  0  0  0  0  0  0  0  0  0  0  0
   -2.7869   -1.0938   -1.5833 H   0  0  0  0  0  0  0  0  0  0  0  0
    0.1124   -4.7303    0.1506 H   0  0  0  0  0  0  0  0  0  0  0  0
   -3.7993   -3.1995   -0.7900 H   0  0  0  0  0  0  0  0  0  0  0  0
   -3.4341   -5.2260    0.0779 H   0  0  0  0  0  0  0  0  0  0  0  0
    0.1880    2.8817   -1.0437 N   0  0  0  0  0  0  0  0  0  0  0  0
    0.6625    4.1608   -1.5209 C   0  0  2  0  0  0  0  0  0  0  0  0
    2.0024    4.4437   -0.8545 C   0  0  0  0  0  0  0  0  0  0  0  0
    2.3504    3.9195    0.2015 O   0  0  0  0  0  0  0  0  0  0  0  0
   -0.3370    5.2677   -1.2235 C   0  0  0  0  0  0  0  0  0  0  0  0
   -0.7634    2.8205   -0.6931 H   0  0  0  0  0  0  0  0  0  0  0  0
    0.8055    4.0616   -2.6024 H   0  0  0  0  0  0  0  0  0  0  0  0
   -0.4933    5.3820   -0.1446 H   0  0  0  0  0  0  0  0  0  0  0  0
    0.0109    6.2310   -1.6108 H   0  0  0  0  0  0  0  0  0  0  0  0
   -1.3088    5.0480   -1.6786 H   0  0  0  0  0  0  0  0  0  0  0  0
    2.7457    5.3831   -1.5553 N   0  0  0  0  0  0  0  0  0  0  0  0
    4.0483    5.8295   -1.1193 C   0  0  0  0  0  0  0  0  0  0  0  0
    2.3874    5.7512   -2.4316 H   0  0  0  0  0  0  0  0  0  0  0  0
    3.9386    6.7303   -0.4975 H   0  0  0  0  0  0  0  0  0  0  0  0
    4.5303    5.0347   -0.5312 H   0  0  0  0  0  0  0  0  0  0  0  0
    4.6684    6.0634   -1.9972 H   0  0  0  0  0  0  0  0  0  0  0  0
 23 25  2  0  0  0  0
 22 23  1  0  0  0  0
 24 26  1  0  0  0  0
 22 24  2  0  0  0  0
 25 27  1  0  0  0  0
 26 27  2  0  0  0  0
 21 22  1  0  0  0  0
 27 28  1  0  0  0  0
  1  3  1  0  0  0  0
  1  7  1  0  0  0  0
  1  2  2  0  0  0  0
 39 40  1  0  0  0  0
 40 48  1  0  0  0  0
 40 41  2  0  0  0  0
  8  9  1  0  0  0  0
  9 17  1  0  0  0  0
  9 10  2  0  0  0  0
 18 19  1  0  0  0  0
 19 38  1  0  0  0  0
 19 20  2  0  0  0  0
 39 42  1  0  0  0  0
  8 11  1  0  0  0  0
 48 49  1  0  0  0  0
 18 21  1  0  0  0  0
 38 39  1  0  0  0  0
  7  8  1  0  0  0  0
 17 18  1  0  0  0  0
 23 33  1  0  0  0  0
 24 34  1  0  0  0  0
 25 35  1  0  0  0  0
 26 36  1  0  0  0  0
  3  4  1  0  0  0  0
  3  5  1  0  0  0  0
  3  6  1  0  0  0  0
 42 45  1  0  0  0  0
 42 46  1  0  0  0  0
 42 47  1  0  0  0  0
 11 14  1  0  0  0  0
 11 15  1  0  0  0  0
 11 16  1  0  0  0  0
 49 51  1  0  0  0  0
 49 52  1  0  0  0  0
 49 53  1  0  0  0  0
 21 31  1  0  0  0  0
 21 32  1  0  0  0  0
 39 44  1  0  0  0  0
  8 13  1  0  0  0  0
 18 30  1  0  0  0  0
 48 50  1  0  0  0  0
  7 12  1  0  0  0  0
 38 43  1  0  0  0  0
 17 29  1  0  0  0  0
 28 37  1  0  0  0  0
M  END
$$$$

  -OEChem-05262214473D

 53 53  0     1  0  0  0  0  0999 V2000
   -1.9298    0.2574    3.9747 C   0  0  0  0  0  0  0  0  0  0  0  0
   -0.9825   -0.3573    3.4990 O   0  0  0  0  0  0  0  0  0  0  0  0
   -2.3617   -0.0250    5.3754 C   0  0  0  0  0  0  0  0  0  0  0  0
   -3.1214   -0.8213    5.4288 H   0  0  0  0  0  0  0  0  0  0  0  0
   -1.5305   -0.3726    6.0097 H   0  0  0  0  0  0  0  0  0  0  0  0
   -2.7997    0.8299    5.9150 H   0  0  0  0  0  0  0  0  0  0  0  0
   -2.6795    1.2298    3.3336 N   0  0  0  0  0  0  0  0  0  0  0  0
   -2.4327    1.6559    1.9812 C   0  0  2  0  0  0  0  0  0  0  0  0
   -1.0977    1.0705    1.5400 C   0  0  0  0  0  0  0  0  0  0  0  0
   -0.2256    0.7177    2.3313 O   0  0  0  0  0  0  0  0  0  0  0  0
   -2.4239    3.1726    1.8718 C   0  0  0  0  0  0  0  0  0  0  0  0
   -3.4446    1.6657    3.8454 H   0  0  0  0  0  0  0  0  0  0  0  0
   -3.2368    1.2374    1.3661 H   0  0  0  0  0  0  0  0  0  0  0  0
   -1.6248    3.6099    2.4815 H   0  0  0  0  0  0  0  0  0  0  0  0
   -2.2644    3.4949    0.8375 H   0  0  0  0  0  0  0  0  0  0  0  0
   -3.3741    3.5939    2.2175 H   0  0  0  0  0  0  0  0  0  0  0  0
   -0.9750    1.0274    0.1566 N   0  0  0  0  0  0  0  0  0  0  0  0
    0.2023    0.5266   -0.5070 C   0  0  2  0  0  0  0  0  0  0  0  0
    0.9668    1.7329   -1.0404 C   0  0  0  0  0  0  0  0  0  0  0  0
    2.0029    1.6328   -1.6942 O   0  0  0  0  0  0  0  0  0  0  0  0
   -0.1424   -0.4341   -1.6508 C   0  0  0  0  0  0  0  0  0  0  0  0
   -0.7626   -1.7214   -1.1650 C   0  0  0  0  0  0  0  0  0  0  0  0
    0.0485   -2.7459   -0.6768 C   0  0  0  0  0  0  0  0  0  0  0  0
   -2.1471   -1.8868   -1.2047 C   0  0  0  0  0  0  0  0  0  0  0  0
   -0.5249   -3.9357   -0.2283 C   0  0  0  0  0  0  0  0  0  0  0  0
   -2.7205   -3.0766   -0.7562 C   0  0  0  0  0  0  0  0  0  0  0  0
   -1.9093   -4.1011   -0.2680 C   0  0  0  0  0  0  0  0  0  0  0  0
   -2.4685   -5.2627    0.1685 O   0  0  0  0  0  0  0  0  0  0  0  0
   -1.7582    1.3241   -0.4207 H   0  0  0  0  0  0  0  0  0  0  0  0
    0.8064    0.0298    0.2612 H   0  0  0  0  0  0  0  0  0  0  0  0
    0.7550   -0.6572   -2.2437 H   0  0  0  0  0  0  0  0  0  0  0  0
   -0.8406    0.0403   -2.3530 H   0  0  0  0  0  0  0  0  0  0  0  0
    1.1279   -2.6256   -0.6422 H   0  0  0  0  0  0  0  0  0  0  0  0
   -2.7869   -1.0938   -1.5833 H   0  0  0  0  0  0  0  0  0  0  0  0
    0.1124   -4.7303    0.1506 H   0  0  0  0  0  0  0  0  0  0  0  0
   -3.7993   -3.1995   -0.7900 H   0  0  0  0  0  0  0  0  0  0  0  0
   -3.4341   -5.2260    0.0779 H   0  0  0  0  0  0  0  0  0  0  0  0
    0.3267    2.9276   -0.7411 N   0  0  0  0  0  0  0  0  0  0  0  0
    0.8274    4.2202   -1.1501 C   0  0  2  0  0  0  0  0  0  0  0  0
    2.2950    4.3035   -0.7520 C   0  0  0  0  0  0  0  0  0  0  0  0
    2.7895    3.6121    0.1360 O   0  0  0  0  0  0  0  0  0  0  0  0
    0.0277    5.3486   -0.5177 C   0  0  0  0  0  0  0  0  0  0  0  0
   -0.5370    2.8915   -0.2079 H   0  0  0  0  0  0  0  0  0  0  0  0
    0.7414    4.2618   -2.2414 H   0  0  0  0  0  0  0  0  0  0  0  0
    0.1018    5.3232    0.5756 H   0  0  0  0  0  0  0  0  0  0  0  0
    0.3900    6.3268   -0.8508 H   0  0  0  0  0  0  0  0  0  0  0  0
   -1.0326    5.2699   -0.7809 H   0  0  0  0  0  0  0  0  0  0  0  0
    2.9779    5.2713   -1.4754 N   0  0  0  0  0  0  0  0  0  0  0  0
    4.3803    5.5510   -1.2733 C   0  0  0  0  0  0  0  0  0  0  0  0
    2.4927    5.7843   -2.2057 H   0  0  0  0  0  0  0  0  0  0  0  0
    4.4908    6.3622   -0.5386 H   0  0  0  0  0  0  0  0  0  0  0  0
    4.8842    4.6472   -0.9000 H   0  0  0  0  0  0  0  0  0  0  0  0
    4.8344    5.8564   -2.2275 H   0  0  0  0  0  0  0  0  0  0  0  0
 23 25  2  0  0  0  0
 22 23  1  0  0  0  0
 24 26  1  0  0  0  0
 22 24  2  0  0  0  0
 25 27  1  0  0  0  0
 26 27  2  0  0  0  0
 21 22  1  0  0  0  0
 27 28  1  0  0  0  0
  1  3  1  0  0  0  0
  1  7  1  0  0  0  0
  1  2  2  0  0  0  0
 39 40  1  0  0  0  0
 40 48  1  0  0  0  0
 40 41  2  0  0  0  0
  8  9  1  0  0  0  0
  9 17  1  0  0  0  0
  9 10  2  0  0  0  0
 18 19  1  0  0  0  0
 19 38  1  0  0  0  0
 19 20  2  0  0  0  0
 39 42  1  0  0  0  0
  8 11  1  0  0  0  0
 48 49  1  0  0  0  0
 18 21  1  0  0  0  0
 38 39  1  0  0  0  0
  7  8  1  0  0  0  0
 17 18  1  0  0  0  0
 23 33  1  0  0  0  0
 24 34  1  0  0  0  0
 25 35  1  0  0  0  0
 26 36  1  0  0  0  0
  3  4  1  0  0  0  0
  3  5  1  0  0  0  0
  3  6  1  0  0  0  0
 42 45  1  0  0  0  0
 42 46  1  0  0  0  0
 42 47  1  0  0  0  0
 11 14  1  0  0  0  0
 11 15  1  0  0  0  0
 11 16  1  0  0  0  0
 49 51  1  0  0  0  0
 49 52  1  0  0  0  0
 49 53  1  0  0  0  0
 21 31  1  0  0  0  0
 21 32  1  0  0  0  0
 39 44  1  0  0  0  0
  8 13  1  0  0  0  0
 18 30  1  0  0  0  0
 48 50  1  0  0  0  0
  7 12  1  0  0  0  0
 38 43  1  0  0  0  0
 17 29  1  0  0  0  0
 28 37  1  0  0  0  0
M  END
$$$$

  -OEChem-05262214473D

 53 53  0     1  0  0  0  0  0999 V2000
   -1.9298    0.2574    3.9747 C   0  0  0  0  0  0  0  0  0  0  0  0
   -0.9825   -0.3573    3.4990 O   0  0  0  0  0  0  0  0  0  0  0  0
   -2.3617   -0.0250    5.3754 C   0  0  0  0  0  0  0  0  0  0  0  0
   -3.1214   -0.8213    5.4288 H   0  0  0  0  0  0  0  0  0  0  0  0
   -1.5305   -0.3726    6.0097 H   0  0  0  0  0  0  0  0  0  0  0  0
   -2.7997    0.8299    5.9150 H   0  0  0  0  0  0  0  0  0  0  0  0
   -2.6795    1.2298    3.3336 N   0  0  0  0  0  0  0  0  0  0  0  0
   -2.4327    1.6559    1.9812 C   0  0  2  0  0  0  0  0  0  0  0  0
   -1.0977    1.0705    1.5400 C   0  0  0  0  0  0  0  0  0  0  0  0
   -0.2256    0.7177    2.3313 O   0  0  0  0  0  0  0  0  0  0  0  0
   -2.4239    3.1726    1.8718 C   0  0  0  0  0  0  0  0  0  0  0  0
   -3.4446    1.6657    3.8454 H   0  0  0  0  0  0  0  0  0  0  0  0
   -3.2368    1.2374    1.3661 H   0  0  0  0  0  0  0  0  0  0  0  0
   -1.6248    3.6099    2.4815 H   0  0  0  0  0  0  0  0  0  0  0  0
   -2.2644    3.4949    0.8375 H   0  0  0  0  0  0  0  0  0  0  0  0
   -3.3741    3.5939    2.2175 H   0  0  0  0  0  0  0  0  0  0  0  0
   -0.9750    1.0274    0.1566 N   0  0  0  0  0  0  0  0  0  0  0  0
    0.2023    0.5266   -0.5070 C   0  0  2  0  0  0  0  0  0  0  0  0
    0.9668    1.7329   -1.0404 C   0  0  0  0  0  0  0  0  0  0  0  0
    1.8360    1.6453   -1.9051 O   0  0  0  0  0  0  0  0  0  0  0  0
   -0.1424   -0.4341   -1.6508 C   0  0  0  0  0  0  0  0  0  0  0  0
   -0.7626   -1.7214   -1.1650 C   0  0  0  0  0  0  0  0  0  0  0  0
    0.0485   -2.7459   -0.6768 C   0  0  0  0  0  0  0  0  0  0  0  0
   -2.1471   -1.8868   -1.2047 C   0  0  0  0  0  0  0  0  0  0  0  0
   -0.5249   -3.9357   -0.2283 C   0  0  0  0  0  0  0  0  0  0  0  0
   -2.7205   -3.0766   -0.7562 C   0  0  0  0  0  0  0  0  0  0  0  0
   -1.9093   -4.1011   -0.2680 C   0  0  0  0  0  0  0  0  0  0  0  0
   -2.4685   -5.2627    0.1685 O   0  0  0  0  0  0  0  0  0  0  0  0
   -1.7582    1.3241   -0.4207 H   0  0  0  0  0  0  0  0  0  0  0  0
    0.8064    0.0298    0.2612 H   0  0  0  0  0  0  0  0  0  0  0  0
    0.7550   -0.6572   -2.2437 H   0  0  0  0  0  0  0  0  0  0  0  0
   -0.8406    0.0403   -2.3530 H   0  0  0  0  0  0  0  0  0  0  0  0
    1.1279   -2.6256   -0.6422 H   0  0  0  0  0  0  0  0  0  0  0  0
   -2.7869   -1.0938   -1.5833 H   0  0  0  0  0  0  0  0  0  0  0  0
    0.1124   -4.7303    0.1506 H   0  0  0  0  0  0  0  0  0  0  0  0
   -3.7993   -3.1995   -0.7900 H   0  0  0  0  0  0  0  0  0  0  0  0
   -3.4341   -5.2260    0.0779 H   0  0  0  0  0  0  0  0  0  0  0  0
    0.5269    2.9200   -0.4714 N   0  0  0  0  0  0  0  0  0  0  0  0
    1.0679    4.2145   -0.8180 C   0  0  2  0  0  0  0  0  0  0  0  0
    2.5860    4.1283   -0.7311 C   0  0  0  0  0  0  0  0  0  0  0  0
    3.1725    3.2840   -0.0571 O   0  0  0  0  0  0  0  0  0  0  0  0
    0.5319    5.3021    0.0999 C   0  0  0  0  0  0  0  0  0  0  0  0
   -0.2126    2.8767    0.2237 H   0  0  0  0  0  0  0  0  0  0  0  0
    0.7716    4.4142   -1.8535 H   0  0  0  0  0  0  0  0  0  0  0  0
    0.8188    5.1191    1.1418 H   0  0  0  0  0  0  0  0  0  0  0  0
    0.9205    6.2863   -0.1819 H   0  0  0  0  0  0  0  0  0  0  0  0
   -0.5620    5.3427    0.0586 H   0  0  0  0  0  0  0  0  0  0  0  0
    3.2083    5.1319   -1.4604 N   0  0  0  0  0  0  0  0  0  0  0  0
    4.6443    5.2719   -1.5262 C   0  0  0  0  0  0  0  0  0  0  0  0
    2.6437    5.7774   -2.0048 H   0  0  0  0  0  0  0  0  0  0  0  0
    4.9824    5.9619   -0.7391 H   0  0  0  0  0  0  0  0  0  0  0  0
    5.1155    4.2888   -1.3791 H   0  0  0  0  0  0  0  0  0  0  0  0
    4.9289    5.6712   -2.5108 H   0  0  0  0  0  0  0  0  0  0  0  0
 23 25  2  0  0  0  0
 22 23  1  0  0  0  0
 24 26  1  0  0  0  0
 22 24  2  0  0  0  0
 25 27  1  0  0  0  0
 26 27  2  0  0  0  0
 21 22  1  0  0  0  0
 27 28  1  0  0  0  0
  1  3  1  0  0  0  0
  1  7  1  0  0  0  0
  1  2  2  0  0  0  0
 39 40  1  0  0  0  0
 40 48  1  0  0  0  0
 40 41  2  0  0  0  0
  8  9  1  0  0  0  0
  9 17  1  0  0  0  0
  9 10  2  0  0  0  0
 18 19  1  0  0  0  0
 19 38  1  0  0  0  0
 19 20  2  0  0  0  0
 39 42  1  0  0  0  0
  8 11  1  0  0  0  0
 48 49  1  0  0  0  0
 18 21  1  0  0  0  0
 38 39  1  0  0  0  0
  7  8  1  0  0  0  0
 17 18  1  0  0  0  0
 23 33  1  0  0  0  0
 24 34  1  0  0  0  0
 25 35  1  0  0  0  0
 26 36  1  0  0  0  0
  3  4  1  0  0  0  0
  3  5  1  0  0  0  0
  3  6  1  0  0  0  0
 42 45  1  0  0  0  0
 42 46  1  0  0  0  0
 42 47  1  0  0  0  0
 11 14  1  0  0  0  0
 11 15  1  0  0  0  0
 11 16  1  0  0  0  0
 49 51  1  0  0  0  0
 49 52  1  0  0  0  0
 49 53  1  0  0  0  0
 21 31  1  0  0  0  0
 21 32  1  0  0  0  0
 39 44  1  0  0  0  0
  8 13  1  0  0  0  0
 18 30  1  0  0  0  0
 48 50  1  0  0  0  0
  7 12  1  0  0  0  0
 38 43  1  0  0  0  0
 17 29  1  0  0  0  0
 28 37  1  0  0  0  0
M  END
$$$$

  -OEChem-05262214473D

 53 53  0     1  0  0  0  0  0999 V2000
   -1.9298    0.2574    3.9747 C   0  0  0  0  0  0  0  0  0  0  0  0
   -0.9825   -0.3573    3.4990 O   0  0  0  0  0  0  0  0  0  0  0  0
   -2.3617   -0.0250    5.3754 C   0  0  0  0  0  0  0  0  0  0  0  0
   -3.1214   -0.8213    5.4288 H   0  0  0  0  0  0  0  0  0  0  0  0
   -1.5305   -0.3726    6.0097 H   0  0  0  0  0  0  0  0  0  0  0  0
   -2.7997    0.8299    5.9150 H   0  0  0  0  0  0  0  0  0  0  0  0
   -2.6795    1.2298    3.3336 N   0  0  0  0  0  0  0  0  0  0  0  0
   -2.4327    1.6559    1.9812 C   0  0  2  0  0  0  0  0  0  0  0  0
   -1.0977    1.0705    1.5400 C   0  0  0  0  0  0  0  0  0  0  0  0
   -0.2256    0.7177    2.3313 O   0  0  0  0  0  0  0  0  0  0  0  0
   -2.4239    3.1726    1.8718 C   0  0  0  0  0  0  0  0  0  0  0  0
   -3.4446    1.6657    3.8454 H   0  0  0  0  0  0  0  0  0  0  0  0
   -3.2368    1.2374    1.3661 H   0  0  0  0  0  0  0  0  0  0  0  0
   -1.6248    3.6099    2.4815 H   0  0  0  0  0  0  0  0  0  0  0  0
   -2.2644    3.4949    0.8375 H   0  0  0  0  0  0  0  0  0  0  0  0
   -3.3741    3.5939    2.2175 H   0  0  0  0  0  0  0  0  0  0  0  0
   -0.9750    1.0274    0.1566 N   0  0  0  0  0  0  0  0  0  0  0  0
    0.2023    0.5266   -0.5070 C   0  0  2  0  0  0  0  0  0  0  0  0
    0.9668    1.7329   -1.0404 C   0  0  0  0  0  0  0  0  0  0  0  0
    1.6328    1.6999   -2.0729 O   0  0  0  0  0  0  0  0  0  0  0  0
   -0.1424   -0.4341   -1.6508 C   0  0  0  0  0  0  0  0  0  0  0  0
   -0.7626   -1.7214   -1.1650 C   0  0  0  0  0  0  0  0  0  0  0  0
    0.0485   -2.7459   -0.6768 C   0  0  0  0  0  0  0  0  0  0  0  0
   -2.1471   -1.8868   -1.2047 C   0  0  0  0  0  0  0  0  0  0  0  0
   -0.5249   -3.9357   -0.2283 C   0  0  0  0  0  0  0  0  0  0  0  0
   -2.7205   -3.0766   -0.7562 C   0  0  0  0  0  0  0  0  0  0  0  0
   -1.9093   -4.1011   -0.2680 C   0  0  0  0  0  0  0  0  0  0  0  0
   -2.4685   -5.2627    0.1685 O   0  0  0  0  0  0  0  0  0  0  0  0
   -1.7582    1.3241   -0.4207 H   0  0  0  0  0  0  0  0  0  0  0  0
    0.8064    0.0298    0.2612 H   0  0  0  0  0  0  0  0  0  0  0  0
    0.7550   -0.6572   -2.2437 H   0  0  0  0  0  0  0  0  0  0  0  0
   -0.8406    0.0403   -2.3530 H   0  0  0  0  0  0  0  0  0  0  0  0
    1.1279   -2.6256   -0.6422 H   0  0  0  0  0  0  0  0  0  0  0  0
   -2.7869   -1.0938   -1.5833 H   0  0  0  0  0  0  0  0  0  0  0  0
    0.1124   -4.7303    0.1506 H   0  0  0  0  0  0  0  0  0  0  0  0
   -3.7993   -3.1995   -0.7900 H   0  0  0  0  0  0  0  0  0  0  0  0
   -3.4341   -5.2260    0.0779 H   0  0  0  0  0  0  0  0  0  0  0  0
    0.7748    2.8595   -0.2528 N   0  0  0  0  0  0  0  0  0  0  0  0
    1.3678    4.1442   -0.5472 C   0  0  2  0  0  0  0  0  0  0  0  0
    2.8555    3.9301   -0.7933 C   0  0  0  0  0  0  0  0  0  0  0  0
    3.4731    2.9575   -0.3647 O   0  0  0  0  0  0  0  0  0  0  0  0
    1.1411    5.1314    0.5871 C   0  0  0  0  0  0  0  0  0  0  0  0
    0.1878    2.7770    0.5721 H   0  0  0  0  0  0  0  0  0  0  0  0
    0.8939    4.5083   -1.4653 H   0  0  0  0  0  0  0  0  0  0  0  0
    1.6088    4.7835    1.5154 H   0  0  0  0  0  0  0  0  0  0  0  0
    1.5661    6.1123    0.3503 H   0  0  0  0  0  0  0  0  0  0  0  0
    0.0712    5.2615    0.7825 H   0  0  0  0  0  0  0  0  0  0  0  0
    3.4213    4.9744   -1.5111 N   0  0  0  0  0  0  0  0  0  0  0  0
    4.8222    5.0112   -1.8608 C   0  0  0  0  0  0  0  0  0  0  0  0
    2.8301    5.7310   -1.8426 H   0  0  0  0  0  0  0  0  0  0  0  0
    5.3800    5.5568   -1.0854 H   0  0  0  0  0  0  0  0  0  0  0  0
    5.2083    3.9839   -1.9357 H   0  0  0  0  0  0  0  0  0  0  0  0
    4.9453    5.5206   -2.8279 H   0  0  0  0  0  0  0  0  0  0  0  0
 23 25  2  0  0  0  0
 22 23  1  0  0  0  0
 24 26  1  0  0  0  0
 22 24  2  0  0  0  0
 25 27  1  0  0  0  0
 26 27  2  0  0  0  0
 21 22  1  0  0  0  0
 27 28  1  0  0  0  0
  1  3  1  0  0  0  0
  1  7  1  0  0  0  0
  1  2  2  0  0  0  0
 39 40  1  0  0  0  0
 40 48  1  0  0  0  0
 40 41  2  0  0  0  0
  8  9  1  0  0  0  0
  9 17  1  0  0  0  0
  9 10  2  0  0  0  0
 18 19  1  0  0  0  0
 19 38  1  0  0  0  0
 19 20  2  0  0  0  0
 39 42  1  0  0  0  0
  8 11  1  0  0  0  0
 48 49  1  0  0  0  0
 18 21  1  0  0  0  0
 38 39  1  0  0  0  0
  7  8  1  0  0  0  0
 17 18  1  0  0  0  0
 23 33  1  0  0  0  0
 24 34  1  0  0  0  0
 25 35  1  0  0  0  0
 26 36  1  0  0  0  0
  3  4  1  0  0  0  0
  3  5  1  0  0  0  0
  3  6  1  0  0  0  0
 42 45  1  0  0  0  0
 42 46  1  0  0  0  0
 42 47  1  0  0  0  0
 11 14  1  0  0  0  0
 11 15  1  0  0  0  0
 11 16  1  0  0  0  0
 49 51  1  0  0  0  0
 49 52  1  0  0  0  0
 49 53  1  0  0  0  0
 21 31  1  0  0  0  0
 21 32  1  0  0  0  0
 39 44  1  0  0  0  0
  8 13  1  0  0  0  0
 18 30  1  0  0  0  0
 48 50  1  0  0  0  0
  7 12  1  0  0  0  0
 38 43  1  0  0  0  0
 17 29  1  0  0  0  0
 28 37  1  0  0  0  0
M  END
$$$$

  -OEChem-05262214473D

 53 53  0     1  0  0  0  0  0999 V2000
   -1.9298    0.2574    3.9747 C   0  0  0  0  0  0  0  0  0  0  0  0
   -0.9825   -0.3573    3.4990 O   0  0  0  0  0  0  0  0  0  0  0  0
   -2.3617   -0.0250    5.3754 C   0  0  0  0  0  0  0  0  0  0  0  0
   -3.1214   -0.8213    5.4288 H   0  0  0  0  0  0  0  0  0  0  0  0
   -1.5305   -0.3726    6.0097 H   0  0  0  0  0  0  0  0  0  0  0  0
   -2.7997    0.8299    5.9150 H   0  0  0  0  0  0  0  0  0  0  0  0
   -2.6795    1.2298    3.3336 N   0  0  0  0  0  0  0  0  0  0  0  0
   -2.4327    1.6559    1.9812 C   0  0  2  0  0  0  0  0  0  0  0  0
   -1.0977    1.0705    1.5400 C   0  0  0  0  0  0  0  0  0  0  0  0
   -0.2256    0.7177    2.3313 O   0  0  0  0  0  0  0  0  0  0  0  0
   -2.4239    3.1726    1.8718 C   0  0  0  0  0  0  0  0  0  0  0  0
   -3.4446    1.6657    3.8454 H   0  0  0  0  0  0  0  0  0  0  0  0
   -3.2368    1.2374    1.3661 H   0  0  0  0  0  0  0  0  0  0  0  0
   -1.6248    3.6099    2.4815 H   0  0  0  0  0  0  0  0  0  0  0  0
   -2.2644    3.4949    0.8375 H   0  0  0  0  0  0  0  0  0  0  0  0
   -3.3741    3.5939    2.2175 H   0  0  0  0  0  0  0  0  0  0  0  0
   -0.9750    1.0274    0.1566 N   0  0  0  0  0  0  0  0  0  0  0  0
    0.2023    0.5266   -0.5070 C   0  0  2  0  0  0  0  0  0  0  0  0
    0.9668    1.7329   -1.0404 C   0  0  0  0  0  0  0  0  0  0  0  0
    1.4071    1.7928   -2.1864 O   0  0  0  0  0  0  0  0  0  0  0  0
   -0.1424   -0.4341   -1.6508 C   0  0  0  0  0  0  0  0  0  0  0  0
   -0.7626   -1.7214   -1.1650 C   0  0  0  0  0  0  0  0  0  0  0  0
    0.0485   -2.7459   -0.6768 C   0  0  0  0  0  0  0  0  0  0  0  0
   -2.1471   -1.8868   -1.2047 C   0  0  0  0  0  0  0  0  0  0  0  0
   -0.5249   -3.9357   -0.2283 C   0  0  0  0  0  0  0  0  0  0  0  0
   -2.7205   -3.0766   -0.7562 C   0  0  0  0  0  0  0  0  0  0  0  0
   -1.9093   -4.1011   -0.2680 C   0  0  0  0  0  0  0  0  0  0  0  0
   -2.4685   -5.2627    0.1685 O   0  0  0  0  0  0  0  0  0  0  0  0
   -1.7582    1.3241   -0.4207 H   0  0  0  0  0  0  0  0  0  0  0  0
    0.8064    0.0298    0.2612 H   0  0  0  0  0  0  0  0  0  0  0  0
    0.7550   -0.6572   -2.2437 H   0  0  0  0  0  0  0  0  0  0  0  0
   -0.8406    0.0403   -2.3530 H   0  0  0  0  0  0  0  0  0  0  0  0
    1.1279   -2.6256   -0.6422 H   0  0  0  0  0  0  0  0  0  0  0  0
   -2.7869   -1.0938   -1.5833 H   0  0  0  0  0  0  0  0  0  0  0  0
    0.1124   -4.7303    0.1506 H   0  0  0  0  0  0  0  0  0  0  0  0
   -3.7993   -3.1995   -0.7900 H   0  0  0  0  0  0  0  0  0  0  0  0
   -3.4341   -5.2260    0.0779 H   0  0  0  0  0  0  0  0  0  0  0  0
    1.0535    2.7503   -0.1002 N   0  0  0  0  0  0  0  0  0  0  0  0
    1.7066    4.0139   -0.3563 C   0  0  2  0  0  0  0  0  0  0  0  0
    3.0851    3.7222   -0.9343 C   0  0  0  0  0  0  0  0  0  0  0  0
    3.6710    2.6548   -0.7658 O   0  0  0  0  0  0  0  0  0  0  0  0
    1.8138    4.8481    0.9108 C   0  0  0  0  0  0  0  0  0  0  0  0
    0.6369    2.5991    0.8138 H   0  0  0  0  0  0  0  0  0  0  0  0
    1.1001    4.5377   -1.1031 H   0  0  0  0  0  0  0  0  0  0  0  0
    2.4180    4.3394    1.6709 H   0  0  0  0  0  0  0  0  0  0  0  0
    2.2831    5.8167    0.7095 H   0  0  0  0  0  0  0  0  0  0  0  0
    0.8236    5.0317    1.3415 H   0  0  0  0  0  0  0  0  0  0  0  0
    3.6025    4.8096   -1.6242 N   0  0  0  0  0  0  0  0  0  0  0  0
    4.9019    4.7867   -2.2542 C   0  0  0  0  0  0  0  0  0  0  0  0
    3.0392    5.6482   -1.7300 H   0  0  0  0  0  0  0  0  0  0  0  0
    5.6564    5.1744   -1.5539 H   0  0  0  0  0  0  0  0  0  0  0  0
    5.1564    3.7532   -2.5319 H   0  0  0  0  0  0  0  0  0  0  0  0
    4.8827    5.4148   -3.1570 H   0  0  0  0  0  0  0  0  0  0  0  0
 23 25  2  0  0  0  0
 22 23  1  0  0  0  0
 24 26  1  0  0  0  0
 22 24  2  0  0  0  0
 25 27  1  0  0  0  0
 26 27  2  0  0  0  0
 21 22  1  0  0  0  0
 27 28  1  0  0  0  0
  1  3  1  0  0  0  0
  1  7  1  0  0  0  0
  1  2  2  0  0  0  0
 39 40  1  0  0  0  0
 40 48  1  0  0  0  0
 40 41  2  0  0  0  0
  8  9  1  0  0  0  0
  9 17  1  0  0  0  0
  9 10  2  0  0  0  0
 18 19  1  0  0  0  0
 19 38  1  0  0  0  0
 19 20  2  0  0  0  0
 39 42  1  0  0  0  0
  8 11  1  0  0  0  0
 48 49  1  0  0  0  0
 18 21  1  0  0  0  0
 38 39  1  0  0  0  0
  7  8  1  0  0  0  0
 17 18  1  0  0  0  0
 23 33  1  0  0  0  0
 24 34  1  0  0  0  0
 25 35  1  0  0  0  0
 26 36  1  0  0  0  0
  3  4  1  0  0  0  0
  3  5  1  0  0  0  0
  3  6  1  0  0  0  0
 42 45  1  0  0  0  0
 42 46  1  0  0  0  0
 42 47  1  0  0  0  0
 11 14  1  0  0  0  0
 11 15  1  0  0  0  0
 11 16  1  0  0  0  0
 49 51  1  0  0  0  0
 49 52  1  0  0  0  0
 49 53  1  0  0  0  0
 21 31  1  0  0  0  0
 21 32  1  0  0  0  0
 39 44  1  0  0  0  0
  8 13  1  0  0  0  0
 18 30  1  0  0  0  0
 48 50  1  0  0  0  0
  7 12  1  0  0  0  0
 38 43  1  0  0  0  0
 17 29  1  0  0  0  0
 28 37  1  0  0  0  0
M  END
$$$$

  -OEChem-05262214473D

 53 53  0     1  0  0  0  0  0999 V2000
   -1.9298    0.2574    3.9747 C   0  0  0  0  0  0  0  0  0  0  0  0
   -0.9825   -0.3573    3.4990 O   0  0  0  0  0  0  0  0  0  0  0  0
   -2.3617   -0.0250    5.3754 C   0  0  0  0  0  0  0  0  0  0  0  0
   -3.1214   -0.8213    5.4288 H   0  0  0  0  0  0  0  0  0  0  0  0
   -1.5305   -0.3726    6.0097 H   0  0  0  0  0  0  0  0  0  0  0  0
   -2.7997    0.8299    5.9150 H   0  0  0  0  0  0  0  0  0  0  0  0
   -2.6795    1.2298    3.3336 N   0  0  0  0  0  0  0  0  0  0  0  0
   -2.4327    1.6559    1.9812 C   0  0  2  0  0  0  0  0  0  0  0  0
   -1.0977    1.0705    1.5400 C   0  0  0  0  0  0  0  0  0  0  0  0
   -0.2256    0.7177    2.3313 O   0  0  0  0  0  0  0  0  0  0  0  0
   -2.4239    3.1726    1.8718 C   0  0  0  0  0  0  0  0  0  0  0  0
   -3.4446    1.6657    3.8454 H   0  0  0  0  0  0  0  0  0  0  0  0
   -3.2368    1.2374    1.3661 H   0  0  0  0  0  0  0  0  0  0  0  0
   -1.6248    3.6099    2.4815 H   0  0  0  0  0  0  0  0  0  0  0  0
   -2.2644    3.4949    0.8375 H   0  0  0  0  0  0  0  0  0  0  0  0
   -3.3741    3.5939    2.2175 H   0  0  0  0  0  0  0  0  0  0  0  0
   -0.9750    1.0274    0.1566 N   0  0  0  0  0  0  0  0  0  0  0  0
    0.2023    0.5266   -0.5070 C   0  0  2  0  0  0  0  0  0  0  0  0
    0.9668    1.7329   -1.0404 C   0  0  0  0  0  0  0  0  0  0  0  0
    1.1743    1.9177   -2.2377 O   0  0  0  0  0  0  0  0  0  0  0  0
   -0.1424   -0.4341   -1.6508 C   0  0  0  0  0  0  0  0  0  0  0  0
   -0.7626   -1.7214   -1.1650 C   0  0  0  0  0  0  0  0  0  0  0  0
    0.0485   -2.7459   -0.6768 C   0  0  0  0  0  0  0  0  0  0  0  0
   -2.1471   -1.8868   -1.2047 C   0  0  0  0  0  0  0  0  0  0  0  0
   -0.5249   -3.9357   -0.2283 C   0  0  0  0  0  0  0  0  0  0  0  0
   -2.7205   -3.0766   -0.7562 C   0  0  0  0  0  0  0  0  0  0  0  0
   -1.9093   -4.1011   -0.2680 C   0  0  0  0  0  0  0  0  0  0  0  0
   -2.4685   -5.2627    0.1685 O   0  0  0  0  0  0  0  0  0  0  0  0
   -1.7582    1.3241   -0.4207 H   0  0  0  0  0  0  0  0  0  0  0  0
    0.8064    0.0298    0.2612 H   0  0  0  0  0  0  0  0  0  0  0  0
    0.7550   -0.6572   -2.2437 H   0  0  0  0  0  0  0  0  0  0  0  0
   -0.8406    0.0403   -2.3530 H   0  0  0  0  0  0  0  0  0  0  0  0
    1.1279   -2.6256   -0.6422 H   0  0  0  0  0  0  0  0  0  0  0  0
   -2.7869   -1.0938   -1.5833 H   0  0  0  0  0  0  0  0  0  0  0  0
    0.1124   -4.7303    0.1506 H   0  0  0  0  0  0  0  0  0  0  0  0
   -3.7993   -3.1995   -0.7900 H   0  0  0  0  0  0  0  0  0  0  0  0
   -3.4341   -5.2260    0.0779 H   0  0  0  0  0  0  0  0  0  0  0  0
    1.3441    2.5998   -0.0241 N   0  0  0  0  0  0  0  0  0  0  0  0
    2.0611    3.8326   -0.2581 C   0  0  2  0  0  0  0  0  0  0  0  0
    3.2592    3.5189   -1.1445 C   0  0  0  0  0  0  0  0  0  0  0  0
    3.7525    2.3965   -1.2329 O   0  0  0  0  0  0  0  0  0  0  0  0
    2.5043    4.4715    1.0489 C   0  0  0  0  0  0  0  0  0  0  0  0
    1.1041    2.3554    0.9322 H   0  0  0  0  0  0  0  0  0  0  0  0
    1.3761    4.5005   -0.7917 H   0  0  0  0  0  0  0  0  0  0  0  0
    3.1912    3.8169    1.5977 H   0  0  0  0  0  0  0  0  0  0  0  0
    3.0224    5.4197    0.8714 H   0  0  0  0  0  0  0  0  0  0  0  0
    1.6441    4.6691    1.6975 H   0  0  0  0  0  0  0  0  0  0  0  0
    3.7394    4.6487   -1.7919 N   0  0  0  0  0  0  0  0  0  0  0  0
    4.8780    4.6137   -2.6797 C   0  0  0  0  0  0  0  0  0  0  0  0
    3.2566    5.5348   -1.6749 H   0  0  0  0  0  0  0  0  0  0  0  0
    5.7928    4.8409   -2.1127 H   0  0  0  0  0  0  0  0  0  0  0  0
    4.9632    3.6125   -3.1272 H   0  0  0  0  0  0  0  0  0  0  0  0
    4.7451    5.3610   -3.4759 H   0  0  0  0  0  0  0  0  0  0  0  0
 23 25  2  0  0  0  0
 22 23  1  0  0  0  0
 24 26  1  0  0  0  0
 22 24  2  0  0  0  0
 25 27  1  0  0  0  0
 26 27  2  0  0  0  0
 21 22  1  0  0  0  0
 27 28  1  0  0  0  0
  1  3  1  0  0  0  0
  1  7  1  0  0  0  0
  1  2  2  0  0  0  0
 39 40  1  0  0  0  0
 40 48  1  0  0  0  0
 40 41  2  0  0  0  0
  8  9  1  0  0  0  0
  9 17  1  0  0  0  0
  9 10  2  0  0  0  0
 18 19  1  0  0  0  0
 19 38  1  0  0  0  0
 19 20  2  0  0  0  0
 39 42  1  0  0  0  0
  8 11  1  0  0  0  0
 48 49  1  0  0  0  0
 18 21  1  0  0  0  0
 38 39  1  0  0  0  0
  7  8  1  0  0  0  0
 17 18  1  0  0  0  0
 23 33  1  0  0  0  0
 24 34  1  0  0  0  0
 25 35  1  0  0  0  0
 26 36  1  0  0  0  0
  3  4  1  0  0  0  0
  3  5  1  0  0  0  0
  3  6  1  0  0  0  0
 42 45  1  0  0  0  0
 42 46  1  0  0  0  0
 42 47  1  0  0  0  0
 11 14  1  0  0  0  0
 11 15  1  0  0  0  0
 11 16  1  0  0  0  0
 49 51  1  0  0  0  0
 49 52  1  0  0  0  0
 49 53  1  0  0  0  0
 21 31  1  0  0  0  0
 21 32  1  0  0  0  0
 39 44  1  0  0  0  0
  8 13  1  0  0  0  0
 18 30  1  0  0  0  0
 48 50  1  0  0  0  0
  7 12  1  0  0  0  0
 38 43  1  0  0  0  0
 17 29  1  0  0  0  0
 28 37  1  0  0  0  0
M  END
$$$$

  -OEChem-05262214473D

 53 53  0     1  0  0  0  0  0999 V2000
   -1.9298    0.2574    3.9747 C   0  0  0  0  0  0  0  0  0  0  0  0
   -0.9825   -0.3573    3.4990 O   0  0  0  0  0  0  0  0  0  0  0  0
   -2.3617   -0.0250    5.3754 C   0  0  0  0  0  0  0  0  0  0  0  0
   -3.1214   -0.8213    5.4288 H   0  0  0  0  0  0  0  0  0  0  0  0
   -1.5305   -0.3726    6.0097 H   0  0  0  0  0  0  0  0  0  0  0  0
   -2.7997    0.8299    5.9150 H   0  0  0  0  0  0  0  0  0  0  0  0
   -2.6795    1.2298    3.3336 N   0  0  0  0  0  0  0  0  0  0  0  0
   -2.4327    1.6559    1.9812 C   0  0  2  0  0  0  0  0  0  0  0  0
   -1.0977    1.0705    1.5400 C   0  0  0  0  0  0  0  0  0  0  0  0
   -0.2256    0.7177    2.3313 O   0  0  0  0  0  0  0  0  0  0  0  0
   -2.4239    3.1726    1.8718 C   0  0  0  0  0  0  0  0  0  0  0  0
   -3.4446    1.6657    3.8454 H   0  0  0  0  0  0  0  0  0  0  0  0
   -3.2368    1.2374    1.3661 H   0  0  0  0  0  0  0  0  0  0  0  0
   -1.6248    3.6099    2.4815 H   0  0  0  0  0  0  0  0  0  0  0  0
   -2.2644    3.4949    0.8375 H   0  0  0  0  0  0  0  0  0  0  0  0
   -3.3741    3.5939    2.2175 H   0  0  0  0  0  0  0  0  0  0  0  0
   -0.9750    1.0274    0.1566 N   0  0  0  0  0  0  0  0  0  0  0  0
    0.2023    0.5266   -0.5070 C   0  0  2  0  0  0  0  0  0  0  0  0
    0.9668    1.7329   -1.0404 C   0  0  0  0  0  0  0  0  0  0  0  0
    0.9502    2.0661   -2.2234 O   0  0  0  0  0  0  0  0  0  0  0  0
   -0.1424   -0.4341   -1.6508 C   0  0  0  0  0  0  0  0  0  0  0  0
   -0.7626   -1.7214   -1.1650 C   0  0  0  0  0  0  0  0  0  0  0  0
    0.0485   -2.7459   -0.6768 C   0  0  0  0  0  0  0  0  0  0  0  0
   -2.1471   -1.8868   -1.2047 C   0  0  0  0  0  0  0  0  0  0  0  0
   -0.5249   -3.9357   -0.2283 C   0  0  0  0  0  0  0  0  0  0  0  0
   -2.7205   -3.0766   -0.7562 C   0  0  0  0  0  0  0  0  0  0  0  0
   -1.9093   -4.1011   -0.2680 C   0  0  0  0  0  0  0  0  0  0  0  0
   -2.4685   -5.2627    0.1685 O   0  0  0  0  0  0  0  0  0  0  0  0
   -1.7582    1.3241   -0.4207 H   0  0  0  0  0  0  0  0  0  0  0  0
    0.8064    0.0298    0.2612 H   0  0  0  0  0  0  0  0  0  0  0  0
    0.7550   -0.6572   -2.2437 H   0  0  0  0  0  0  0  0  0  0  0  0
   -0.8406    0.0403   -2.3530 H   0  0  0  0  0  0  0  0  0  0  0  0
    1.1279   -2.6256   -0.6422 H   0  0  0  0  0  0  0  0  0  0  0  0
   -2.7869   -1.0938   -1.5833 H   0  0  0  0  0  0  0  0  0  0  0  0
    0.1124   -4.7303    0.1506 H   0  0  0  0  0  0  0  0  0  0  0  0
   -3.7993   -3.1995   -0.7900 H   0  0  0  0  0  0  0  0  0  0  0  0
   -3.4341   -5.2260    0.0779 H   0  0  0  0  0  0  0  0  0  0  0  0
    1.6267    2.4182   -0.0297 N   0  0  0  0  0  0  0  0  0  0  0  0
    2.4072    3.6127   -0.2593 C   0  0  2  0  0  0  0  0  0  0  0  0
    3.3659    3.3341   -1.4095 C   0  0  0  0  0  0  0  0  0  0  0  0
    3.7123    2.2003   -1.7344 O   0  0  0  0  0  0  0  0  0  0  0  0
    3.1655    4.0273    0.9920 C   0  0  0  0  0  0  0  0  0  0  0  0
    1.5575    2.0622    0.9192 H   0  0  0  0  0  0  0  0  0  0  0  0
    1.7031    4.3991   -0.5523 H   0  0  0  0  0  0  0  0  0  0  0  0
    3.8759    3.2517    1.3008 H   0  0  0  0  0  0  0  0  0  0  0  0
    3.7337    4.9482    0.8247 H   0  0  0  0  0  0  0  0  0  0  0  0
    2.4767    4.1983    1.8263 H   0  0  0  0  0  0  0  0  0  0  0  0
    3.8227    4.5027   -2.0028 N   0  0  0  0  0  0  0  0  0  0  0  0
    4.7521    4.5040   -3.1083 C   0  0  0  0  0  0  0  0  0  0  0  0
    3.4677    5.3983   -1.6809 H   0  0  0  0  0  0  0  0  0  0  0  0
    5.7800    4.5789   -2.7237 H   0  0  0  0  0  0  0  0  0  0  0  0
    4.6420    3.5713   -3.6809 H   0  0  0  0  0  0  0  0  0  0  0  0
    4.5421    5.3629   -3.7627 H   0  0  0  0  0  0  0  0  0  0  0  0
 23 25  2  0  0  0  0
 22 23  1  0  0  0  0
 24 26  1  0  0  0  0
 22 24  2  0  0  0  0
 25 27  1  0  0  0  0
 26 27  2  0  0  0  0
 21 22  1  0  0  0  0
 27 28  1  0  0  0  0
  1  3  1  0  0  0  0
  1  7  1  0  0  0  0
  1  2  2  0  0  0  0
 39 40  1  0  0  0  0
 40 48  1  0  0  0  0
 40 41  2  0  0  0  0
  8  9  1  0  0  0  0
  9 17  1  0  0  0  0
  9 10  2  0  0  0  0
 18 19  1  0  0  0  0
 19 38  1  0  0  0  0
 19 20  2  0  0  0  0
 39 42  1  0  0  0  0
  8 11  1  0  0  0  0
 48 49  1  0  0  0  0
 18 21  1  0  0  0  0
 38 39  1  0  0  0  0
  7  8  1  0  0  0  0
 17 18  1  0  0  0  0
 23 33  1  0  0  0  0
 24 34  1  0  0  0  0
 25 35  1  0  0  0  0
 26 36  1  0  0  0  0
  3  4  1  0  0  0  0
  3  5  1  0  0  0  0
  3  6  1  0  0  0  0
 42 45  1  0  0  0  0
 42 46  1  0  0  0  0
 42 47  1  0  0  0  0
 11 14  1  0  0  0  0
 11 15  1  0  0  0  0
 11 16  1  0  0  0  0
 49 51  1  0  0  0  0
 49 52  1  0  0  0  0
 49 53  1  0  0  0  0
 21 31  1  0  0  0  0
 21 32  1  0  0  0  0
 39 44  1  0  0  0  0
  8 13  1  0  0  0  0
 18 30  1  0  0  0  0
 48 50  1  0  0  0  0
  7 12  1  0  0  0  0
 38 43  1  0  0  0  0
 17 29  1  0  0  0  0
 28 37  1  0  0  0  0
M  END
$$$$

  -OEChem-05262214473D

 53 53  0     1  0  0  0  0  0999 V2000
   -1.9298    0.2574    3.9747 C   0  0  0  0  0  0  0  0  0  0  0  0
   -0.9825   -0.3573    3.4990 O   0  0  0  0  0  0  0  0  0  0  0  0
   -2.3617   -0.0250    5.3754 C   0  0  0  0  0  0  0  0  0  0  0  0
   -3.1214   -0.8213    5.4288 H   0  0  0  0  0  0  0  0  0  0  0  0
   -1.5305   -0.3726    6.0097 H   0  0  0  0  0  0  0  0  0  0  0  0
   -2.7997    0.8299    5.9150 H   0  0  0  0  0  0  0  0  0  0  0  0
   -2.6795    1.2298    3.3336 N   0  0  0  0  0  0  0  0  0  0  0  0
   -2.4327    1.6559    1.9812 C   0  0  2  0  0  0  0  0  0  0  0  0
   -1.0977    1.0705    1.5400 C   0  0  0  0  0  0  0  0  0  0  0  0
   -0.2256    0.7177    2.3313 O   0  0  0  0  0  0  0  0  0  0  0  0
   -2.4239    3.1726    1.8718 C   0  0  0  0  0  0  0  0  0  0  0  0
   -3.4446    1.6657    3.8454 H   0  0  0  0  0  0  0  0  0  0  0  0
   -3.2368    1.2374    1.3661 H   0  0  0  0  0  0  0  0  0  0  0  0
   -1.6248    3.6099    2.4815 H   0  0  0  0  0  0  0  0  0  0  0  0
   -2.2644    3.4949    0.8375 H   0  0  0  0  0  0  0  0  0  0  0  0
   -3.3741    3.5939    2.2175 H   0  0  0  0  0  0  0  0  0  0  0  0
   -0.9750    1.0274    0.1566 N   0  0  0  0  0  0  0  0  0  0  0  0
    0.2023    0.5266   -0.5070 C   0  0  2  0  0  0  0  0  0  0  0  0
    0.9668    1.7329   -1.0404 C   0  0  0  0  0  0  0  0  0  0  0  0
    0.7500    2.2278   -2.1444 O   0  0  0  0  0  0  0  0  0  0  0  0
   -0.1424   -0.4341   -1.6508 C   0  0  0  0  0  0  0  0  0  0  0  0
   -0.7626   -1.7214   -1.1650 C   0  0  0  0  0  0  0  0  0  0  0  0
    0.0485   -2.7459   -0.6768 C   0  0  0  0  0  0  0  0  0  0  0  0
   -2.1471   -1.8868   -1.2047 C   0  0  0  0  0  0  0  0  0  0  0  0
   -0.5249   -3.9357   -0.2283 C   0  0  0  0  0  0  0  0  0  0  0  0
   -2.7205   -3.0766   -0.7562 C   0  0  0  0  0  0  0  0  0  0  0  0
   -1.9093   -4.1011   -0.2680 C   0  0  0  0  0  0  0  0  0  0  0  0
   -2.4685   -5.2627    0.1685 O   0  0  0  0  0  0  0  0  0  0  0  0
   -1.7582    1.3241   -0.4207 H   0  0  0  0  0  0  0  0  0  0  0  0
    0.8064    0.0298    0.2612 H   0  0  0  0  0  0  0  0  0  0  0  0
    0.7550   -0.6572   -2.2437 H   0  0  0  0  0  0  0  0  0  0  0  0
   -0.8406    0.0403   -2.3530 H   0  0  0  0  0  0  0  0  0  0  0  0
    1.1279   -2.6256   -0.6422 H   0  0  0  0  0  0  0  0  0  0  0  0
   -2.7869   -1.0938   -1.5833 H   0  0  0  0  0  0  0  0  0  0  0  0
    0.1124   -4.7303    0.1506 H   0  0  0  0  0  0  0  0  0  0  0  0
   -3.7993   -3.1995   -0.7900 H   0  0  0  0  0  0  0  0  0  0  0  0
   -3.4341   -5.2260    0.0779 H   0  0  0  0  0  0  0  0  0  0  0  0
    1.8821    2.2179   -0.1165 N   0  0  0  0  0  0  0  0  0  0  0  0
    2.7214    3.3690   -0.3600 C   0  0  2  0  0  0  0  0  0  0  0  0
    3.3979    3.1804   -1.7114 C   0  0  0  0  0  0  0  0  0  0  0  0
    3.5529    2.0796   -2.2361 O   0  0  0  0  0  0  0  0  0  0  0  0
    3.7522    3.5457    0.7440 C   0  0  0  0  0  0  0  0  0  0  0  0
    1.9663    1.7397    0.7757 H   0  0  0  0  0  0  0  0  0  0  0  0
    2.0588    4.2404   -0.4011 H   0  0  0  0  0  0  0  0  0  0  0  0
    4.4252    2.6823    0.8005 H   0  0  0  0  0  0  0  0  0  0  0  0
    4.3686    4.4345    0.5728 H   0  0  0  0  0  0  0  0  0  0  0  0
    3.2647    3.6515    1.7191 H   0  0  0  0  0  0  0  0  0  0  0  0
    3.8467    4.3814   -2.2425 N   0  0  0  0  0  0  0  0  0  0  0  0
    4.5328    4.4651   -3.5107 C   0  0  0  0  0  0  0  0  0  0  0  0
    3.6580    5.2482   -1.7477 H   0  0  0  0  0  0  0  0  0  0  0  0
    5.6187    4.4063   -3.3453 H   0  0  0  0  0  0  0  0  0  0  0  0
    4.2146    3.6324   -4.1552 H   0  0  0  0  0  0  0  0  0  0  0  0
    4.2875    5.4203   -3.9979 H   0  0  0  0  0  0  0  0  0  0  0  0
 23 25  2  0  0  0  0
 22 23  1  0  0  0  0
 24 26  1  0  0  0  0
 22 24  2  0  0  0  0
 25 27  1  0  0  0  0
 26 27  2  0  0  0  0
 21 22  1  0  0  0  0
 27 28  1  0  0  0  0
  1  3  1  0  0  0  0
  1  7  1  0  0  0  0
  1  2  2  0  0  0  0
 39 40  1  0  0  0  0
 40 48  1  0  0  0  0
 40 41  2  0  0  0  0
  8  9  1  0  0  0  0
  9 17  1  0  0  0  0
  9 10  2  0  0  0  0
 18 19  1  0  0  0  0
 19 38  1  0  0  0  0
 19 20  2  0  0  0  0
 39 42  1  0  0  0  0
  8 11  1  0  0  0  0
 48 49  1  0  0  0  0
 18 21  1  0  0  0  0
 38 39  1  0  0  0  0
  7  8  1  0  0  0  0
 17 18  1  0  0  0  0
 23 33  1  0  0  0  0
 24 34  1  0  0  0  0
 25 35  1  0  0  0  0
 26 36  1  0  0  0  0
  3  4  1  0  0  0  0
  3  5  1  0  0  0  0
  3  6  1  0  0  0  0
 42 45  1  0  0  0  0
 42 46  1  0  0  0  0
 42 47  1  0  0  0  0
 11 14  1  0  0  0  0
 11 15  1  0  0  0  0
 11 16  1  0  0  0  0
 49 51  1  0  0  0  0
 49 52  1  0  0  0  0
 49 53  1  0  0  0  0
 21 31  1  0  0  0  0
 21 32  1  0  0  0  0
 39 44  1  0  0  0  0
  8 13  1  0  0  0  0
 18 30  1  0  0  0  0
 48 50  1  0  0  0  0
  7 12  1  0  0  0  0
 38 43  1  0  0  0  0
 17 29  1  0  0  0  0
 28 37  1  0  0  0  0
M  END
$$$$

  -OEChem-05262214473D

 53 53  0     1  0  0  0  0  0999 V2000
   -1.9298    0.2574    3.9747 C   0  0  0  0  0  0  0  0  0  0  0  0
   -0.9825   -0.3573    3.4990 O   0  0  0  0  0  0  0  0  0  0  0  0
   -2.3617   -0.0250    5.3754 C   0  0  0  0  0  0  0  0  0  0  0  0
   -3.1214   -0.8213    5.4288 H   0  0  0  0  0  0  0  0  0  0  0  0
   -1.5305   -0.3726    6.0097 H   0  0  0  0  0  0  0  0  0  0  0  0
   -2.7997    0.8299    5.9150 H   0  0  0  0  0  0  0  0  0  0  0  0
   -2.6795    1.2298    3.3336 N   0  0  0  0  0  0  0  0  0  0  0  0
   -2.4327    1.6559    1.9812 C   0  0  2  0  0  0  0  0  0  0  0  0
   -1.0977    1.0705    1.5400 C   0  0  0  0  0  0  0  0  0  0  0  0
   -0.2256    0.7177    2.3313 O   0  0  0  0  0  0  0  0  0  0  0  0
   -2.4239    3.1726    1.8718 C   0  0  0  0  0  0  0  0  0  0  0  0
   -3.4446    1.6657    3.8454 H   0  0  0  0  0  0  0  0  0  0  0  0
   -3.2368    1.2374    1.3661 H   0  0  0  0  0  0  0  0  0  0  0  0
   -1.6248    3.6099    2.4815 H   0  0  0  0  0  0  0  0  0  0  0  0
   -2.2644    3.4949    0.8375 H   0  0  0  0  0  0  0  0  0  0  0  0
   -3.3741    3.5939    2.2175 H   0  0  0  0  0  0  0  0  0  0  0  0
   -0.9750    1.0274    0.1566 N   0  0  0  0  0  0  0  0  0  0  0  0
    0.2023    0.5266   -0.5070 C   0  0  2  0  0  0  0  0  0  0  0  0
    0.9668    1.7329   -1.0404 C   0  0  0  0  0  0  0  0  0  0  0  0
    0.5876    2.3919   -2.0061 O   0  0  0  0  0  0  0  0  0  0  0  0
   -0.1424   -0.4341   -1.6508 C   0  0  0  0  0  0  0  0  0  0  0  0
   -0.7626   -1.7214   -1.1650 C   0  0  0  0  0  0  0  0  0  0  0  0
    0.0485   -2.7459   -0.6768 C   0  0  0  0  0  0  0  0  0  0  0  0
   -2.1471   -1.8868   -1.2047 C   0  0  0  0  0  0  0  0  0  0  0  0
   -0.5249   -3.9357   -0.2283 C   0  0  0  0  0  0  0  0  0  0  0  0
   -2.7205   -3.0766   -0.7562 C   0  0  0  0  0  0  0  0  0  0  0  0
   -1.9093   -4.1011   -0.2680 C   0  0  0  0  0  0  0  0  0  0  0  0
   -2.4685   -5.2627    0.1685 O   0  0  0  0  0  0  0  0  0  0  0  0
   -1.7582    1.3241   -0.4207 H   0  0  0  0  0  0  0  0  0  0  0  0
    0.8064    0.0298    0.2612 H   0  0  0  0  0  0  0  0  0  0  0  0
    0.7550   -0.6572   -2.2437 H   0  0  0  0  0  0  0  0  0  0  0  0
   -0.8406    0.0403   -2.3530 H   0  0  0  0  0  0  0  0  0  0  0  0
    1.1279   -2.6256   -0.6422 H   0  0  0  0  0  0  0  0  0  0  0  0
   -2.7869   -1.0938   -1.5833 H   0  0  0  0  0  0  0  0  0  0  0  0
    0.1124   -4.7303    0.1506 H   0  0  0  0  0  0  0  0  0  0  0  0
   -3.7993   -3.1995   -0.7900 H   0  0  0  0  0  0  0  0  0  0  0  0
   -3.4341   -5.2260    0.0779 H   0  0  0  0  0  0  0  0  0  0  0  0
    2.0929    2.0126   -0.2786 N   0  0  0  0  0  0  0  0  0  0  0  0
    2.9821    3.1183   -0.5532 C   0  0  2  0  0  0  0  0  0  0  0  0
    3.3531    3.0681   -2.0295 C   0  0  0  0  0  0  0  0  0  0  0  0
    3.2853    2.0425   -2.7037 O   0  0  0  0  0  0  0  0  0  0  0  0
    4.2246    3.0596    0.3218 C   0  0  0  0  0  0  0  0  0  0  0  0
    2.3026    1.4098    0.5116 H   0  0  0  0  0  0  0  0  0  0  0  0
    2.4190    4.0354   -0.3486 H   0  0  0  0  0  0  0  0  0  0  0  0
    4.8018    2.1476    0.1308 H   0  0  0  0  0  0  0  0  0  0  0  0
    4.8837    3.9134    0.1328 H   0  0  0  0  0  0  0  0  0  0  0  0
    3.9544    3.0658    1.3832 H   0  0  0  0  0  0  0  0  0  0  0  0
    3.8099    4.2933   -2.4948 N   0  0  0  0  0  0  0  0  0  0  0  0
    4.2351    4.4996   -3.8596 C   0  0  0  0  0  0  0  0  0  0  0  0
    3.8146    5.0946   -1.8706 H   0  0  0  0  0  0  0  0  0  0  0  0
    5.3200    4.3349   -3.9350 H   0  0  0  0  0  0  0  0  0  0  0  0
    3.7102    3.7918   -4.5180 H   0  0  0  0  0  0  0  0  0  0  0  0
    3.9985    5.5294   -4.1654 H   0  0  0  0  0  0  0  0  0  0  0  0
 23 25  2  0  0  0  0
 22 23  1  0  0  0  0
 24 26  1  0  0  0  0
 22 24  2  0  0  0  0
 25 27  1  0  0  0  0
 26 27  2  0  0  0  0
 21 22  1  0  0  0  0
 27 28  1  0  0  0  0
  1  3  1  0  0  0  0
  1  7  1  0  0  0  0
  1  2  2  0  0  0  0
 39 40  1  0  0  0  0
 40 48  1  0  0  0  0
 40 41  2  0  0  0  0
  8  9  1  0  0  0  0
  9 17  1  0  0  0  0
  9 10  2  0  0  0  0
 18 19  1  0  0  0  0
 19 38  1  0  0  0  0
 19 20  2  0  0  0  0
 39 42  1  0  0  0  0
  8 11  1  0  0  0  0
 48 49  1  0  0  0  0
 18 21  1  0  0  0  0
 38 39  1  0  0  0  0
  7  8  1  0  0  0  0
 17 18  1  0  0  0  0
 23 33  1  0  0  0  0
 24 34  1  0  0  0  0
 25 35  1  0  0  0  0
 26 36  1  0  0  0  0
  3  4  1  0  0  0  0
  3  5  1  0  0  0  0
  3  6  1  0  0  0  0
 42 45  1  0  0  0  0
 42 46  1  0  0  0  0
 42 47  1  0  0  0  0
 11 14  1  0  0  0  0
 11 15  1  0  0  0  0
 11 16  1  0  0  0  0
 49 51  1  0  0  0  0
 49 52  1  0  0  0  0
 49 53  1  0  0  0  0
 21 31  1  0  0  0  0
 21 32  1  0  0  0  0
 39 44  1  0  0  0  0
  8 13  1  0  0  0  0
 18 30  1  0  0  0  0
 48 50  1  0  0  0  0
  7 12  1  0  0  0  0
 38 43  1  0  0  0  0
 17 29  1  0  0  0  0
 28 37  1  0  0  0  0
M  END
$$$$

  -OEChem-05262214473D

 53 53  0     1  0  0  0  0  0999 V2000
   -1.9298    0.2574    3.9747 C   0  0  0  0  0  0  0  0  0  0  0  0
   -0.9825   -0.3573    3.4990 O   0  0  0  0  0  0  0  0  0  0  0  0
   -2.3617   -0.0250    5.3754 C   0  0  0  0  0  0  0  0  0  0  0  0
   -3.1214   -0.8213    5.4288 H   0  0  0  0  0  0  0  0  0  0  0  0
   -1.5305   -0.3726    6.0097 H   0  0  0  0  0  0  0  0  0  0  0  0
   -2.7997    0.8299    5.9150 H   0  0  0  0  0  0  0  0  0  0  0  0
   -2.6795    1.2298    3.3336 N   0  0  0  0  0  0  0  0  0  0  0  0
   -2.4327    1.6559    1.9812 C   0  0  2  0  0  0  0  0  0  0  0  0
   -1.0977    1.0705    1.5400 C   0  0  0  0  0  0  0  0  0  0  0  0
   -0.2256    0.7177    2.3313 O   0  0  0  0  0  0  0  0  0  0  0  0
   -2.4239    3.1726    1.8718 C   0  0  0  0  0  0  0  0  0  0  0  0
   -3.4446    1.6657    3.8454 H   0  0  0  0  0  0  0  0  0  0  0  0
   -3.2368    1.2374    1.3661 H   0  0  0  0  0  0  0  0  0  0  0  0
   -1.6248    3.6099    2.4815 H   0  0  0  0  0  0  0  0  0  0  0  0
   -2.2644    3.4949    0.8375 H   0  0  0  0  0  0  0  0  0  0  0  0
   -3.3741    3.5939    2.2175 H   0  0  0  0  0  0  0  0  0  0  0  0
   -0.9750    1.0274    0.1566 N   0  0  0  0  0  0  0  0  0  0  0  0
    0.2023    0.5266   -0.5070 C   0  0  2  0  0  0  0  0  0  0  0  0
    0.9668    1.7329   -1.0404 C   0  0  0  0  0  0  0  0  0  0  0  0
    0.4738    2.5472   -1.8180 O   0  0  0  0  0  0  0  0  0  0  0  0
   -0.1424   -0.4341   -1.6508 C   0  0  0  0  0  0  0  0  0  0  0  0
   -0.7626   -1.7214   -1.1650 C   0  0  0  0  0  0  0  0  0  0  0  0
    0.0485   -2.7459   -0.6768 C   0  0  0  0  0  0  0  0  0  0  0  0
   -2.1471   -1.8868   -1.2047 C   0  0  0  0  0  0  0  0  0  0  0  0
   -0.5249   -3.9357   -0.2283 C   0  0  0  0  0  0  0  0  0  0  0  0
   -2.7205   -3.0766   -0.7562 C   0  0  0  0  0  0  0  0  0  0  0  0
   -1.9093   -4.1011   -0.2680 C   0  0  0  0  0  0  0  0  0  0  0  0
   -2.4685   -5.2627    0.1685 O   0  0  0  0  0  0  0  0  0  0  0  0
   -1.7582    1.3241   -0.4207 H   0  0  0  0  0  0  0  0  0  0  0  0
    0.8064    0.0298    0.2612 H   0  0  0  0  0  0  0  0  0  0  0  0
    0.7550   -0.6572   -2.2437 H   0  0  0  0  0  0  0  0  0  0  0  0
   -0.8406    0.0403   -2.3530 H   0  0  0  0  0  0  0  0  0  0  0  0
    1.1279   -2.6256   -0.6422 H   0  0  0  0  0  0  0  0  0  0  0  0
   -2.7869   -1.0938   -1.5833 H   0  0  0  0  0  0  0  0  0  0  0  0
    0.1124   -4.7303    0.1506 H   0  0  0  0  0  0  0  0  0  0  0  0
   -3.7993   -3.1995   -0.7900 H   0  0  0  0  0  0  0  0  0  0  0  0
   -3.4341   -5.2260    0.0779 H   0  0  0  0  0  0  0  0  0  0  0  0
    2.2447    1.8162   -0.5051 N   0  0  0  0  0  0  0  0  0  0  0  0
    3.1718    2.8776   -0.8258 C   0  0  2  0  0  0  0  0  0  0  0  0
    3.2346    3.0050   -2.3421 C   0  0  0  0  0  0  0  0  0  0  0  0
    2.9277    2.0915   -3.1053 O   0  0  0  0  0  0  0  0  0  0  0  0
    4.5504    2.6022   -0.2459 C   0  0  0  0  0  0  0  0  0  0  0  0
    2.5435    1.0949    0.1447 H   0  0  0  0  0  0  0  0  0  0  0  0
    2.7591    3.7979   -0.3982 H   0  0  0  0  0  0  0  0  0  0  0  0
    4.9799    1.6838   -0.6626 H   0  0  0  0  0  0  0  0  0  0  0  0
    5.2439    3.4206   -0.4654 H   0  0  0  0  0  0  0  0  0  0  0  0
    4.4988    2.4813    0.8415 H   0  0  0  0  0  0  0  0  0  0  0  0
    3.7147    4.2442   -2.7423 N   0  0  0  0  0  0  0  0  0  0  0  0
    3.8791    4.6052   -4.1311 C   0  0  0  0  0  0  0  0  0  0  0  0
    3.9267    4.9480   -2.0413 H   0  0  0  0  0  0  0  0  0  0  0  0
    4.9043    4.3695   -4.4528 H   0  0  0  0  0  0  0  0  0  0  0  0
    3.1631    4.0385   -4.7444 H   0  0  0  0  0  0  0  0  0  0  0  0
    3.6949    5.6827   -4.2540 H   0  0  0  0  0  0  0  0  0  0  0  0
 23 25  2  0  0  0  0
 22 23  1  0  0  0  0
 24 26  1  0  0  0  0
 22 24  2  0  0  0  0
 25 27  1  0  0  0  0
 26 27  2  0  0  0  0
 21 22  1  0  0  0  0
 27 28  1  0  0  0  0
  1  3  1  0  0  0  0
  1  7  1  0  0  0  0
  1  2  2  0  0  0  0
 39 40  1  0  0  0  0
 40 48  1  0  0  0  0
 40 41  2  0  0  0  0
  8  9  1  0  0  0  0
  9 17  1  0  0  0  0
  9 10  2  0  0  0  0
 18 19  1  0  0  0  0
 19 38  1  0  0  0  0
 19 20  2  0  0  0  0
 39 42  1  0  0  0  0
  8 11  1  0  0  0  0
 48 49  1  0  0  0  0
 18 21  1  0  0  0  0
 38 39  1  0  0  0  0
  7  8  1  0  0  0  0
 17 18  1  0  0  0  0
 23 33  1  0  0  0  0
 24 34  1  0  0  0  0
 25 35  1  0  0  0  0
 26 36  1  0  0  0  0
  3  4  1  0  0  0  0
  3  5  1  0  0  0  0
  3  6  1  0  0  0  0
 42 45  1  0  0  0  0
 42 46  1  0  0  0  0
 42 47  1  0  0  0  0
 11 14  1  0  0  0  0
 11 15  1  0  0  0  0
 11 16  1  0  0  0  0
 49 51  1  0  0  0  0
 49 52  1  0  0  0  0
 49 53  1  0  0  0  0
 21 31  1  0  0  0  0
 21 32  1  0  0  0  0
 39 44  1  0  0  0  0
  8 13  1  0  0  0  0
 18 30  1  0  0  0  0
 48 50  1  0  0  0  0
  7 12  1  0  0  0  0
 38 43  1  0  0  0  0
 17 29  1  0  0  0  0
 28 37  1  0  0  0  0
M  END
$$$$

  -OEChem-05262214473D

 53 53  0     1  0  0  0  0  0999 V2000
   -1.9298    0.2574    3.9747 C   0  0  0  0  0  0  0  0  0  0  0  0
   -0.9825   -0.3573    3.4990 O   0  0  0  0  0  0  0  0  0  0  0  0
   -2.3617   -0.0250    5.3754 C   0  0  0  0  0  0  0  0  0  0  0  0
   -3.1214   -0.8213    5.4288 H   0  0  0  0  0  0  0  0  0  0  0  0
   -1.5305   -0.3726    6.0097 H   0  0  0  0  0  0  0  0  0  0  0  0
   -2.7997    0.8299    5.9150 H   0  0  0  0  0  0  0  0  0  0  0  0
   -2.6795    1.2298    3.3336 N   0  0  0  0  0  0  0  0  0  0  0  0
   -2.4327    1.6559    1.9812 C   0  0  2  0  0  0  0  0  0  0  0  0
   -1.0977    1.0705    1.5400 C   0  0  0  0  0  0  0  0  0  0  0  0
   -0.2256    0.7177    2.3313 O   0  0  0  0  0  0  0  0  0  0  0  0
   -2.4239    3.1726    1.8718 C   0  0  0  0  0  0  0  0  0  0  0  0
   -3.4446    1.6657    3.8454 H   0  0  0  0  0  0  0  0  0  0  0  0
   -3.2368    1.2374    1.3661 H   0  0  0  0  0  0  0  0  0  0  0  0
   -1.6248    3.6099    2.4815 H   0  0  0  0  0  0  0  0  0  0  0  0
   -2.2644    3.4949    0.8375 H   0  0  0  0  0  0  0  0  0  0  0  0
   -3.3741    3.5939    2.2175 H   0  0  0  0  0  0  0  0  0  0  0  0
   -0.9750    1.0274    0.1566 N   0  0  0  0  0  0  0  0  0  0  0  0
    0.2023    0.5266   -0.5070 C   0  0  2  0  0  0  0  0  0  0  0  0
    0.9668    1.7329   -1.0404 C   0  0  0  0  0  0  0  0  0  0  0  0
    0.4165    2.6831   -1.5928 O   0  0  0  0  0  0  0  0  0  0  0  0
   -0.1424   -0.4341   -1.6508 C   0  0  0  0  0  0  0  0  0  0  0  0
   -0.7626   -1.7214   -1.1650 C   0  0  0  0  0  0  0  0  0  0  0  0
    0.0485   -2.7459   -0.6768 C   0  0  0  0  0  0  0  0  0  0  0  0
   -2.1471   -1.8868   -1.2047 C   0  0  0  0  0  0  0  0  0  0  0  0
   -0.5249   -3.9357   -0.2283 C   0  0  0  0  0  0  0  0  0  0  0  0
   -2.7205   -3.0766   -0.7562 C   0  0  0  0  0  0  0  0  0  0  0  0
   -1.9093   -4.1011   -0.2680 C   0  0  0  0  0  0  0  0  0  0  0  0
   -2.4685   -5.2627    0.1685 O   0  0  0  0  0  0  0  0  0  0  0  0
   -1.7582    1.3241   -0.4207 H   0  0  0  0  0  0  0  0  0  0  0  0
    0.8064    0.0298    0.2612 H   0  0  0  0  0  0  0  0  0  0  0  0
    0.7550   -0.6572   -2.2437 H   0  0  0  0  0  0  0  0  0  0  0  0
   -0.8406    0.0403   -2.3530 H   0  0  0  0  0  0  0  0  0  0  0  0
    1.1279   -2.6256   -0.6422 H   0  0  0  0  0  0  0  0  0  0  0  0
   -2.7869   -1.0938   -1.5833 H   0  0  0  0  0  0  0  0  0  0  0  0
    0.1124   -4.7303    0.1506 H   0  0  0  0  0  0  0  0  0  0  0  0
   -3.7993   -3.1995   -0.7900 H   0  0  0  0  0  0  0  0  0  0  0  0
   -3.4341   -5.2260    0.0779 H   0  0  0  0  0  0  0  0  0  0  0  0
    2.3272    1.6422   -0.7804 N   0  0  0  0  0  0  0  0  0  0  0  0
    3.2773    2.6633   -1.1591 C   0  0  2  0  0  0  0  0  0  0  0  0
    3.0503    2.9954   -2.6280 C   0  0  0  0  0  0  0  0  0  0  0  0
    2.5044    2.2235   -3.4137 O   0  0  0  0  0  0  0  0  0  0  0  0
    4.7074    2.2045   -0.9203 C   0  0  0  0  0  0  0  0  0  0  0  0
    2.6725    0.8166   -0.2998 H   0  0  0  0  0  0  0  0  0  0  0  0
    3.0560    3.5441   -0.5466 H   0  0  0  0  0  0  0  0  0  0  0  0
    4.9476    1.3228   -1.5257 H   0  0  0  0  0  0  0  0  0  0  0  0
    5.4248    2.9897   -1.1809 H   0  0  0  0  0  0  0  0  0  0  0  0
    4.8607    1.9377    0.1309 H   0  0  0  0  0  0  0  0  0  0  0  0
    3.5676    4.2375   -2.9683 N   0  0  0  0  0  0  0  0  0  0  0  0
    3.4893    4.7746   -4.3067 C   0  0  0  0  0  0  0  0  0  0  0  0
    3.9868    4.8185   -2.2482 H   0  0  0  0  0  0  0  0  0  0  0  0
    4.3998    4.5078   -4.8633 H   0  0  0  0  0  0  0  0  0  0  0  0
    2.6106    4.3557   -4.8190 H   0  0  0  0  0  0  0  0  0  0  0  0
    3.3975    5.8697   -4.2575 H   0  0  0  0  0  0  0  0  0  0  0  0
 23 25  2  0  0  0  0
 22 23  1  0  0  0  0
 24 26  1  0  0  0  0
 22 24  2  0  0  0  0
 25 27  1  0  0  0  0
 26 27  2  0  0  0  0
 21 22  1  0  0  0  0
 27 28  1  0  0  0  0
  1  3  1  0  0  0  0
  1  7  1  0  0  0  0
  1  2  2  0  0  0  0
 39 40  1  0  0  0  0
 40 48  1  0  0  0  0
 40 41  2  0  0  0  0
  8  9  1  0  0  0  0
  9 17  1  0  0  0  0
  9 10  2  0  0  0  0
 18 19  1  0  0  0  0
 19 38  1  0  0  0  0
 19 20  2  0  0  0  0
 39 42  1  0  0  0  0
  8 11  1  0  0  0  0
 48 49  1  0  0  0  0
 18 21  1  0  0  0  0
 38 39  1  0  0  0  0
  7  8  1  0  0  0  0
 17 18  1  0  0  0  0
 23 33  1  0  0  0  0
 24 34  1  0  0  0  0
 25 35  1  0  0  0  0
 26 36  1  0  0  0  0
  3  4  1  0  0  0  0
  3  5  1  0  0  0  0
  3  6  1  0  0  0  0
 42 45  1  0  0  0  0
 42 46  1  0  0  0  0
 42 47  1  0  0  0  0
 11 14  1  0  0  0  0
 11 15  1  0  0  0  0
 11 16  1  0  0  0  0
 49 51  1  0  0  0  0
 49 52  1  0  0  0  0
 49 53  1  0  0  0  0
 21 31  1  0  0  0  0
 21 32  1  0  0  0  0
 39 44  1  0  0  0  0
  8 13  1  0  0  0  0
 18 30  1  0  0  0  0
 48 50  1  0  0  0  0
  7 12  1  0  0  0  0
 38 43  1  0  0  0  0
 17 29  1  0  0  0  0
 28 37  1  0  0  0  0
M  END
$$$$

  -OEChem-05262214473D

 53 53  0     1  0  0  0  0  0999 V2000
   -1.9298    0.2574    3.9747 C   0  0  0  0  0  0  0  0  0  0  0  0
   -0.9825   -0.3573    3.4990 O   0  0  0  0  0  0  0  0  0  0  0  0
   -2.3617   -0.0250    5.3754 C   0  0  0  0  0  0  0  0  0  0  0  0
   -3.1214   -0.8213    5.4288 H   0  0  0  0  0  0  0  0  0  0  0  0
   -1.5305   -0.3726    6.0097 H   0  0  0  0  0  0  0  0  0  0  0  0
   -2.7997    0.8299    5.9150 H   0  0  0  0  0  0  0  0  0  0  0  0
   -2.6795    1.2298    3.3336 N   0  0  0  0  0  0  0  0  0  0  0  0
   -2.4327    1.6559    1.9812 C   0  0  2  0  0  0  0  0  0  0  0  0
   -1.0977    1.0705    1.5400 C   0  0  0  0  0  0  0  0  0  0  0  0
   -0.2256    0.7177    2.3313 O   0  0  0  0  0  0  0  0  0  0  0  0
   -2.4239    3.1726    1.8718 C   0  0  0  0  0  0  0  0  0  0  0  0
   -3.4446    1.6657    3.8454 H   0  0  0  0  0  0  0  0  0  0  0  0
   -3.2368    1.2374    1.3661 H   0  0  0  0  0  0  0  0  0  0  0  0
   -1.6248    3.6099    2.4815 H   0  0  0  0  0  0  0  0  0  0  0  0
   -2.2644    3.4949    0.8375 H   0  0  0  0  0  0  0  0  0  0  0  0
   -3.3741    3.5939    2.2175 H   0  0  0  0  0  0  0  0  0  0  0  0
   -0.9750    1.0274    0.1566 N   0  0  0  0  0  0  0  0  0  0  0  0
    0.2023    0.5266   -0.5070 C   0  0  2  0  0  0  0  0  0  0  0  0
    0.9668    1.7329   -1.0404 C   0  0  0  0  0  0  0  0  0  0  0  0
    0.4196    2.7903   -1.3459 O   0  0  0  0  0  0  0  0  0  0  0  0
   -0.1424   -0.4341   -1.6508 C   0  0  0  0  0  0  0  0  0  0  0  0
   -0.7626   -1.7214   -1.1650 C   0  0  0  0  0  0  0  0  0  0  0  0
    0.0485   -2.7459   -0.6768 C   0  0  0  0  0  0  0  0  0  0  0  0
   -2.1471   -1.8868   -1.2047 C   0  0  0  0  0  0  0  0  0  0  0  0
   -0.5249   -3.9357   -0.2283 C   0  0  0  0  0  0  0  0  0  0  0  0
   -2.7205   -3.0766   -0.7562 C   0  0  0  0  0  0  0  0  0  0  0  0
   -1.9093   -4.1011   -0.2680 C   0  0  0  0  0  0  0  0  0  0  0  0
   -2.4685   -5.2627    0.1685 O   0  0  0  0  0  0  0  0  0  0  0  0
   -1.7582    1.3241   -0.4207 H   0  0  0  0  0  0  0  0  0  0  0  0
    0.8064    0.0298    0.2612 H   0  0  0  0  0  0  0  0  0  0  0  0
    0.7550   -0.6572   -2.2437 H   0  0  0  0  0  0  0  0  0  0  0  0
   -0.8406    0.0403   -2.3530 H   0  0  0  0  0  0  0  0  0  0  0  0
    1.1279   -2.6256   -0.6422 H   0  0  0  0  0  0  0  0  0  0  0  0
   -2.7869   -1.0938   -1.5833 H   0  0  0  0  0  0  0  0  0  0  0  0
    0.1124   -4.7303    0.1506 H   0  0  0  0  0  0  0  0  0  0  0  0
   -3.7993   -3.1995   -0.7900 H   0  0  0  0  0  0  0  0  0  0  0  0
   -3.4341   -5.2260    0.0779 H   0  0  0  0  0  0  0  0  0  0  0  0
    2.3348    1.5024   -1.0858 N   0  0  0  0  0  0  0  0  0  0  0  0
    3.2916    2.4901   -1.5306 C   0  0  2  0  0  0  0  0  0  0  0  0
    2.8129    3.0399   -2.8677 C   0  0  0  0  0  0  0  0  0  0  0  0
    2.0444    2.4292   -3.6077 O   0  0  0  0  0  0  0  0  0  0  0  0
    4.6849    1.8936   -1.6556 C   0  0  0  0  0  0  0  0  0  0  0  0
    2.6808    0.5938   -0.7918 H   0  0  0  0  0  0  0  0  0  0  0  0
    3.2894    3.2914   -0.7836 H   0  0  0  0  0  0  0  0  0  0  0  0
    4.7069    1.0890   -2.3995 H   0  0  0  0  0  0  0  0  0  0  0  0
    5.4139    2.6499   -1.9650 H   0  0  0  0  0  0  0  0  0  0  0  0
    5.0156    1.4721   -0.7002 H   0  0  0  0  0  0  0  0  0  0  0  0
    3.3786    4.2737   -3.1573 N   0  0  0  0  0  0  0  0  0  0  0  0
    3.0921    4.9964   -4.3746 C   0  0  0  0  0  0  0  0  0  0  0  0
    3.9907    4.7147   -2.4772 H   0  0  0  0  0  0  0  0  0  0  0  0
    3.8410    4.7403   -5.1385 H   0  0  0  0  0  0  0  0  0  0  0  0
    2.0904    4.7218   -4.7367 H   0  0  0  0  0  0  0  0  0  0  0  0
    3.1264    6.0777   -4.1756 H   0  0  0  0  0  0  0  0  0  0  0  0
 23 25  2  0  0  0  0
 22 23  1  0  0  0  0
 24 26  1  0  0  0  0
 22 24  2  0  0  0  0
 25 27  1  0  0  0  0
 26 27  2  0  0  0  0
 21 22  1  0  0  0  0
 27 28  1  0  0  0  0
  1  3  1  0  0  0  0
  1  7  1  0  0  0  0
  1  2  2  0  0  0  0
 39 40  1  0  0  0  0
 40 48  1  0  0  0  0
 40 41  2  0  0  0  0
  8  9  1  0  0  0  0
  9 17  1  0  0  0  0
  9 10  2  0  0  0  0
 18 19  1  0  0  0  0
 19 38  1  0  0  0  0
 19 20  2  0  0  0  0
 39 42  1  0  0  0  0
  8 11  1  0  0  0  0
 48 49  1  0  0  0  0
 18 21  1  0  0  0  0
 38 39  1  0  0  0  0
  7  8  1  0  0  0  0
 17 18  1  0  0  0  0
 23 33  1  0  0  0  0
 24 34  1  0  0  0  0
 25 35  1  0  0  0  0
 26 36  1  0  0  0  0
  3  4  1  0  0  0  0
  3  5  1  0  0  0  0
  3  6  1  0  0  0  0
 42 45  1  0  0  0  0
 42 46  1  0  0  0  0
 42 47  1  0  0  0  0
 11 14  1  0  0  0  0
 11 15  1  0  0  0  0
 11 16  1  0  0  0  0
 49 51  1  0  0  0  0
 49 52  1  0  0  0  0
 49 53  1  0  0  0  0
 21 31  1  0  0  0  0
 21 32  1  0  0  0  0
 39 44  1  0  0  0  0
  8 13  1  0  0  0  0
 18 30  1  0  0  0  0
 48 50  1  0  0  0  0
  7 12  1  0  0  0  0
 38 43  1  0  0  0  0
 17 29  1  0  0  0  0
 28 37  1  0  0  0  0
M  END
$$$$

  -OEChem-05262214473D

 53 53  0     1  0  0  0  0  0999 V2000
   -1.9298    0.2574    3.9747 C   0  0  0  0  0  0  0  0  0  0  0  0
   -0.9825   -0.3573    3.4990 O   0  0  0  0  0  0  0  0  0  0  0  0
   -2.3617   -0.0250    5.3754 C   0  0  0  0  0  0  0  0  0  0  0  0
   -3.1214   -0.8213    5.4288 H   0  0  0  0  0  0  0  0  0  0  0  0
   -1.5305   -0.3726    6.0097 H   0  0  0  0  0  0  0  0  0  0  0  0
   -2.7997    0.8299    5.9150 H   0  0  0  0  0  0  0  0  0  0  0  0
   -2.6795    1.2298    3.3336 N   0  0  0  0  0  0  0  0  0  0  0  0
   -2.4327    1.6559    1.9812 C   0  0  2  0  0  0  0  0  0  0  0  0
   -1.0977    1.0705    1.5400 C   0  0  0  0  0  0  0  0  0  0  0  0
   -0.2256    0.7177    2.3313 O   0  0  0  0  0  0  0  0  0  0  0  0
   -2.4239    3.1726    1.8718 C   0  0  0  0  0  0  0  0  0  0  0  0
   -3.4446    1.6657    3.8454 H   0  0  0  0  0  0  0  0  0  0  0  0
   -3.2368    1.2374    1.3661 H   0  0  0  0  0  0  0  0  0  0  0  0
   -1.6248    3.6099    2.4815 H   0  0  0  0  0  0  0  0  0  0  0  0
   -2.2644    3.4949    0.8375 H   0  0  0  0  0  0  0  0  0  0  0  0
   -3.3741    3.5939    2.2175 H   0  0  0  0  0  0  0  0  0  0  0  0
   -0.9750    1.0274    0.1566 N   0  0  0  0  0  0  0  0  0  0  0  0
    0.2023    0.5266   -0.5070 C   0  0  2  0  0  0  0  0  0  0  0  0
    0.9668    1.7329   -1.0404 C   0  0  0  0  0  0  0  0  0  0  0  0
    0.4829    2.8615   -1.0941 O   0  0  0  0  0  0  0  0  0  0  0  0
   -0.1424   -0.4341   -1.6508 C   0  0  0  0  0  0  0  0  0  0  0  0
   -0.7626   -1.7214   -1.1650 C   0  0  0  0  0  0  0  0  0  0  0  0
    0.0485   -2.7459   -0.6768 C   0  0  0  0  0  0  0  0  0  0  0  0
   -2.1471   -1.8868   -1.2047 C   0  0  0  0  0  0  0  0  0  0  0  0
   -0.5249   -3.9357   -0.2283 C   0  0  0  0  0  0  0  0  0  0  0  0
   -2.7205   -3.0766   -0.7562 C   0  0  0  0  0  0  0  0  0  0  0  0
   -1.9093   -4.1011   -0.2680 C   0  0  0  0  0  0  0  0  0  0  0  0
   -2.4685   -5.2627    0.1685 O   0  0  0  0  0  0  0  0  0  0  0  0
   -1.7582    1.3241   -0.4207 H   0  0  0  0  0  0  0  0  0  0  0  0
    0.8064    0.0298    0.2612 H   0  0  0  0  0  0  0  0  0  0  0  0
    0.7550   -0.6572   -2.2437 H   0  0  0  0  0  0  0  0  0  0  0  0
   -0.8406    0.0403   -2.3530 H   0  0  0  0  0  0  0  0  0  0  0  0
    1.1279   -2.6256   -0.6422 H   0  0  0  0  0  0  0  0  0  0  0  0
   -2.7869   -1.0938   -1.5833 H   0  0  0  0  0  0  0  0  0  0  0  0
    0.1124   -4.7303    0.1506 H   0  0  0  0  0  0  0  0  0  0  0  0
   -3.7993   -3.1995   -0.7900 H   0  0  0  0  0  0  0  0  0  0  0  0
   -3.4341   -5.2260    0.0779 H   0  0  0  0  0  0  0  0  0  0  0  0
    2.2669    1.4063   -1.4006 N   0  0  0  0  0  0  0  0  0  0  0  0
    3.2136    2.3696   -1.9148 C   0  0  2  0  0  0  0  0  0  0  0  0
    2.5385    3.1355   -3.0448 C   0  0  0  0  0  0  0  0  0  0  0  0
    1.5790    2.6948   -3.6743 O   0  0  0  0  0  0  0  0  0  0  0  0
    4.4845    1.6909   -2.4015 C   0  0  0  0  0  0  0  0  0  0  0  0
    2.5680    0.4417   -1.2976 H   0  0  0  0  0  0  0  0  0  0  0  0
    3.4433    3.0569   -1.0932 H   0  0  0  0  0  0  0  0  0  0  0  0
    4.2743    0.9984   -3.2247 H   0  0  0  0  0  0  0  0  0  0  0  0
    5.2121    2.4244   -2.7643 H   0  0  0  0  0  0  0  0  0  0  0  0
    4.9528    1.1162   -1.5951 H   0  0  0  0  0  0  0  0  0  0  0  0
    3.1606    4.3504   -3.2965 N   0  0  0  0  0  0  0  0  0  0  0  0
    2.7146    5.2553   -4.3300 C   0  0  0  0  0  0  0  0  0  0  0  0
    3.9383    4.6439   -2.7127 H   0  0  0  0  0  0  0  0  0  0  0  0
    3.2659    5.0512   -5.2597 H   0  0  0  0  0  0  0  0  0  0  0  0
    1.6379    5.1118   -4.5032 H   0  0  0  0  0  0  0  0  0  0  0  0
    2.9001    6.2925   -4.0140 H   0  0  0  0  0  0  0  0  0  0  0  0
 23 25  2  0  0  0  0
 22 23  1  0  0  0  0
 24 26  1  0  0  0  0
 22 24  2  0  0  0  0
 25 27  1  0  0  0  0
 26 27  2  0  0  0  0
 21 22  1  0  0  0  0
 27 28  1  0  0  0  0
  1  3  1  0  0  0  0
  1  7  1  0  0  0  0
  1  2  2  0  0  0  0
 39 40  1  0  0  0  0
 40 48  1  0  0  0  0
 40 41  2  0  0  0  0
  8  9  1  0  0  0  0
  9 17  1  0  0  0  0
  9 10  2  0  0  0  0
 18 19  1  0  0  0  0
 19 38  1  0  0  0  0
 19 20  2  0  0  0  0
 39 42  1  0  0  0  0
  8 11  1  0  0  0  0
 48 49  1  0  0  0  0
 18 21  1  0  0  0  0
 38 39  1  0  0  0  0
  7  8  1  0  0  0  0
 17 18  1  0  0  0  0
 23 33  1  0  0  0  0
 24 34  1  0  0  0  0
 25 35  1  0  0  0  0
 26 36  1  0  0  0  0
  3  4  1  0  0  0  0
  3  5  1  0  0  0  0
  3  6  1  0  0  0  0
 42 45  1  0  0  0  0
 42 46  1  0  0  0  0
 42 47  1  0  0  0  0
 11 14  1  0  0  0  0
 11 15  1  0  0  0  0
 11 16  1  0  0  0  0
 49 51  1  0  0  0  0
 49 52  1  0  0  0  0
 49 53  1  0  0  0  0
 21 31  1  0  0  0  0
 21 32  1  0  0  0  0
 39 44  1  0  0  0  0
  8 13  1  0  0  0  0
 18 30  1  0  0  0  0
 48 50  1  0  0  0  0
  7 12  1  0  0  0  0
 38 43  1  0  0  0  0
 17 29  1  0  0  0  0
 28 37  1  0  0  0  0
M  END
$$$$

  -OEChem-05262214473D

 53 53  0     1  0  0  0  0  0999 V2000
   -1.9298    0.2574    3.9747 C   0  0  0  0  0  0  0  0  0  0  0  0
   -0.9825   -0.3573    3.4990 O   0  0  0  0  0  0  0  0  0  0  0  0
   -2.3617   -0.0250    5.3754 C   0  0  0  0  0  0  0  0  0  0  0  0
   -3.1214   -0.8213    5.4288 H   0  0  0  0  0  0  0  0  0  0  0  0
   -1.5305   -0.3726    6.0097 H   0  0  0  0  0  0  0  0  0  0  0  0
   -2.7997    0.8299    5.9150 H   0  0  0  0  0  0  0  0  0  0  0  0
   -2.6795    1.2298    3.3336 N   0  0  0  0  0  0  0  0  0  0  0  0
   -2.4327    1.6559    1.9812 C   0  0  2  0  0  0  0  0  0  0  0  0
   -1.0977    1.0705    1.5400 C   0  0  0  0  0  0  0  0  0  0  0  0
   -0.2256    0.7177    2.3313 O   0  0  0  0  0  0  0  0  0  0  0  0
   -2.4239    3.1726    1.8718 C   0  0  0  0  0  0  0  0  0  0  0  0
   -3.4446    1.6657    3.8454 H   0  0  0  0  0  0  0  0  0  0  0  0
   -3.2368    1.2374    1.3661 H   0  0  0  0  0  0  0  0  0  0  0  0
   -1.6248    3.6099    2.4815 H   0  0  0  0  0  0  0  0  0  0  0  0
   -2.2644    3.4949    0.8375 H   0  0  0  0  0  0  0  0  0  0  0  0
   -3.3741    3.5939    2.2175 H   0  0  0  0  0  0  0  0  0  0  0  0
   -0.9750    1.0274    0.1566 N   0  0  0  0  0  0  0  0  0  0  0  0
    0.2023    0.5266   -0.5070 C   0  0  2  0  0  0  0  0  0  0  0  0
    1.1451    1.7081   -0.7055 C   0  0  0  0  0  0  0  0  0  0  0  0
    0.8922    2.8411   -0.3016 O   0  0  0  0  0  0  0  0  0  0  0  0
   -0.1262   -0.1254   -1.8551 C   0  0  0  0  0  0  0  0  0  0  0  0
   -0.9303   -1.3942   -1.7092 C   0  0  0  0  0  0  0  0  0  0  0  0
   -0.2907   -2.5930   -1.3938 C   0  0  0  0  0  0  0  0  0  0  0  0
   -2.3130   -1.3681   -1.8905 C   0  0  0  0  0  0  0  0  0  0  0  0
   -1.0339   -3.7657   -1.2596 C   0  0  0  0  0  0  0  0  0  0  0  0
   -3.0563   -2.5408   -1.7563 C   0  0  0  0  0  0  0  0  0  0  0  0
   -2.4167   -3.7396   -1.4409 C   0  0  0  0  0  0  0  0  0  0  0  0
   -3.1416   -4.8843   -1.3111 O   0  0  0  0  0  0  0  0  0  0  0  0
   -1.7582    1.3241   -0.4207 H   0  0  0  0  0  0  0  0  0  0  0  0
    0.6662   -0.1914    0.1794 H   0  0  0  0  0  0  0  0  0  0  0  0
    0.7976   -0.3353   -2.4112 H   0  0  0  0  0  0  0  0  0  0  0  0
   -0.6924    0.5695   -2.4893 H   0  0  0  0  0  0  0  0  0  0  0  0
    0.7861   -2.6226   -1.2508 H   0  0  0  0  0  0  0  0  0  0  0  0
   -2.8199   -0.4384   -2.1363 H   0  0  0  0  0  0  0  0  0  0  0  0
   -0.5299   -4.6967   -1.0140 H   0  0  0  0  0  0  0  0  0  0  0  0
   -4.1329   -2.5139   -1.8991 H   0  0  0  0  0  0  0  0  0  0  0  0
   -4.0829   -4.7056   -1.4657 H   0  0  0  0  0  0  0  0  0  0  0  0
    2.3205    1.3337   -1.3416 N   0  0  0  0  0  0  0  0  0  0  0  0
    3.3945    2.2563   -1.6315 C   0  0  2  0  0  0  0  0  0  0  0  0
    2.7950    3.4738   -2.3227 C   0  0  0  0  0  0  0  0  0  0  0  0
    1.7190    3.4460   -2.9163 O   0  0  0  0  0  0  0  0  0  0  0  0
    4.4612    1.6083   -2.5004 C   0  0  0  0  0  0  0  0  0  0  0  0
    2.4314    0.3624   -1.6174 H   0  0  0  0  0  0  0  0  0  0  0  0
    3.8225    2.5561   -0.6686 H   0  0  0  0  0  0  0  0  0  0  0  0
    4.0511    1.3013   -3.4694 H   0  0  0  0  0  0  0  0  0  0  0  0
    5.2879    2.2994   -2.6954 H   0  0  0  0  0  0  0  0  0  0  0  0
    4.8702    0.7158   -2.0148 H   0  0  0  0  0  0  0  0  0  0  0  0
    3.6234    4.5840   -2.2356 N   0  0  0  0  0  0  0  0  0  0  0  0
    3.2832    5.8586   -2.8234 C   0  0  0  0  0  0  0  0  0  0  0  0
    4.4888    4.5214   -1.7076 H   0  0  0  0  0  0  0  0  0  0  0  0
    3.7051    5.9196   -3.8374 H   0  0  0  0  0  0  0  0  0  0  0  0
    2.1889    5.9580   -2.8751 H   0  0  0  0  0  0  0  0  0  0  0  0
    3.6961    6.6693   -2.2052 H   0  0  0  0  0  0  0  0  0  0  0  0
 23 25  2  0  0  0  0
 22 23  1  0  0  0  0
 24 26  1  0  0  0  0
 22 24  2  0  0  0  0
 25 27  1  0  0  0  0
 26 27  2  0  0  0  0
 21 22  1  0  0  0  0
 27 28  1  0  0  0  0
  1  3  1  0  0  0  0
  1  7  1  0  0  0  0
  1  2  2  0  0  0  0
 39 40  1  0  0  0  0
 40 48  1  0  0  0  0
 40 41  2  0  0  0  0
  8  9  1  0  0  0  0
  9 17  1  0  0  0  0
  9 10  2  0  0  0  0
 18 19  1  0  0  0  0
 19 38  1  0  0  0  0
 19 20  2  0  0  0  0
 39 42  1  0  0  0  0
  8 11  1  0  0  0  0
 48 49  1  0  0  0  0
 18 21  1  0  0  0  0
 38 39  1  0  0  0  0
  7  8  1  0  0  0  0
 17 18  1  0  0  0  0
 23 33  1  0  0  0  0
 24 34  1  0  0  0  0
 25 35  1  0  0  0  0
 26 36  1  0  0  0  0
  3  4  1  0  0  0  0
  3  5  1  0  0  0  0
  3  6  1  0  0  0  0
 42 45  1  0  0  0  0
 42 46  1  0  0  0  0
 42 47  1  0  0  0  0
 11 14  1  0  0  0  0
 11 15  1  0  0  0  0
 11 16  1  0  0  0  0
 49 51  1  0  0  0  0
 49 52  1  0  0  0  0
 49 53  1  0  0  0  0
 21 31  1  0  0  0  0
 21 32  1  0  0  0  0
 39 44  1  0  0  0  0
  8 13  1  0  0  0  0
 18 30  1  0  0  0  0
 48 50  1  0  0  0  0
  7 12  1  0  0  0  0
 38 43  1  0  0  0  0
 17 29  1  0  0  0  0
 28 37  1  0  0  0  0
M  END
$$$$

  -OEChem-05262214473D

 53 53  0     1  0  0  0  0  0999 V2000
   -1.9298    0.2574    3.9747 C   0  0  0  0  0  0  0  0  0  0  0  0
   -0.9825   -0.3573    3.4990 O   0  0  0  0  0  0  0  0  0  0  0  0
   -2.3617   -0.0250    5.3754 C   0  0  0  0  0  0  0  0  0  0  0  0
   -3.1214   -0.8213    5.4288 H   0  0  0  0  0  0  0  0  0  0  0  0
   -1.5305   -0.3726    6.0097 H   0  0  0  0  0  0  0  0  0  0  0  0
   -2.7997    0.8299    5.9150 H   0  0  0  0  0  0  0  0  0  0  0  0
   -2.6795    1.2298    3.3336 N   0  0  0  0  0  0  0  0  0  0  0  0
   -2.4327    1.6559    1.9812 C   0  0  2  0  0  0  0  0  0  0  0  0
   -1.0977    1.0705    1.5400 C   0  0  0  0  0  0  0  0  0  0  0  0
   -0.2256    0.7177    2.3313 O   0  0  0  0  0  0  0  0  0  0  0  0
   -2.4239    3.1726    1.8718 C   0  0  0  0  0  0  0  0  0  0  0  0
   -3.4446    1.6657    3.8454 H   0  0  0  0  0  0  0  0  0  0  0  0
   -3.2368    1.2374    1.3661 H   0  0  0  0  0  0  0  0  0  0  0  0
   -1.6248    3.6099    2.4815 H   0  0  0  0  0  0  0  0  0  0  0  0
   -2.2644    3.4949    0.8375 H   0  0  0  0  0  0  0  0  0  0  0  0
   -3.3741    3.5939    2.2175 H   0  0  0  0  0  0  0  0  0  0  0  0
   -0.9750    1.0274    0.1566 N   0  0  0  0  0  0  0  0  0  0  0  0
    0.2023    0.5266   -0.5070 C   0  0  2  0  0  0  0  0  0  0  0  0
    1.1451    1.7081   -0.7055 C   0  0  0  0  0  0  0  0  0  0  0  0
    1.0341    2.7641   -0.0862 O   0  0  0  0  0  0  0  0  0  0  0  0
   -0.1262   -0.1254   -1.8551 C   0  0  0  0  0  0  0  0  0  0  0  0
   -0.9303   -1.3942   -1.7092 C   0  0  0  0  0  0  0  0  0  0  0  0
   -0.2907   -2.5930   -1.3938 C   0  0  0  0  0  0  0  0  0  0  0  0
   -2.3130   -1.3681   -1.8905 C   0  0  0  0  0  0  0  0  0  0  0  0
   -1.0339   -3.7657   -1.2596 C   0  0  0  0  0  0  0  0  0  0  0  0
   -3.0563   -2.5408   -1.7563 C   0  0  0  0  0  0  0  0  0  0  0  0
   -2.4167   -3.7396   -1.4409 C   0  0  0  0  0  0  0  0  0  0  0  0
   -3.1416   -4.8843   -1.3111 O   0  0  0  0  0  0  0  0  0  0  0  0
   -1.7582    1.3241   -0.4207 H   0  0  0  0  0  0  0  0  0  0  0  0
    0.6662   -0.1914    0.1794 H   0  0  0  0  0  0  0  0  0  0  0  0
    0.7976   -0.3353   -2.4112 H   0  0  0  0  0  0  0  0  0  0  0  0
   -0.6924    0.5695   -2.4893 H   0  0  0  0  0  0  0  0  0  0  0  0
    0.7861   -2.6226   -1.2508 H   0  0  0  0  0  0  0  0  0  0  0  0
   -2.8199   -0.4384   -2.1363 H   0  0  0  0  0  0  0  0  0  0  0  0
   -0.5299   -4.6967   -1.0140 H   0  0  0  0  0  0  0  0  0  0  0  0
   -4.1329   -2.5139   -1.8991 H   0  0  0  0  0  0  0  0  0  0  0  0
   -4.0829   -4.7056   -1.4657 H   0  0  0  0  0  0  0  0  0  0  0  0
    2.1512    1.4224   -1.6179 N   0  0  0  0  0  0  0  0  0  0  0  0
    3.1914    2.3612   -1.9720 C   0  0  2  0  0  0  0  0  0  0  0  0
    2.5287    3.6856   -2.3274 C   0  0  0  0  0  0  0  0  0  0  0  0
    1.3564    3.7739   -2.6867 O   0  0  0  0  0  0  0  0  0  0  0  0
    4.0313    1.8456   -3.1301 C   0  0  0  0  0  0  0  0  0  0  0  0
    2.1566    0.5075   -2.0591 H   0  0  0  0  0  0  0  0  0  0  0  0
    3.8158    2.4920   -1.0814 H   0  0  0  0  0  0  0  0  0  0  0  0
    3.4228    1.7083   -4.0314 H   0  0  0  0  0  0  0  0  0  0  0  0
    4.8366    2.5448   -3.3784 H   0  0  0  0  0  0  0  0  0  0  0  0
    4.4832    0.8787   -2.8838 H   0  0  0  0  0  0  0  0  0  0  0  0
    3.4123    4.7520   -2.2378 N   0  0  0  0  0  0  0  0  0  0  0  0
    3.0268    6.1113   -2.5371 C   0  0  0  0  0  0  0  0  0  0  0  0
    4.3610    4.5890   -1.9132 H   0  0  0  0  0  0  0  0  0  0  0  0
    3.2423    6.3299   -3.5934 H   0  0  0  0  0  0  0  0  0  0  0  0
    1.9502    6.2368   -2.3491 H   0  0  0  0  0  0  0  0  0  0  0  0
    3.5939    6.8027   -1.8966 H   0  0  0  0  0  0  0  0  0  0  0  0
 23 25  2  0  0  0  0
 22 23  1  0  0  0  0
 24 26  1  0  0  0  0
 22 24  2  0  0  0  0
 25 27  1  0  0  0  0
 26 27  2  0  0  0  0
 21 22  1  0  0  0  0
 27 28  1  0  0  0  0
  1  3  1  0  0  0  0
  1  7  1  0  0  0  0
  1  2  2  0  0  0  0
 39 40  1  0  0  0  0
 40 48  1  0  0  0  0
 40 41  2  0  0  0  0
  8  9  1  0  0  0  0
  9 17  1  0  0  0  0
  9 10  2  0  0  0  0
 18 19  1  0  0  0  0
 19 38  1  0  0  0  0
 19 20  2  0  0  0  0
 39 42  1  0  0  0  0
  8 11  1  0  0  0  0
 48 49  1  0  0  0  0
 18 21  1  0  0  0  0
 38 39  1  0  0  0  0
  7  8  1  0  0  0  0
 17 18  1  0  0  0  0
 23 33  1  0  0  0  0
 24 34  1  0  0  0  0
 25 35  1  0  0  0  0
 26 36  1  0  0  0  0
  3  4  1  0  0  0  0
  3  5  1  0  0  0  0
  3  6  1  0  0  0  0
 42 45  1  0  0  0  0
 42 46  1  0  0  0  0
 42 47  1  0  0  0  0
 11 14  1  0  0  0  0
 11 15  1  0  0  0  0
 11 16  1  0  0  0  0
 49 51  1  0  0  0  0
 49 52  1  0  0  0  0
 49 53  1  0  0  0  0
 21 31  1  0  0  0  0
 21 32  1  0  0  0  0
 39 44  1  0  0  0  0
  8 13  1  0  0  0  0
 18 30  1  0  0  0  0
 48 50  1  0  0  0  0
  7 12  1  0  0  0  0
 38 43  1  0  0  0  0
 17 29  1  0  0  0  0
 28 37  1  0  0  0  0
M  END
$$$$

  -OEChem-05262214473D

 53 53  0     1  0  0  0  0  0999 V2000
   -1.9298    0.2574    3.9747 C   0  0  0  0  0  0  0  0  0  0  0  0
   -0.9825   -0.3573    3.4990 O   0  0  0  0  0  0  0  0  0  0  0  0
   -2.3617   -0.0250    5.3754 C   0  0  0  0  0  0  0  0  0  0  0  0
   -3.1214   -0.8213    5.4288 H   0  0  0  0  0  0  0  0  0  0  0  0
   -1.5305   -0.3726    6.0097 H   0  0  0  0  0  0  0  0  0  0  0  0
   -2.7997    0.8299    5.9150 H   0  0  0  0  0  0  0  0  0  0  0  0
   -2.6795    1.2298    3.3336 N   0  0  0  0  0  0  0  0  0  0  0  0
   -2.4327    1.6559    1.9812 C   0  0  2  0  0  0  0  0  0  0  0  0
   -1.0977    1.0705    1.5400 C   0  0  0  0  0  0  0  0  0  0  0  0
   -0.2256    0.7177    2.3313 O   0  0  0  0  0  0  0  0  0  0  0  0
   -2.4239    3.1726    1.8718 C   0  0  0  0  0  0  0  0  0  0  0  0
   -3.4446    1.6657    3.8454 H   0  0  0  0  0  0  0  0  0  0  0  0
   -3.2368    1.2374    1.3661 H   0  0  0  0  0  0  0  0  0  0  0  0
   -1.6248    3.6099    2.4815 H   0  0  0  0  0  0  0  0  0  0  0  0
   -2.2644    3.4949    0.8375 H   0  0  0  0  0  0  0  0  0  0  0  0
   -3.3741    3.5939    2.2175 H   0  0  0  0  0  0  0  0  0  0  0  0
   -0.9750    1.0274    0.1566 N   0  0  0  0  0  0  0  0  0  0  0  0
    0.2023    0.5266   -0.5070 C   0  0  2  0  0  0  0  0  0  0  0  0
    1.1451    1.7081   -0.7055 C   0  0  0  0  0  0  0  0  0  0  0  0
    1.2117    2.6504    0.0810 O   0  0  0  0  0  0  0  0  0  0  0  0
   -0.1262   -0.1254   -1.8551 C   0  0  0  0  0  0  0  0  0  0  0  0
   -0.9303   -1.3942   -1.7092 C   0  0  0  0  0  0  0  0  0  0  0  0
   -0.2907   -2.5930   -1.3938 C   0  0  0  0  0  0  0  0  0  0  0  0
   -2.3130   -1.3681   -1.8905 C   0  0  0  0  0  0  0  0  0  0  0  0
   -1.0339   -3.7657   -1.2596 C   0  0  0  0  0  0  0  0  0  0  0  0
   -3.0563   -2.5408   -1.7563 C   0  0  0  0  0  0  0  0  0  0  0  0
   -2.4167   -3.7396   -1.4409 C   0  0  0  0  0  0  0  0  0  0  0  0
   -3.1416   -4.8843   -1.3111 O   0  0  0  0  0  0  0  0  0  0  0  0
   -1.7582    1.3241   -0.4207 H   0  0  0  0  0  0  0  0  0  0  0  0
    0.6662   -0.1914    0.1794 H   0  0  0  0  0  0  0  0  0  0  0  0
    0.7976   -0.3353   -2.4112 H   0  0  0  0  0  0  0  0  0  0  0  0
   -0.6924    0.5695   -2.4893 H   0  0  0  0  0  0  0  0  0  0  0  0
    0.7861   -2.6226   -1.2508 H   0  0  0  0  0  0  0  0  0  0  0  0
   -2.8199   -0.4384   -2.1363 H   0  0  0  0  0  0  0  0  0  0  0  0
   -0.5299   -4.6967   -1.0140 H   0  0  0  0  0  0  0  0  0  0  0  0
   -4.1329   -2.5139   -1.8991 H   0  0  0  0  0  0  0  0  0  0  0  0
   -4.0829   -4.7056   -1.4657 H   0  0  0  0  0  0  0  0  0  0  0  0
    1.9352    1.5580   -1.8367 N   0  0  0  0  0  0  0  0  0  0  0  0
    2.9305    2.5239   -2.2433 C   0  0  2  0  0  0  0  0  0  0  0  0
    2.2776    3.8998   -2.2447 C   0  0  0  0  0  0  0  0  0  0  0  0
    1.0634    4.0660   -2.3398 O   0  0  0  0  0  0  0  0  0  0  0  0
    3.4978    2.1900   -3.6142 C   0  0  0  0  0  0  0  0  0  0  0  0
    1.8075    0.7276   -2.4075 H   0  0  0  0  0  0  0  0  0  0  0  0
    3.7245    2.4965   -1.4891 H   0  0  0  0  0  0  0  0  0  0  0  0
    2.7169    2.2125   -4.3831 H   0  0  0  0  0  0  0  0  0  0  0  0
    4.2720    2.9064   -3.9084 H   0  0  0  0  0  0  0  0  0  0  0  0
    3.9405    1.1882   -3.6194 H   0  0  0  0  0  0  0  0  0  0  0  0
    3.2138    4.9217   -2.1707 N   0  0  0  0  0  0  0  0  0  0  0  0
    2.8450    6.3182   -2.1687 C   0  0  0  0  0  0  0  0  0  0  0  0
    4.1984    4.6914   -2.0754 H   0  0  0  0  0  0  0  0  0  0  0  0
    2.8580    6.7028   -3.1992 H   0  0  0  0  0  0  0  0  0  0  0  0
    1.8347    6.4299   -1.7484 H   0  0  0  0  0  0  0  0  0  0  0  0
    3.5616    6.8856   -1.5566 H   0  0  0  0  0  0  0  0  0  0  0  0
 23 25  2  0  0  0  0
 22 23  1  0  0  0  0
 24 26  1  0  0  0  0
 22 24  2  0  0  0  0
 25 27  1  0  0  0  0
 26 27  2  0  0  0  0
 21 22  1  0  0  0  0
 27 28  1  0  0  0  0
  1  3  1  0  0  0  0
  1  7  1  0  0  0  0
  1  2  2  0  0  0  0
 39 40  1  0  0  0  0
 40 48  1  0  0  0  0
 40 41  2  0  0  0  0
  8  9  1  0  0  0  0
  9 17  1  0  0  0  0
  9 10  2  0  0  0  0
 18 19  1  0  0  0  0
 19 38  1  0  0  0  0
 19 20  2  0  0  0  0
 39 42  1  0  0  0  0
  8 11  1  0  0  0  0
 48 49  1  0  0  0  0
 18 21  1  0  0  0  0
 38 39  1  0  0  0  0
  7  8  1  0  0  0  0
 17 18  1  0  0  0  0
 23 33  1  0  0  0  0
 24 34  1  0  0  0  0
 25 35  1  0  0  0  0
 26 36  1  0  0  0  0
  3  4  1  0  0  0  0
  3  5  1  0  0  0  0
  3  6  1  0  0  0  0
 42 45  1  0  0  0  0
 42 46  1  0  0  0  0
 42 47  1  0  0  0  0
 11 14  1  0  0  0  0
 11 15  1  0  0  0  0
 11 16  1  0  0  0  0
 49 51  1  0  0  0  0
 49 52  1  0  0  0  0
 49 53  1  0  0  0  0
 21 31  1  0  0  0  0
 21 32  1  0  0  0  0
 39 44  1  0  0  0  0
  8 13  1  0  0  0  0
 18 30  1  0  0  0  0
 48 50  1  0  0  0  0
  7 12  1  0  0  0  0
 38 43  1  0  0  0  0
 17 29  1  0  0  0  0
 28 37  1  0  0  0  0
M  END
$$$$

  -OEChem-05262214473D

 53 53  0     1  0  0  0  0  0999 V2000
   -1.9298    0.2574    3.9747 C   0  0  0  0  0  0  0  0  0  0  0  0
   -0.9825   -0.3573    3.4990 O   0  0  0  0  0  0  0  0  0  0  0  0
   -2.3617   -0.0250    5.3754 C   0  0  0  0  0  0  0  0  0  0  0  0
   -3.1214   -0.8213    5.4288 H   0  0  0  0  0  0  0  0  0  0  0  0
   -1.5305   -0.3726    6.0097 H   0  0  0  0  0  0  0  0  0  0  0  0
   -2.7997    0.8299    5.9150 H   0  0  0  0  0  0  0  0  0  0  0  0
   -2.6795    1.2298    3.3336 N   0  0  0  0  0  0  0  0  0  0  0  0
   -2.4327    1.6559    1.9812 C   0  0  2  0  0  0  0  0  0  0  0  0
   -1.0977    1.0705    1.5400 C   0  0  0  0  0  0  0  0  0  0  0  0
   -0.2256    0.7177    2.3313 O   0  0  0  0  0  0  0  0  0  0  0  0
   -2.4239    3.1726    1.8718 C   0  0  0  0  0  0  0  0  0  0  0  0
   -3.4446    1.6657    3.8454 H   0  0  0  0  0  0  0  0  0  0  0  0
   -3.2368    1.2374    1.3661 H   0  0  0  0  0  0  0  0  0  0  0  0
   -1.6248    3.6099    2.4815 H   0  0  0  0  0  0  0  0  0  0  0  0
   -2.2644    3.4949    0.8375 H   0  0  0  0  0  0  0  0  0  0  0  0
   -3.3741    3.5939    2.2175 H   0  0  0  0  0  0  0  0  0  0  0  0
   -0.9750    1.0274    0.1566 N   0  0  0  0  0  0  0  0  0  0  0  0
    0.2023    0.5266   -0.5070 C   0  0  2  0  0  0  0  0  0  0  0  0
    1.1451    1.7081   -0.7055 C   0  0  0  0  0  0  0  0  0  0  0  0
    1.4131    2.5078    0.1887 O   0  0  0  0  0  0  0  0  0  0  0  0
   -0.1262   -0.1254   -1.8551 C   0  0  0  0  0  0  0  0  0  0  0  0
   -0.9303   -1.3942   -1.7092 C   0  0  0  0  0  0  0  0  0  0  0  0
   -0.2907   -2.5930   -1.3938 C   0  0  0  0  0  0  0  0  0  0  0  0
   -2.3130   -1.3681   -1.8905 C   0  0  0  0  0  0  0  0  0  0  0  0
   -1.0339   -3.7657   -1.2596 C   0  0  0  0  0  0  0  0  0  0  0  0
   -3.0563   -2.5408   -1.7563 C   0  0  0  0  0  0  0  0  0  0  0  0
   -2.4167   -3.7396   -1.4409 C   0  0  0  0  0  0  0  0  0  0  0  0
   -3.1416   -4.8843   -1.3111 O   0  0  0  0  0  0  0  0  0  0  0  0
   -1.7582    1.3241   -0.4207 H   0  0  0  0  0  0  0  0  0  0  0  0
    0.6662   -0.1914    0.1794 H   0  0  0  0  0  0  0  0  0  0  0  0
    0.7976   -0.3353   -2.4112 H   0  0  0  0  0  0  0  0  0  0  0  0
   -0.6924    0.5695   -2.4893 H   0  0  0  0  0  0  0  0  0  0  0  0
    0.7861   -2.6226   -1.2508 H   0  0  0  0  0  0  0  0  0  0  0  0
   -2.8199   -0.4384   -2.1363 H   0  0  0  0  0  0  0  0  0  0  0  0
   -0.5299   -4.6967   -1.0140 H   0  0  0  0  0  0  0  0  0  0  0  0
   -4.1329   -2.5139   -1.8991 H   0  0  0  0  0  0  0  0  0  0  0  0
   -4.0829   -4.7056   -1.4657 H   0  0  0  0  0  0  0  0  0  0  0  0
    1.6873    1.7313   -1.9829 N   0  0  0  0  0  0  0  0  0  0  0  0
    2.6295    2.7332   -2.4270 C   0  0  2  0  0  0  0  0  0  0  0  0
    2.0589    4.1020   -2.0801 C   0  0  0  0  0  0  0  0  0  0  0  0
    0.8597    4.3026   -1.8991 O   0  0  0  0  0  0  0  0  0  0  0  0
    2.8969    2.6182   -3.9197 C   0  0  0  0  0  0  0  0  0  0  0  0
    1.4078    1.0077   -2.6387 H   0  0  0  0  0  0  0  0  0  0  0  0
    3.5546    2.5691   -1.8638 H   0  0  0  0  0  0  0  0  0  0  0  0
    1.9815    2.7797   -4.5005 H   0  0  0  0  0  0  0  0  0  0  0  0
    3.6324    3.3595   -4.2492 H   0  0  0  0  0  0  0  0  0  0  0  0
    3.2792    1.6231   -4.1716 H   0  0  0  0  0  0  0  0  0  0  0  0
    3.0411    5.0816   -2.0389 N   0  0  0  0  0  0  0  0  0  0  0  0
    2.7504    6.4652   -1.7433 C   0  0  0  0  0  0  0  0  0  0  0  0
    4.0124    4.8218   -2.1831 H   0  0  0  0  0  0  0  0  0  0  0  0
    2.5784    7.0128   -2.6816 H   0  0  0  0  0  0  0  0  0  0  0  0
    1.8500    6.5242   -1.1141 H   0  0  0  0  0  0  0  0  0  0  0  0
    3.6013    6.9123   -1.2085 H   0  0  0  0  0  0  0  0  0  0  0  0
 23 25  2  0  0  0  0
 22 23  1  0  0  0  0
 24 26  1  0  0  0  0
 22 24  2  0  0  0  0
 25 27  1  0  0  0  0
 26 27  2  0  0  0  0
 21 22  1  0  0  0  0
 27 28  1  0  0  0  0
  1  3  1  0  0  0  0
  1  7  1  0  0  0  0
  1  2  2  0  0  0  0
 39 40  1  0  0  0  0
 40 48  1  0  0  0  0
 40 41  2  0  0  0  0
  8  9  1  0  0  0  0
  9 17  1  0  0  0  0
  9 10  2  0  0  0  0
 18 19  1  0  0  0  0
 19 38  1  0  0  0  0
 19 20  2  0  0  0  0
 39 42  1  0  0  0  0
  8 11  1  0  0  0  0
 48 49  1  0  0  0  0
 18 21  1  0  0  0  0
 38 39  1  0  0  0  0
  7  8  1  0  0  0  0
 17 18  1  0  0  0  0
 23 33  1  0  0  0  0
 24 34  1  0  0  0  0
 25 35  1  0  0  0  0
 26 36  1  0  0  0  0
  3  4  1  0  0  0  0
  3  5  1  0  0  0  0
  3  6  1  0  0  0  0
 42 45  1  0  0  0  0
 42 46  1  0  0  0  0
 42 47  1  0  0  0  0
 11 14  1  0  0  0  0
 11 15  1  0  0  0  0
 11 16  1  0  0  0  0
 49 51  1  0  0  0  0
 49 52  1  0  0  0  0
 49 53  1  0  0  0  0
 21 31  1  0  0  0  0
 21 32  1  0  0  0  0
 39 44  1  0  0  0  0
  8 13  1  0  0  0  0
 18 30  1  0  0  0  0
 48 50  1  0  0  0  0
  7 12  1  0  0  0  0
 38 43  1  0  0  0  0
 17 29  1  0  0  0  0
 28 37  1  0  0  0  0
M  END
$$$$

  -OEChem-05262214473D

 53 53  0     1  0  0  0  0  0999 V2000
   -1.9298    0.2574    3.9747 C   0  0  0  0  0  0  0  0  0  0  0  0
   -0.9825   -0.3573    3.4990 O   0  0  0  0  0  0  0  0  0  0  0  0
   -2.3617   -0.0250    5.3754 C   0  0  0  0  0  0  0  0  0  0  0  0
   -3.1214   -0.8213    5.4288 H   0  0  0  0  0  0  0  0  0  0  0  0
   -1.5305   -0.3726    6.0097 H   0  0  0  0  0  0  0  0  0  0  0  0
   -2.7997    0.8299    5.9150 H   0  0  0  0  0  0  0  0  0  0  0  0
   -2.6795    1.2298    3.3336 N   0  0  0  0  0  0  0  0  0  0  0  0
   -2.4327    1.6559    1.9812 C   0  0  2  0  0  0  0  0  0  0  0  0
   -1.0977    1.0705    1.5400 C   0  0  0  0  0  0  0  0  0  0  0  0
   -0.2256    0.7177    2.3313 O   0  0  0  0  0  0  0  0  0  0  0  0
   -2.4239    3.1726    1.8718 C   0  0  0  0  0  0  0  0  0  0  0  0
   -3.4446    1.6657    3.8454 H   0  0  0  0  0  0  0  0  0  0  0  0
   -3.2368    1.2374    1.3661 H   0  0  0  0  0  0  0  0  0  0  0  0
   -1.6248    3.6099    2.4815 H   0  0  0  0  0  0  0  0  0  0  0  0
   -2.2644    3.4949    0.8375 H   0  0  0  0  0  0  0  0  0  0  0  0
   -3.3741    3.5939    2.2175 H   0  0  0  0  0  0  0  0  0  0  0  0
   -0.9750    1.0274    0.1566 N   0  0  0  0  0  0  0  0  0  0  0  0
    0.2023    0.5266   -0.5070 C   0  0  2  0  0  0  0  0  0  0  0  0
    1.1451    1.7081   -0.7055 C   0  0  0  0  0  0  0  0  0  0  0  0
    1.6243    2.3461    0.2295 O   0  0  0  0  0  0  0  0  0  0  0  0
   -0.1262   -0.1254   -1.8551 C   0  0  0  0  0  0  0  0  0  0  0  0
   -0.9303   -1.3942   -1.7092 C   0  0  0  0  0  0  0  0  0  0  0  0
   -0.2907   -2.5930   -1.3938 C   0  0  0  0  0  0  0  0  0  0  0  0
   -2.3130   -1.3681   -1.8905 C   0  0  0  0  0  0  0  0  0  0  0  0
   -1.0339   -3.7657   -1.2596 C   0  0  0  0  0  0  0  0  0  0  0  0
   -3.0563   -2.5408   -1.7563 C   0  0  0  0  0  0  0  0  0  0  0  0
   -2.4167   -3.7396   -1.4409 C   0  0  0  0  0  0  0  0  0  0  0  0
   -3.1416   -4.8843   -1.3111 O   0  0  0  0  0  0  0  0  0  0  0  0
   -1.7582    1.3241   -0.4207 H   0  0  0  0  0  0  0  0  0  0  0  0
    0.6662   -0.1914    0.1794 H   0  0  0  0  0  0  0  0  0  0  0  0
    0.7976   -0.3353   -2.4112 H   0  0  0  0  0  0  0  0  0  0  0  0
   -0.6924    0.5695   -2.4893 H   0  0  0  0  0  0  0  0  0  0  0  0
    0.7861   -2.6226   -1.2508 H   0  0  0  0  0  0  0  0  0  0  0  0
   -2.8199   -0.4384   -2.1363 H   0  0  0  0  0  0  0  0  0  0  0  0
   -0.5299   -4.6967   -1.0140 H   0  0  0  0  0  0  0  0  0  0  0  0
   -4.1329   -2.5139   -1.8991 H   0  0  0  0  0  0  0  0  0  0  0  0
   -4.0829   -4.7056   -1.4657 H   0  0  0  0  0  0  0  0  0  0  0  0
    1.4243    1.9304   -2.0468 N   0  0  0  0  0  0  0  0  0  0  0  0
    2.3089    2.9750   -2.5106 C   0  0  2  0  0  0  0  0  0  0  0  0
    1.8874    4.2783   -1.8449 C   0  0  0  0  0  0  0  0  0  0  0  0
    0.7593    4.4674   -1.3947 O   0  0  0  0  0  0  0  0  0  0  0  0
    2.2697    3.1010   -4.0257 C   0  0  0  0  0  0  0  0  0  0  0  0
    0.9847    1.3288   -2.7371 H   0  0  0  0  0  0  0  0  0  0  0  0
    3.3178    2.7049   -2.1801 H   0  0  0  0  0  0  0  0  0  0  0  0
    1.2667    3.3711   -4.3756 H   0  0  0  0  0  0  0  0  0  0  0  0
    2.9616    3.8732   -4.3776 H   0  0  0  0  0  0  0  0  0  0  0  0
    2.5443    2.1540   -4.5027 H   0  0  0  0  0  0  0  0  0  0  0  0
    2.9061    5.2208   -1.8513 N   0  0  0  0  0  0  0  0  0  0  0  0
    2.7492    6.5422   -1.2898 C   0  0  0  0  0  0  0  0  0  0  0  0
    3.8155    4.9712   -2.2289 H   0  0  0  0  0  0  0  0  0  0  0  0
    2.4226    7.2388   -2.0760 H   0  0  0  0  0  0  0  0  0  0  0  0
    1.9952    6.5132   -0.4895 H   0  0  0  0  0  0  0  0  0  0  0  0
    3.7104    6.8811   -0.8760 H   0  0  0  0  0  0  0  0  0  0  0  0
 23 25  2  0  0  0  0
 22 23  1  0  0  0  0
 24 26  1  0  0  0  0
 22 24  2  0  0  0  0
 25 27  1  0  0  0  0
 26 27  2  0  0  0  0
 21 22  1  0  0  0  0
 27 28  1  0  0  0  0
  1  3  1  0  0  0  0
  1  7  1  0  0  0  0
  1  2  2  0  0  0  0
 39 40  1  0  0  0  0
 40 48  1  0  0  0  0
 40 41  2  0  0  0  0
  8  9  1  0  0  0  0
  9 17  1  0  0  0  0
  9 10  2  0  0  0  0
 18 19  1  0  0  0  0
 19 38  1  0  0  0  0
 19 20  2  0  0  0  0
 39 42  1  0  0  0  0
  8 11  1  0  0  0  0
 48 49  1  0  0  0  0
 18 21  1  0  0  0  0
 38 39  1  0  0  0  0
  7  8  1  0  0  0  0
 17 18  1  0  0  0  0
 23 33  1  0  0  0  0
 24 34  1  0  0  0  0
 25 35  1  0  0  0  0
 26 36  1  0  0  0  0
  3  4  1  0  0  0  0
  3  5  1  0  0  0  0
  3  6  1  0  0  0  0
 42 45  1  0  0  0  0
 42 46  1  0  0  0  0
 42 47  1  0  0  0  0
 11 14  1  0  0  0  0
 11 15  1  0  0  0  0
 11 16  1  0  0  0  0
 49 51  1  0  0  0  0
 49 52  1  0  0  0  0
 49 53  1  0  0  0  0
 21 31  1  0  0  0  0
 21 32  1  0  0  0  0
 39 44  1  0  0  0  0
  8 13  1  0  0  0  0
 18 30  1  0  0  0  0
 48 50  1  0  0  0  0
  7 12  1  0  0  0  0
 38 43  1  0  0  0  0
 17 29  1  0  0  0  0
 28 37  1  0  0  0  0
M  END
$$$$

  -OEChem-05262214473D

 53 53  0     1  0  0  0  0  0999 V2000
   -1.9298    0.2574    3.9747 C   0  0  0  0  0  0  0  0  0  0  0  0
   -0.9825   -0.3573    3.4990 O   0  0  0  0  0  0  0  0  0  0  0  0
   -2.3617   -0.0250    5.3754 C   0  0  0  0  0  0  0  0  0  0  0  0
   -3.1214   -0.8213    5.4288 H   0  0  0  0  0  0  0  0  0  0  0  0
   -1.5305   -0.3726    6.0097 H   0  0  0  0  0  0  0  0  0  0  0  0
   -2.7997    0.8299    5.9150 H   0  0  0  0  0  0  0  0  0  0  0  0
   -2.6795    1.2298    3.3336 N   0  0  0  0  0  0  0  0  0  0  0  0
   -2.4327    1.6559    1.9812 C   0  0  2  0  0  0  0  0  0  0  0  0
   -1.0977    1.0705    1.5400 C   0  0  0  0  0  0  0  0  0  0  0  0
   -0.2256    0.7177    2.3313 O   0  0  0  0  0  0  0  0  0  0  0  0
   -2.4239    3.1726    1.8718 C   0  0  0  0  0  0  0  0  0  0  0  0
   -3.4446    1.6657    3.8454 H   0  0  0  0  0  0  0  0  0  0  0  0
   -3.2368    1.2374    1.3661 H   0  0  0  0  0  0  0  0  0  0  0  0
   -1.6248    3.6099    2.4815 H   0  0  0  0  0  0  0  0  0  0  0  0
   -2.2644    3.4949    0.8375 H   0  0  0  0  0  0  0  0  0  0  0  0
   -3.3741    3.5939    2.2175 H   0  0  0  0  0  0  0  0  0  0  0  0
   -0.9750    1.0274    0.1566 N   0  0  0  0  0  0  0  0  0  0  0  0
    0.2023    0.5266   -0.5070 C   0  0  2  0  0  0  0  0  0  0  0  0
    1.1451    1.7081   -0.7055 C   0  0  0  0  0  0  0  0  0  0  0  0
    1.8311    2.1762    0.2007 O   0  0  0  0  0  0  0  0  0  0  0  0
   -0.1262   -0.1254   -1.8551 C   0  0  0  0  0  0  0  0  0  0  0  0
   -0.9303   -1.3942   -1.7092 C   0  0  0  0  0  0  0  0  0  0  0  0
   -0.2907   -2.5930   -1.3938 C   0  0  0  0  0  0  0  0  0  0  0  0
   -2.3130   -1.3681   -1.8905 C   0  0  0  0  0  0  0  0  0  0  0  0
   -1.0339   -3.7657   -1.2596 C   0  0  0  0  0  0  0  0  0  0  0  0
   -3.0563   -2.5408   -1.7563 C   0  0  0  0  0  0  0  0  0  0  0  0
   -2.4167   -3.7396   -1.4409 C   0  0  0  0  0  0  0  0  0  0  0  0
   -3.1416   -4.8843   -1.3111 O   0  0  0  0  0  0  0  0  0  0  0  0
   -1.7582    1.3241   -0.4207 H   0  0  0  0  0  0  0  0  0  0  0  0
    0.6662   -0.1914    0.1794 H   0  0  0  0  0  0  0  0  0  0  0  0
    0.7976   -0.3353   -2.4112 H   0  0  0  0  0  0  0  0  0  0  0  0
   -0.6924    0.5695   -2.4893 H   0  0  0  0  0  0  0  0  0  0  0  0
    0.7861   -2.6226   -1.2508 H   0  0  0  0  0  0  0  0  0  0  0  0
   -2.8199   -0.4384   -2.1363 H   0  0  0  0  0  0  0  0  0  0  0  0
   -0.5299   -4.6967   -1.0140 H   0  0  0  0  0  0  0  0  0  0  0  0
   -4.1329   -2.5139   -1.8991 H   0  0  0  0  0  0  0  0  0  0  0  0
   -4.0829   -4.7056   -1.4657 H   0  0  0  0  0  0  0  0  0  0  0  0
    1.1642    2.1419   -2.0238 N   0  0  0  0  0  0  0  0  0  0  0  0
    1.9907    3.2327   -2.4884 C   0  0  2  0  0  0  0  0  0  0  0  0
    1.7750    4.4167   -1.5551 C   0  0  0  0  0  0  0  0  0  0  0  0
    0.7691    4.5492   -0.8610 O   0  0  0  0  0  0  0  0  0  0  0  0
    1.6588    3.6053   -3.9249 C   0  0  0  0  0  0  0  0  0  0  0  0
    0.5672    1.6689   -2.6958 H   0  0  0  0  0  0  0  0  0  0  0  0
    3.0302    2.8947   -2.4163 H   0  0  0  0  0  0  0  0  0  0  0  0
    0.6212    3.9464   -4.0169 H   0  0  0  0  0  0  0  0  0  0  0  0
    2.3052    4.4126   -4.2848 H   0  0  0  0  0  0  0  0  0  0  0  0
    1.7859    2.7445   -4.5902 H   0  0  0  0  0  0  0  0  0  0  0  0
    2.8181    5.3298   -1.6208 N   0  0  0  0  0  0  0  0  0  0  0  0
    2.8417    6.5441   -0.8393 C   0  0  0  0  0  0  0  0  0  0  0  0
    3.6211    5.1295   -2.2098 H   0  0  0  0  0  0  0  0  0  0  0  0
    2.4013    7.3655   -1.4236 H   0  0  0  0  0  0  0  0  0  0  0  0
    2.2604    6.3978    0.0831 H   0  0  0  0  0  0  0  0  0  0  0  0
    3.8815    6.7941   -0.5817 H   0  0  0  0  0  0  0  0  0  0  0  0
 23 25  2  0  0  0  0
 22 23  1  0  0  0  0
 24 26  1  0  0  0  0
 22 24  2  0  0  0  0
 25 27  1  0  0  0  0
 26 27  2  0  0  0  0
 21 22  1  0  0  0  0
 27 28  1  0  0  0  0
  1  3  1  0  0  0  0
  1  7  1  0  0  0  0
  1  2  2  0  0  0  0
 39 40  1  0  0  0  0
 40 48  1  0  0  0  0
 40 41  2  0  0  0  0
  8  9  1  0  0  0  0
  9 17  1  0  0  0  0
  9 10  2  0  0  0  0
 18 19  1  0  0  0  0
 19 38  1  0  0  0  0
 19 20  2  0  0  0  0
 39 42  1  0  0  0  0
  8 11  1  0  0  0  0
 48 49  1  0  0  0  0
 18 21  1  0  0  0  0
 38 39  1  0  0  0  0
  7  8  1  0  0  0  0
 17 18  1  0  0  0  0
 23 33  1  0  0  0  0
 24 34  1  0  0  0  0
 25 35  1  0  0  0  0
 26 36  1  0  0  0  0
  3  4  1  0  0  0  0
  3  5  1  0  0  0  0
  3  6  1  0  0  0  0
 42 45  1  0  0  0  0
 42 46  1  0  0  0  0
 42 47  1  0  0  0  0
 11 14  1  0  0  0  0
 11 15  1  0  0  0  0
 11 16  1  0  0  0  0
 49 51  1  0  0  0  0
 49 52  1  0  0  0  0
 49 53  1  0  0  0  0
 21 31  1  0  0  0  0
 21 32  1  0  0  0  0
 39 44  1  0  0  0  0
  8 13  1  0  0  0  0
 18 30  1  0  0  0  0
 48 50  1  0  0  0  0
  7 12  1  0  0  0  0
 38 43  1  0  0  0  0
 17 29  1  0  0  0  0
 28 37  1  0  0  0  0
M  END
$$$$

  -OEChem-05262214473D

 53 53  0     1  0  0  0  0  0999 V2000
   -1.9298    0.2574    3.9747 C   0  0  0  0  0  0  0  0  0  0  0  0
   -0.9825   -0.3573    3.4990 O   0  0  0  0  0  0  0  0  0  0  0  0
   -2.3617   -0.0250    5.3754 C   0  0  0  0  0  0  0  0  0  0  0  0
   -3.1214   -0.8213    5.4288 H   0  0  0  0  0  0  0  0  0  0  0  0
   -1.5305   -0.3726    6.0097 H   0  0  0  0  0  0  0  0  0  0  0  0
   -2.7997    0.8299    5.9150 H   0  0  0  0  0  0  0  0  0  0  0  0
   -2.6795    1.2298    3.3336 N   0  0  0  0  0  0  0  0  0  0  0  0
   -2.4327    1.6559    1.9812 C   0  0  2  0  0  0  0  0  0  0  0  0
   -1.0977    1.0705    1.5400 C   0  0  0  0  0  0  0  0  0  0  0  0
   -0.2256    0.7177    2.3313 O   0  0  0  0  0  0  0  0  0  0  0  0
   -2.4239    3.1726    1.8718 C   0  0  0  0  0  0  0  0  0  0  0  0
   -3.4446    1.6657    3.8454 H   0  0  0  0  0  0  0  0  0  0  0  0
   -3.2368    1.2374    1.3661 H   0  0  0  0  0  0  0  0  0  0  0  0
   -1.6248    3.6099    2.4815 H   0  0  0  0  0  0  0  0  0  0  0  0
   -2.2644    3.4949    0.8375 H   0  0  0  0  0  0  0  0  0  0  0  0
   -3.3741    3.5939    2.2175 H   0  0  0  0  0  0  0  0  0  0  0  0
   -0.9750    1.0274    0.1566 N   0  0  0  0  0  0  0  0  0  0  0  0
    0.2023    0.5266   -0.5070 C   0  0  2  0  0  0  0  0  0  0  0  0
    1.1451    1.7081   -0.7055 C   0  0  0  0  0  0  0  0  0  0  0  0
    2.0194    2.0098    0.1041 O   0  0  0  0  0  0  0  0  0  0  0  0
   -0.1262   -0.1254   -1.8551 C   0  0  0  0  0  0  0  0  0  0  0  0
   -0.9303   -1.3942   -1.7092 C   0  0  0  0  0  0  0  0  0  0  0  0
   -0.2907   -2.5930   -1.3938 C   0  0  0  0  0  0  0  0  0  0  0  0
   -2.3130   -1.3681   -1.8905 C   0  0  0  0  0  0  0  0  0  0  0  0
   -1.0339   -3.7657   -1.2596 C   0  0  0  0  0  0  0  0  0  0  0  0
   -3.0563   -2.5408   -1.7563 C   0  0  0  0  0  0  0  0  0  0  0  0
   -2.4167   -3.7396   -1.4409 C   0  0  0  0  0  0  0  0  0  0  0  0
   -3.1416   -4.8843   -1.3111 O   0  0  0  0  0  0  0  0  0  0  0  0
   -1.7582    1.3241   -0.4207 H   0  0  0  0  0  0  0  0  0  0  0  0
    0.6662   -0.1914    0.1794 H   0  0  0  0  0  0  0  0  0  0  0  0
    0.7976   -0.3353   -2.4112 H   0  0  0  0  0  0  0  0  0  0  0  0
   -0.6924    0.5695   -2.4893 H   0  0  0  0  0  0  0  0  0  0  0  0
    0.7861   -2.6226   -1.2508 H   0  0  0  0  0  0  0  0  0  0  0  0
   -2.8199   -0.4384   -2.1363 H   0  0  0  0  0  0  0  0  0  0  0  0
   -0.5299   -4.6967   -1.0140 H   0  0  0  0  0  0  0  0  0  0  0  0
   -4.1329   -2.5139   -1.8991 H   0  0  0  0  0  0  0  0  0  0  0  0
   -4.0829   -4.7056   -1.4657 H   0  0  0  0  0  0  0  0  0  0  0  0
    0.9246    2.3512   -1.9155 N   0  0  0  0  0  0  0  0  0  0  0  0
    1.6964    3.4887   -2.3618 C   0  0  2  0  0  0  0  0  0  0  0  0
    1.7291    4.5079   -1.2305 C   0  0  0  0  0  0  0  0  0  0  0  0
    0.8884    4.5425   -0.3344 O   0  0  0  0  0  0  0  0  0  0  0  0
    1.1060    4.0970   -3.6244 C   0  0  0  0  0  0  0  0  0  0  0  0
    0.1836    2.0049   -2.5178 H   0  0  0  0  0  0  0  0  0  0  0  0
    2.7114    3.1256   -2.5564 H   0  0  0  0  0  0  0  0  0  0  0  0
    0.0891    4.4664   -3.4489 H   0  0  0  0  0  0  0  0  0  0  0  0
    1.7079    4.9409   -3.9772 H   0  0  0  0  0  0  0  0  0  0  0  0
    1.0557    3.3544   -4.4280 H   0  0  0  0  0  0  0  0  0  0  0  0
    2.7830    5.4011   -1.3631 N   0  0  0  0  0  0  0  0  0  0  0  0
    3.0214    6.4708   -0.4223 C   0  0  0  0  0  0  0  0  0  0  0  0
    3.4425    5.2859   -2.1269 H   0  0  0  0  0  0  0  0  0  0  0  0
    2.5157    7.3841   -0.7689 H   0  0  0  0  0  0  0  0  0  0  0  0
    2.6275    6.1857    0.5644 H   0  0  0  0  0  0  0  0  0  0  0  0
    4.1028    6.6571   -0.3456 H   0  0  0  0  0  0  0  0  0  0  0  0
 23 25  2  0  0  0  0
 22 23  1  0  0  0  0
 24 26  1  0  0  0  0
 22 24  2  0  0  0  0
 25 27  1  0  0  0  0
 26 27  2  0  0  0  0
 21 22  1  0  0  0  0
 27 28  1  0  0  0  0
  1  3  1  0  0  0  0
  1  7  1  0  0  0  0
  1  2  2  0  0  0  0
 39 40  1  0  0  0  0
 40 48  1  0  0  0  0
 40 41  2  0  0  0  0
  8  9  1  0  0  0  0
  9 17  1  0  0  0  0
  9 10  2  0  0  0  0
 18 19  1  0  0  0  0
 19 38  1  0  0  0  0
 19 20  2  0  0  0  0
 39 42  1  0  0  0  0
  8 11  1  0  0  0  0
 48 49  1  0  0  0  0
 18 21  1  0  0  0  0
 38 39  1  0  0  0  0
  7  8  1  0  0  0  0
 17 18  1  0  0  0  0
 23 33  1  0  0  0  0
 24 34  1  0  0  0  0
 25 35  1  0  0  0  0
 26 36  1  0  0  0  0
  3  4  1  0  0  0  0
  3  5  1  0  0  0  0
  3  6  1  0  0  0  0
 42 45  1  0  0  0  0
 42 46  1  0  0  0  0
 42 47  1  0  0  0  0
 11 14  1  0  0  0  0
 11 15  1  0  0  0  0
 11 16  1  0  0  0  0
 49 51  1  0  0  0  0
 49 52  1  0  0  0  0
 49 53  1  0  0  0  0
 21 31  1  0  0  0  0
 21 32  1  0  0  0  0
 39 44  1  0  0  0  0
  8 13  1  0  0  0  0
 18 30  1  0  0  0  0
 48 50  1  0  0  0  0
  7 12  1  0  0  0  0
 38 43  1  0  0  0  0
 17 29  1  0  0  0  0
 28 37  1  0  0  0  0
M  END
$$$$

  -OEChem-05262214473D

 53 53  0     1  0  0  0  0  0999 V2000
   -1.9298    0.2574    3.9747 C   0  0  0  0  0  0  0  0  0  0  0  0
   -0.9825   -0.3573    3.4990 O   0  0  0  0  0  0  0  0  0  0  0  0
   -2.3617   -0.0250    5.3754 C   0  0  0  0  0  0  0  0  0  0  0  0
   -3.1214   -0.8213    5.4288 H   0  0  0  0  0  0  0  0  0  0  0  0
   -1.5305   -0.3726    6.0097 H   0  0  0  0  0  0  0  0  0  0  0  0
   -2.7997    0.8299    5.9150 H   0  0  0  0  0  0  0  0  0  0  0  0
   -2.6795    1.2298    3.3336 N   0  0  0  0  0  0  0  0  0  0  0  0
   -2.4327    1.6559    1.9812 C   0  0  2  0  0  0  0  0  0  0  0  0
   -1.0977    1.0705    1.5400 C   0  0  0  0  0  0  0  0  0  0  0  0
   -0.2256    0.7177    2.3313 O   0  0  0  0  0  0  0  0  0  0  0  0
   -2.4239    3.1726    1.8718 C   0  0  0  0  0  0  0  0  0  0  0  0
   -3.4446    1.6657    3.8454 H   0  0  0  0  0  0  0  0  0  0  0  0
   -3.2368    1.2374    1.3661 H   0  0  0  0  0  0  0  0  0  0  0  0
   -1.6248    3.6099    2.4815 H   0  0  0  0  0  0  0  0  0  0  0  0
   -2.2644    3.4949    0.8375 H   0  0  0  0  0  0  0  0  0  0  0  0
   -3.3741    3.5939    2.2175 H   0  0  0  0  0  0  0  0  0  0  0  0
   -0.9750    1.0274    0.1566 N   0  0  0  0  0  0  0  0  0  0  0  0
    0.2023    0.5266   -0.5070 C   0  0  2  0  0  0  0  0  0  0  0  0
    1.1451    1.7081   -0.7055 C   0  0  0  0  0  0  0  0  0  0  0  0
    2.1762    1.8581   -0.0535 O   0  0  0  0  0  0  0  0  0  0  0  0
   -0.1262   -0.1254   -1.8551 C   0  0  0  0  0  0  0  0  0  0  0  0
   -0.9303   -1.3942   -1.7092 C   0  0  0  0  0  0  0  0  0  0  0  0
   -0.2907   -2.5930   -1.3938 C   0  0  0  0  0  0  0  0  0  0  0  0
   -2.3130   -1.3681   -1.8905 C   0  0  0  0  0  0  0  0  0  0  0  0
   -1.0339   -3.7657   -1.2596 C   0  0  0  0  0  0  0  0  0  0  0  0
   -3.0563   -2.5408   -1.7563 C   0  0  0  0  0  0  0  0  0  0  0  0
   -2.4167   -3.7396   -1.4409 C   0  0  0  0  0  0  0  0  0  0  0  0
   -3.1416   -4.8843   -1.3111 O   0  0  0  0  0  0  0  0  0  0  0  0
   -1.7582    1.3241   -0.4207 H   0  0  0  0  0  0  0  0  0  0  0  0
    0.6662   -0.1914    0.1794 H   0  0  0  0  0  0  0  0  0  0  0  0
    0.7976   -0.3353   -2.4112 H   0  0  0  0  0  0  0  0  0  0  0  0
   -0.6924    0.5695   -2.4893 H   0  0  0  0  0  0  0  0  0  0  0  0
    0.7861   -2.6226   -1.2508 H   0  0  0  0  0  0  0  0  0  0  0  0
   -2.8199   -0.4384   -2.1363 H   0  0  0  0  0  0  0  0  0  0  0  0
   -0.5299   -4.6967   -1.0140 H   0  0  0  0  0  0  0  0  0  0  0  0
   -4.1329   -2.5139   -1.8991 H   0  0  0  0  0  0  0  0  0  0  0  0
   -4.0829   -4.7056   -1.4657 H   0  0  0  0  0  0  0  0  0  0  0  0
    0.7221    2.5441   -1.7295 N   0  0  0  0  0  0  0  0  0  0  0  0
    1.4462    3.7257   -2.1395 C   0  0  2  0  0  0  0  0  0  0  0  0
    1.7530    4.5455   -0.8932 C   0  0  0  0  0  0  0  0  0  0  0  0
    1.1090    4.4477    0.1493 O   0  0  0  0  0  0  0  0  0  0  0  0
    0.6488    4.5424   -3.1445 C   0  0  0  0  0  0  0  0  0  0  0  0
   -0.1399    2.3139   -2.2151 H   0  0  0  0  0  0  0  0  0  0  0  0
    2.3832    3.3817   -2.5909 H   0  0  0  0  0  0  0  0  0  0  0  0
   -0.2935    4.8958   -2.7103 H   0  0  0  0  0  0  0  0  0  0  0  0
    1.2105    5.4221   -3.4757 H   0  0  0  0  0  0  0  0  0  0  0  0
    0.4035    3.9422   -4.0273 H   0  0  0  0  0  0  0  0  0  0  0  0
    2.8031    5.4300   -1.0957 N   0  0  0  0  0  0  0  0  0  0  0  0
    3.2762    6.3271   -0.0674 C   0  0  0  0  0  0  0  0  0  0  0  0
    3.2920    5.4298   -1.9861 H   0  0  0  0  0  0  0  0  0  0  0  0
    2.7583    7.2934   -0.1564 H   0  0  0  0  0  0  0  0  0  0  0  0
    3.0715    5.8914    0.9217 H   0  0  0  0  0  0  0  0  0  0  0  0
    4.3593    6.4796   -0.1839 H   0  0  0  0  0  0  0  0  0  0  0  0
 23 25  2  0  0  0  0
 22 23  1  0  0  0  0
 24 26  1  0  0  0  0
 22 24  2  0  0  0  0
 25 27  1  0  0  0  0
 26 27  2  0  0  0  0
 21 22  1  0  0  0  0
 27 28  1  0  0  0  0
  1  3  1  0  0  0  0
  1  7  1  0  0  0  0
  1  2  2  0  0  0  0
 39 40  1  0  0  0  0
 40 48  1  0  0  0  0
 40 41  2  0  0  0  0
  8  9  1  0  0  0  0
  9 17  1  0  0  0  0
  9 10  2  0  0  0  0
 18 19  1  0  0  0  0
 19 38  1  0  0  0  0
 19 20  2  0  0  0  0
 39 42  1  0  0  0  0
  8 11  1  0  0  0  0
 48 49  1  0  0  0  0
 18 21  1  0  0  0  0
 38 39  1  0  0  0  0
  7  8  1  0  0  0  0
 17 18  1  0  0  0  0
 23 33  1  0  0  0  0
 24 34  1  0  0  0  0
 25 35  1  0  0  0  0
 26 36  1  0  0  0  0
  3  4  1  0  0  0  0
  3  5  1  0  0  0  0
  3  6  1  0  0  0  0
 42 45  1  0  0  0  0
 42 46  1  0  0  0  0
 42 47  1  0  0  0  0
 11 14  1  0  0  0  0
 11 15  1  0  0  0  0
 11 16  1  0  0  0  0
 49 51  1  0  0  0  0
 49 52  1  0  0  0  0
 49 53  1  0  0  0  0
 21 31  1  0  0  0  0
 21 32  1  0  0  0  0
 39 44  1  0  0  0  0
  8 13  1  0  0  0  0
 18 30  1  0  0  0  0
 48 50  1  0  0  0  0
  7 12  1  0  0  0  0
 38 43  1  0  0  0  0
 17 29  1  0  0  0  0
 28 37  1  0  0  0  0
M  END
$$$$

  -OEChem-05262214473D

 53 53  0     1  0  0  0  0  0999 V2000
   -1.9298    0.2574    3.9747 C   0  0  0  0  0  0  0  0  0  0  0  0
   -0.9825   -0.3573    3.4990 O   0  0  0  0  0  0  0  0  0  0  0  0
   -2.3617   -0.0250    5.3754 C   0  0  0  0  0  0  0  0  0  0  0  0
   -3.1214   -0.8213    5.4288 H   0  0  0  0  0  0  0  0  0  0  0  0
   -1.5305   -0.3726    6.0097 H   0  0  0  0  0  0  0  0  0  0  0  0
   -2.7997    0.8299    5.9150 H   0  0  0  0  0  0  0  0  0  0  0  0
   -2.6795    1.2298    3.3336 N   0  0  0  0  0  0  0  0  0  0  0  0
   -2.4327    1.6559    1.9812 C   0  0  2  0  0  0  0  0  0  0  0  0
   -1.0977    1.0705    1.5400 C   0  0  0  0  0  0  0  0  0  0  0  0
   -0.2256    0.7177    2.3313 O   0  0  0  0  0  0  0  0  0  0  0  0
   -2.4239    3.1726    1.8718 C   0  0  0  0  0  0  0  0  0  0  0  0
   -3.4446    1.6657    3.8454 H   0  0  0  0  0  0  0  0  0  0  0  0
   -3.2368    1.2374    1.3661 H   0  0  0  0  0  0  0  0  0  0  0  0
   -1.6248    3.6099    2.4815 H   0  0  0  0  0  0  0  0  0  0  0  0
   -2.2644    3.4949    0.8375 H   0  0  0  0  0  0  0  0  0  0  0  0
   -3.3741    3.5939    2.2175 H   0  0  0  0  0  0  0  0  0  0  0  0
   -0.9750    1.0274    0.1566 N   0  0  0  0  0  0  0  0  0  0  0  0
    0.2023    0.5266   -0.5070 C   0  0  2  0  0  0  0  0  0  0  0  0
    1.1451    1.7081   -0.7055 C   0  0  0  0  0  0  0  0  0  0  0  0
    2.2910    1.7316   -0.2615 O   0  0  0  0  0  0  0  0  0  0  0  0
   -0.1262   -0.1254   -1.8551 C   0  0  0  0  0  0  0  0  0  0  0  0
   -0.9303   -1.3942   -1.7092 C   0  0  0  0  0  0  0  0  0  0  0  0
   -0.2907   -2.5930   -1.3938 C   0  0  0  0  0  0  0  0  0  0  0  0
   -2.3130   -1.3681   -1.8905 C   0  0  0  0  0  0  0  0  0  0  0  0
   -1.0339   -3.7657   -1.2596 C   0  0  0  0  0  0  0  0  0  0  0  0
   -3.0563   -2.5408   -1.7563 C   0  0  0  0  0  0  0  0  0  0  0  0
   -2.4167   -3.7396   -1.4409 C   0  0  0  0  0  0  0  0  0  0  0  0
   -3.1416   -4.8843   -1.3111 O   0  0  0  0  0  0  0  0  0  0  0  0
   -1.7582    1.3241   -0.4207 H   0  0  0  0  0  0  0  0  0  0  0  0
    0.6662   -0.1914    0.1794 H   0  0  0  0  0  0  0  0  0  0  0  0
    0.7976   -0.3353   -2.4112 H   0  0  0  0  0  0  0  0  0  0  0  0
   -0.6924    0.5695   -2.4893 H   0  0  0  0  0  0  0  0  0  0  0  0
    0.7861   -2.6226   -1.2508 H   0  0  0  0  0  0  0  0  0  0  0  0
   -2.8199   -0.4384   -2.1363 H   0  0  0  0  0  0  0  0  0  0  0  0
   -0.5299   -4.6967   -1.0140 H   0  0  0  0  0  0  0  0  0  0  0  0
   -4.1329   -2.5139   -1.8991 H   0  0  0  0  0  0  0  0  0  0  0  0
   -4.0829   -4.7056   -1.4657 H   0  0  0  0  0  0  0  0  0  0  0  0
    0.5702    2.7075   -1.4782 N   0  0  0  0  0  0  0  0  0  0  0  0
    1.2571    3.9275   -1.8367 C   0  0  2  0  0  0  0  0  0  0  0  0
    1.8450    4.5270   -0.5661 C   0  0  0  0  0  0  0  0  0  0  0  0
    1.4159    4.2713    0.5571 O   0  0  0  0  0  0  0  0  0  0  0  0
    0.3185    4.9112   -2.5180 C   0  0  0  0  0  0  0  0  0  0  0  0
   -0.3812    2.5747   -1.8084 H   0  0  0  0  0  0  0  0  0  0  0  0
    2.0678    3.6457   -2.5173 H   0  0  0  0  0  0  0  0  0  0  0  0
   -0.5004    5.2052   -1.8513 H   0  0  0  0  0  0  0  0  0  0  0  0
    0.8469    5.8233   -2.8146 H   0  0  0  0  0  0  0  0  0  0  0  0
   -0.1263    4.4678   -3.4154 H   0  0  0  0  0  0  0  0  0  0  0  0
    2.8772    5.4143   -0.8368 N   0  0  0  0  0  0  0  0  0  0  0  0
    3.5886    6.1229    0.2014 C   0  0  0  0  0  0  0  0  0  0  0  0
    3.1796    5.5512   -1.7968 H   0  0  0  0  0  0  0  0  0  0  0  0
    3.1123    7.0997    0.3720 H   0  0  0  0  0  0  0  0  0  0  0  0
    3.5622    5.5349    1.1307 H   0  0  0  0  0  0  0  0  0  0  0  0
    4.6335    6.2736   -0.1075 H   0  0  0  0  0  0  0  0  0  0  0  0
 23 25  2  0  0  0  0
 22 23  1  0  0  0  0
 24 26  1  0  0  0  0
 22 24  2  0  0  0  0
 25 27  1  0  0  0  0
 26 27  2  0  0  0  0
 21 22  1  0  0  0  0
 27 28  1  0  0  0  0
  1  3  1  0  0  0  0
  1  7  1  0  0  0  0
  1  2  2  0  0  0  0
 39 40  1  0  0  0  0
 40 48  1  0  0  0  0
 40 41  2  0  0  0  0
  8  9  1  0  0  0  0
  9 17  1  0  0  0  0
  9 10  2  0  0  0  0
 18 19  1  0  0  0  0
 19 38  1  0  0  0  0
 19 20  2  0  0  0  0
 39 42  1  0  0  0  0
  8 11  1  0  0  0  0
 48 49  1  0  0  0  0
 18 21  1  0  0  0  0
 38 39  1  0  0  0  0
  7  8  1  0  0  0  0
 17 18  1  0  0  0  0
 23 33  1  0  0  0  0
 24 34  1  0  0  0  0
 25 35  1  0  0  0  0
 26 36  1  0  0  0  0
  3  4  1  0  0  0  0
  3  5  1  0  0  0  0
  3  6  1  0  0  0  0
 42 45  1  0  0  0  0
 42 46  1  0  0  0  0
 42 47  1  0  0  0  0
 11 14  1  0  0  0  0
 11 15  1  0  0  0  0
 11 16  1  0  0  0  0
 49 51  1  0  0  0  0
 49 52  1  0  0  0  0
 49 53  1  0  0  0  0
 21 31  1  0  0  0  0
 21 32  1  0  0  0  0
 39 44  1  0  0  0  0
  8 13  1  0  0  0  0
 18 30  1  0  0  0  0
 48 50  1  0  0  0  0
  7 12  1  0  0  0  0
 38 43  1  0  0  0  0
 17 29  1  0  0  0  0
 28 37  1  0  0  0  0
M  END
$$$$

  -OEChem-05262214473D

 53 53  0     1  0  0  0  0  0999 V2000
   -1.9298    0.2574    3.9747 C   0  0  0  0  0  0  0  0  0  0  0  0
   -0.9825   -0.3573    3.4990 O   0  0  0  0  0  0  0  0  0  0  0  0
   -2.3617   -0.0250    5.3754 C   0  0  0  0  0  0  0  0  0  0  0  0
   -3.1214   -0.8213    5.4288 H   0  0  0  0  0  0  0  0  0  0  0  0
   -1.5305   -0.3726    6.0097 H   0  0  0  0  0  0  0  0  0  0  0  0
   -2.7997    0.8299    5.9150 H   0  0  0  0  0  0  0  0  0  0  0  0
   -2.6795    1.2298    3.3336 N   0  0  0  0  0  0  0  0  0  0  0  0
   -2.4327    1.6559    1.9812 C   0  0  2  0  0  0  0  0  0  0  0  0
   -1.0977    1.0705    1.5400 C   0  0  0  0  0  0  0  0  0  0  0  0
   -0.2256    0.7177    2.3313 O   0  0  0  0  0  0  0  0  0  0  0  0
   -2.4239    3.1726    1.8718 C   0  0  0  0  0  0  0  0  0  0  0  0
   -3.4446    1.6657    3.8454 H   0  0  0  0  0  0  0  0  0  0  0  0
   -3.2368    1.2374    1.3661 H   0  0  0  0  0  0  0  0  0  0  0  0
   -1.6248    3.6099    2.4815 H   0  0  0  0  0  0  0  0  0  0  0  0
   -2.2644    3.4949    0.8375 H   0  0  0  0  0  0  0  0  0  0  0  0
   -3.3741    3.5939    2.2175 H   0  0  0  0  0  0  0  0  0  0  0  0
   -0.9750    1.0274    0.1566 N   0  0  0  0  0  0  0  0  0  0  0  0
    0.2023    0.5266   -0.5070 C   0  0  2  0  0  0  0  0  0  0  0  0
    1.1451    1.7081   -0.7055 C   0  0  0  0  0  0  0  0  0  0  0  0
    2.3559    1.6388   -0.5057 O   0  0  0  0  0  0  0  0  0  0  0  0
   -0.1262   -0.1254   -1.8551 C   0  0  0  0  0  0  0  0  0  0  0  0
   -0.9303   -1.3942   -1.7092 C   0  0  0  0  0  0  0  0  0  0  0  0
   -0.2907   -2.5930   -1.3938 C   0  0  0  0  0  0  0  0  0  0  0  0
   -2.3130   -1.3681   -1.8905 C   0  0  0  0  0  0  0  0  0  0  0  0
   -1.0339   -3.7657   -1.2596 C   0  0  0  0  0  0  0  0  0  0  0  0
   -3.0563   -2.5408   -1.7563 C   0  0  0  0  0  0  0  0  0  0  0  0
   -2.4167   -3.7396   -1.4409 C   0  0  0  0  0  0  0  0  0  0  0  0
   -3.1416   -4.8843   -1.3111 O   0  0  0  0  0  0  0  0  0  0  0  0
   -1.7582    1.3241   -0.4207 H   0  0  0  0  0  0  0  0  0  0  0  0
    0.6662   -0.1914    0.1794 H   0  0  0  0  0  0  0  0  0  0  0  0
    0.7976   -0.3353   -2.4112 H   0  0  0  0  0  0  0  0  0  0  0  0
   -0.6924    0.5695   -2.4893 H   0  0  0  0  0  0  0  0  0  0  0  0
    0.7861   -2.6226   -1.2508 H   0  0  0  0  0  0  0  0  0  0  0  0
   -2.8199   -0.4384   -2.1363 H   0  0  0  0  0  0  0  0  0  0  0  0
   -0.5299   -4.6967   -1.0140 H   0  0  0  0  0  0  0  0  0  0  0  0
   -4.1329   -2.5139   -1.8991 H   0  0  0  0  0  0  0  0  0  0  0  0
   -4.0829   -4.7056   -1.4657 H   0  0  0  0  0  0  0  0  0  0  0  0
    0.4794    2.8302   -1.1789 N   0  0  0  0  0  0  0  0  0  0  0  0
    1.1419    4.0803   -1.4740 C   0  0  2  0  0  0  0  0  0  0  0  0
    1.9988    4.4537   -0.2715 C   0  0  0  0  0  0  0  0  0  0  0  0
    1.7882    4.0253    0.8612 O   0  0  0  0  0  0  0  0  0  0  0  0
    0.1375    5.1783   -1.7876 C   0  0  0  0  0  0  0  0  0  0  0  0
   -0.5239    2.7698   -1.3254 H   0  0  0  0  0  0  0  0  0  0  0  0
    1.7869    3.8996   -2.3408 H   0  0  0  0  0  0  0  0  0  0  0  0
   -0.5176    5.3735   -0.9307 H   0  0  0  0  0  0  0  0  0  0  0  0
    0.6417    6.1173   -2.0387 H   0  0  0  0  0  0  0  0  0  0  0  0
   -0.4977    4.8953   -2.6339 H   0  0  0  0  0  0  0  0  0  0  0  0
    3.0002    5.3553   -0.6041 N   0  0  0  0  0  0  0  0  0  0  0  0
    3.9374    5.8721    0.3657 C   0  0  0  0  0  0  0  0  0  0  0  0
    3.1131    5.6420   -1.5719 H   0  0  0  0  0  0  0  0  0  0  0  0
    3.5538    6.8160    0.7803 H   0  0  0  0  0  0  0  0  0  0  0  0
    4.0660    5.1407    1.1771 H   0  0  0  0  0  0  0  0  0  0  0  0
    4.9068    6.0531   -0.1218 H   0  0  0  0  0  0  0  0  0  0  0  0
 23 25  2  0  0  0  0
 22 23  1  0  0  0  0
 24 26  1  0  0  0  0
 22 24  2  0  0  0  0
 25 27  1  0  0  0  0
 26 27  2  0  0  0  0
 21 22  1  0  0  0  0
 27 28  1  0  0  0  0
  1  3  1  0  0  0  0
  1  7  1  0  0  0  0
  1  2  2  0  0  0  0
 39 40  1  0  0  0  0
 40 48  1  0  0  0  0
 40 41  2  0  0  0  0
  8  9  1  0  0  0  0
  9 17  1  0  0  0  0
  9 10  2  0  0  0  0
 18 19  1  0  0  0  0
 19 38  1  0  0  0  0
 19 20  2  0  0  0  0
 39 42  1  0  0  0  0
  8 11  1  0  0  0  0
 48 49  1  0  0  0  0
 18 21  1  0  0  0  0
 38 39  1  0  0  0  0
  7  8  1  0  0  0  0
 17 18  1  0  0  0  0
 23 33  1  0  0  0  0
 24 34  1  0  0  0  0
 25 35  1  0  0  0  0
 26 36  1  0  0  0  0
  3  4  1  0  0  0  0
  3  5  1  0  0  0  0
  3  6  1  0  0  0  0
 42 45  1  0  0  0  0
 42 46  1  0  0  0  0
 42 47  1  0  0  0  0
 11 14  1  0  0  0  0
 11 15  1  0  0  0  0
 11 16  1  0  0  0  0
 49 51  1  0  0  0  0
 49 52  1  0  0  0  0
 49 53  1  0  0  0  0
 21 31  1  0  0  0  0
 21 32  1  0  0  0  0
 39 44  1  0  0  0  0
  8 13  1  0  0  0  0
 18 30  1  0  0  0  0
 48 50  1  0  0  0  0
  7 12  1  0  0  0  0
 38 43  1  0  0  0  0
 17 29  1  0  0  0  0
 28 37  1  0  0  0  0
M  END
$$$$

  -OEChem-05262214473D

 53 53  0     1  0  0  0  0  0999 V2000
   -1.9298    0.2574    3.9747 C   0  0  0  0  0  0  0  0  0  0  0  0
   -0.9825   -0.3573    3.4990 O   0  0  0  0  0  0  0  0  0  0  0  0
   -2.3617   -0.0250    5.3754 C   0  0  0  0  0  0  0  0  0  0  0  0
   -3.1214   -0.8213    5.4288 H   0  0  0  0  0  0  0  0  0  0  0  0
   -1.5305   -0.3726    6.0097 H   0  0  0  0  0  0  0  0  0  0  0  0
   -2.7997    0.8299    5.9150 H   0  0  0  0  0  0  0  0  0  0  0  0
   -2.6795    1.2298    3.3336 N   0  0  0  0  0  0  0  0  0  0  0  0
   -2.4327    1.6559    1.9812 C   0  0  2  0  0  0  0  0  0  0  0  0
   -1.0977    1.0705    1.5400 C   0  0  0  0  0  0  0  0  0  0  0  0
   -0.2256    0.7177    2.3313 O   0  0  0  0  0  0  0  0  0  0  0  0
   -2.4239    3.1726    1.8718 C   0  0  0  0  0  0  0  0  0  0  0  0
   -3.4446    1.6657    3.8454 H   0  0  0  0  0  0  0  0  0  0  0  0
   -3.2368    1.2374    1.3661 H   0  0  0  0  0  0  0  0  0  0  0  0
   -1.6248    3.6099    2.4815 H   0  0  0  0  0  0  0  0  0  0  0  0
   -2.2644    3.4949    0.8375 H   0  0  0  0  0  0  0  0  0  0  0  0
   -3.3741    3.5939    2.2175 H   0  0  0  0  0  0  0  0  0  0  0  0
   -0.9750    1.0274    0.1566 N   0  0  0  0  0  0  0  0  0  0  0  0
    0.2023    0.5266   -0.5070 C   0  0  2  0  0  0  0  0  0  0  0  0
    1.1451    1.7081   -0.7055 C   0  0  0  0  0  0  0  0  0  0  0  0
    2.3665    1.5860   -0.7694 O   0  0  0  0  0  0  0  0  0  0  0  0
   -0.1262   -0.1254   -1.8551 C   0  0  0  0  0  0  0  0  0  0  0  0
   -0.9303   -1.3942   -1.7092 C   0  0  0  0  0  0  0  0  0  0  0  0
   -0.2907   -2.5930   -1.3938 C   0  0  0  0  0  0  0  0  0  0  0  0
   -2.3130   -1.3681   -1.8905 C   0  0  0  0  0  0  0  0  0  0  0  0
   -1.0339   -3.7657   -1.2596 C   0  0  0  0  0  0  0  0  0  0  0  0
   -3.0563   -2.5408   -1.7563 C   0  0  0  0  0  0  0  0  0  0  0  0
   -2.4167   -3.7396   -1.4409 C   0  0  0  0  0  0  0  0  0  0  0  0
   -3.1416   -4.8843   -1.3111 O   0  0  0  0  0  0  0  0  0  0  0  0
   -1.7582    1.3241   -0.4207 H   0  0  0  0  0  0  0  0  0  0  0  0
    0.6662   -0.1914    0.1794 H   0  0  0  0  0  0  0  0  0  0  0  0
    0.7976   -0.3353   -2.4112 H   0  0  0  0  0  0  0  0  0  0  0  0
   -0.6924    0.5695   -2.4893 H   0  0  0  0  0  0  0  0  0  0  0  0
    0.7861   -2.6226   -1.2508 H   0  0  0  0  0  0  0  0  0  0  0  0
   -2.8199   -0.4384   -2.1363 H   0  0  0  0  0  0  0  0  0  0  0  0
   -0.5299   -4.6967   -1.0140 H   0  0  0  0  0  0  0  0  0  0  0  0
   -4.1329   -2.5139   -1.8991 H   0  0  0  0  0  0  0  0  0  0  0  0
   -4.0829   -4.7056   -1.4657 H   0  0  0  0  0  0  0  0  0  0  0  0
    0.4559    2.9039   -0.8520 N   0  0  0  0  0  0  0  0  0  0  0  0
    1.1086    4.1737   -1.0760 C   0  0  2  0  0  0  0  0  0  0  0  0
    2.2040    4.3305   -0.0296 C   0  0  0  0  0  0  0  0  0  0  0  0
    2.2005    3.7264    1.0409 O   0  0  0  0  0  0  0  0  0  0  0  0
    0.1182    5.3255   -1.0029 C   0  0  0  0  0  0  0  0  0  0  0  0
   -0.5583    2.8857   -0.7990 H   0  0  0  0  0  0  0  0  0  0  0  0
    1.5595    4.1260   -2.0733 H   0  0  0  0  0  0  0  0  0  0  0  0
   -0.3438    5.3893   -0.0110 H   0  0  0  0  0  0  0  0  0  0  0  0
    0.6091    6.2840   -1.2011 H   0  0  0  0  0  0  0  0  0  0  0  0
   -0.6852    5.1958   -1.7361 H   0  0  0  0  0  0  0  0  0  0  0  0
    3.1636    5.2569   -0.4134 N   0  0  0  0  0  0  0  0  0  0  0  0
    4.2989    5.5919    0.4142 C   0  0  0  0  0  0  0  0  0  0  0  0
    3.0971    5.6960   -1.3269 H   0  0  0  0  0  0  0  0  0  0  0  0
    4.0525    6.4617    1.0408 H   0  0  0  0  0  0  0  0  0  0  0  0
    4.5487    4.7355    1.0578 H   0  0  0  0  0  0  0  0  0  0  0  0
    5.1604    5.8333   -0.2256 H   0  0  0  0  0  0  0  0  0  0  0  0
 23 25  2  0  0  0  0
 22 23  1  0  0  0  0
 24 26  1  0  0  0  0
 22 24  2  0  0  0  0
 25 27  1  0  0  0  0
 26 27  2  0  0  0  0
 21 22  1  0  0  0  0
 27 28  1  0  0  0  0
  1  3  1  0  0  0  0
  1  7  1  0  0  0  0
  1  2  2  0  0  0  0
 39 40  1  0  0  0  0
 40 48  1  0  0  0  0
 40 41  2  0  0  0  0
  8  9  1  0  0  0  0
  9 17  1  0  0  0  0
  9 10  2  0  0  0  0
 18 19  1  0  0  0  0
 19 38  1  0  0  0  0
 19 20  2  0  0  0  0
 39 42  1  0  0  0  0
  8 11  1  0  0  0  0
 48 49  1  0  0  0  0
 18 21  1  0  0  0  0
 38 39  1  0  0  0  0
  7  8  1  0  0  0  0
 17 18  1  0  0  0  0
 23 33  1  0  0  0  0
 24 34  1  0  0  0  0
 25 35  1  0  0  0  0
 26 36  1  0  0  0  0
  3  4  1  0  0  0  0
  3  5  1  0  0  0  0
  3  6  1  0  0  0  0
 42 45  1  0  0  0  0
 42 46  1  0  0  0  0
 42 47  1  0  0  0  0
 11 14  1  0  0  0  0
 11 15  1  0  0  0  0
 11 16  1  0  0  0  0
 49 51  1  0  0  0  0
 49 52  1  0  0  0  0
 49 53  1  0  0  0  0
 21 31  1  0  0  0  0
 21 32  1  0  0  0  0
 39 44  1  0  0  0  0
  8 13  1  0  0  0  0
 18 30  1  0  0  0  0
 48 50  1  0  0  0  0
  7 12  1  0  0  0  0
 38 43  1  0  0  0  0
 17 29  1  0  0  0  0
 28 37  1  0  0  0  0
M  END
$$$$

  -OEChem-05262214473D

 53 53  0     1  0  0  0  0  0999 V2000
   -1.9298    0.2574    3.9747 C   0  0  0  0  0  0  0  0  0  0  0  0
   -0.9825   -0.3573    3.4990 O   0  0  0  0  0  0  0  0  0  0  0  0
   -2.3617   -0.0250    5.3754 C   0  0  0  0  0  0  0  0  0  0  0  0
   -3.1214   -0.8213    5.4288 H   0  0  0  0  0  0  0  0  0  0  0  0
   -1.5305   -0.3726    6.0097 H   0  0  0  0  0  0  0  0  0  0  0  0
   -2.7997    0.8299    5.9150 H   0  0  0  0  0  0  0  0  0  0  0  0
   -2.6795    1.2298    3.3336 N   0  0  0  0  0  0  0  0  0  0  0  0
   -2.4327    1.6559    1.9812 C   0  0  2  0  0  0  0  0  0  0  0  0
   -1.0977    1.0705    1.5400 C   0  0  0  0  0  0  0  0  0  0  0  0
   -0.2256    0.7177    2.3313 O   0  0  0  0  0  0  0  0  0  0  0  0
   -2.4239    3.1726    1.8718 C   0  0  0  0  0  0  0  0  0  0  0  0
   -3.4446    1.6657    3.8454 H   0  0  0  0  0  0  0  0  0  0  0  0
   -3.2368    1.2374    1.3661 H   0  0  0  0  0  0  0  0  0  0  0  0
   -1.6248    3.6099    2.4815 H   0  0  0  0  0  0  0  0  0  0  0  0
   -2.2644    3.4949    0.8375 H   0  0  0  0  0  0  0  0  0  0  0  0
   -3.3741    3.5939    2.2175 H   0  0  0  0  0  0  0  0  0  0  0  0
   -0.9750    1.0274    0.1566 N   0  0  0  0  0  0  0  0  0  0  0  0
    0.2023    0.5266   -0.5070 C   0  0  2  0  0  0  0  0  0  0  0  0
    1.1451    1.7081   -0.7055 C   0  0  0  0  0  0  0  0  0  0  0  0
    2.3220    1.5770   -1.0348 O   0  0  0  0  0  0  0  0  0  0  0  0
   -0.1262   -0.1254   -1.8551 C   0  0  0  0  0  0  0  0  0  0  0  0
   -0.9303   -1.3942   -1.7092 C   0  0  0  0  0  0  0  0  0  0  0  0
   -0.2907   -2.5930   -1.3938 C   0  0  0  0  0  0  0  0  0  0  0  0
   -2.3130   -1.3681   -1.8905 C   0  0  0  0  0  0  0  0  0  0  0  0
   -1.0339   -3.7657   -1.2596 C   0  0  0  0  0  0  0  0  0  0  0  0
   -3.0563   -2.5408   -1.7563 C   0  0  0  0  0  0  0  0  0  0  0  0
   -2.4167   -3.7396   -1.4409 C   0  0  0  0  0  0  0  0  0  0  0  0
   -3.1416   -4.8843   -1.3111 O   0  0  0  0  0  0  0  0  0  0  0  0
   -1.7582    1.3241   -0.4207 H   0  0  0  0  0  0  0  0  0  0  0  0
    0.6662   -0.1914    0.1794 H   0  0  0  0  0  0  0  0  0  0  0  0
    0.7976   -0.3353   -2.4112 H   0  0  0  0  0  0  0  0  0  0  0  0
   -0.6924    0.5695   -2.4893 H   0  0  0  0  0  0  0  0  0  0  0  0
    0.7861   -2.6226   -1.2508 H   0  0  0  0  0  0  0  0  0  0  0  0
   -2.8199   -0.4384   -2.1363 H   0  0  0  0  0  0  0  0  0  0  0  0
   -0.5299   -4.6967   -1.0140 H   0  0  0  0  0  0  0  0  0  0  0  0
   -4.1329   -2.5139   -1.8991 H   0  0  0  0  0  0  0  0  0  0  0  0
   -4.0829   -4.7056   -1.4657 H   0  0  0  0  0  0  0  0  0  0  0  0
    0.5012    2.9235   -0.5196 N   0  0  0  0  0  0  0  0  0  0  0  0
    1.1594    4.2014   -0.6700 C   0  0  2  0  0  0  0  0  0  0  0  0
    2.4466    4.1660    0.1432 C   0  0  0  0  0  0  0  0  0  0  0  0
    2.6247    3.3951    1.0840 O   0  0  0  0  0  0  0  0  0  0  0  0
    0.2619    5.3427   -0.2176 C   0  0  0  0  0  0  0  0  0  0  0  0
   -0.4821    2.9145   -0.2651 H   0  0  0  0  0  0  0  0  0  0  0  0
    1.4011    4.3095   -1.7330 H   0  0  0  0  0  0  0  0  0  0  0  0
    0.0091    5.2515    0.8450 H   0  0  0  0  0  0  0  0  0  0  0  0
    0.7512    6.3121   -0.3588 H   0  0  0  0  0  0  0  0  0  0  0  0
   -0.6761    5.3486   -0.7831 H   0  0  0  0  0  0  0  0  0  0  0  0
    3.3564    5.1258   -0.2778 N   0  0  0  0  0  0  0  0  0  0  0  0
    4.6483    5.3012    0.3438 C   0  0  0  0  0  0  0  0  0  0  0  0
    3.1325    5.7095   -1.0784 H   0  0  0  0  0  0  0  0  0  0  0  0
    4.5746    6.0610    1.1357 H   0  0  0  0  0  0  0  0  0  0  0  0
    4.9773    4.3469    0.7809 H   0  0  0  0  0  0  0  0  0  0  0  0
    5.3772    5.6290   -0.4120 H   0  0  0  0  0  0  0  0  0  0  0  0
 23 25  2  0  0  0  0
 22 23  1  0  0  0  0
 24 26  1  0  0  0  0
 22 24  2  0  0  0  0
 25 27  1  0  0  0  0
 26 27  2  0  0  0  0
 21 22  1  0  0  0  0
 27 28  1  0  0  0  0
  1  3  1  0  0  0  0
  1  7  1  0  0  0  0
  1  2  2  0  0  0  0
 39 40  1  0  0  0  0
 40 48  1  0  0  0  0
 40 41  2  0  0  0  0
  8  9  1  0  0  0  0
  9 17  1  0  0  0  0
  9 10  2  0  0  0  0
 18 19  1  0  0  0  0
 19 38  1  0  0  0  0
 19 20  2  0  0  0  0
 39 42  1  0  0  0  0
  8 11  1  0  0  0  0
 48 49  1  0  0  0  0
 18 21  1  0  0  0  0
 38 39  1  0  0  0  0
  7  8  1  0  0  0  0
 17 18  1  0  0  0  0
 23 33  1  0  0  0  0
 24 34  1  0  0  0  0
 25 35  1  0  0  0  0
 26 36  1  0  0  0  0
  3  4  1  0  0  0  0
  3  5  1  0  0  0  0
  3  6  1  0  0  0  0
 42 45  1  0  0  0  0
 42 46  1  0  0  0  0
 42 47  1  0  0  0  0
 11 14  1  0  0  0  0
 11 15  1  0  0  0  0
 11 16  1  0  0  0  0
 49 51  1  0  0  0  0
 49 52  1  0  0  0  0
 49 53  1  0  0  0  0
 21 31  1  0  0  0  0
 21 32  1  0  0  0  0
 39 44  1  0  0  0  0
  8 13  1  0  0  0  0
 18 30  1  0  0  0  0
 48 50  1  0  0  0  0
  7 12  1  0  0  0  0
 38 43  1  0  0  0  0
 17 29  1  0  0  0  0
 28 37  1  0  0  0  0
M  END
$$$$

  -OEChem-05262214473D

 53 53  0     1  0  0  0  0  0999 V2000
   -1.9298    0.2574    3.9747 C   0  0  0  0  0  0  0  0  0  0  0  0
   -0.9825   -0.3573    3.4990 O   0  0  0  0  0  0  0  0  0  0  0  0
   -2.3617   -0.0250    5.3754 C   0  0  0  0  0  0  0  0  0  0  0  0
   -3.1214   -0.8213    5.4288 H   0  0  0  0  0  0  0  0  0  0  0  0
   -1.5305   -0.3726    6.0097 H   0  0  0  0  0  0  0  0  0  0  0  0
   -2.7997    0.8299    5.9150 H   0  0  0  0  0  0  0  0  0  0  0  0
   -2.6795    1.2298    3.3336 N   0  0  0  0  0  0  0  0  0  0  0  0
   -2.4327    1.6559    1.9812 C   0  0  2  0  0  0  0  0  0  0  0  0
   -1.0977    1.0705    1.5400 C   0  0  0  0  0  0  0  0  0  0  0  0
   -0.2256    0.7177    2.3313 O   0  0  0  0  0  0  0  0  0  0  0  0
   -2.4239    3.1726    1.8718 C   0  0  0  0  0  0  0  0  0  0  0  0
   -3.4446    1.6657    3.8454 H   0  0  0  0  0  0  0  0  0  0  0  0
   -3.2368    1.2374    1.3661 H   0  0  0  0  0  0  0  0  0  0  0  0
   -1.6248    3.6099    2.4815 H   0  0  0  0  0  0  0  0  0  0  0  0
   -2.2644    3.4949    0.8375 H   0  0  0  0  0  0  0  0  0  0  0  0
   -3.3741    3.5939    2.2175 H   0  0  0  0  0  0  0  0  0  0  0  0
   -0.9750    1.0274    0.1566 N   0  0  0  0  0  0  0  0  0  0  0  0
    0.2023    0.5266   -0.5070 C   0  0  2  0  0  0  0  0  0  0  0  0
    1.1451    1.7081   -0.7055 C   0  0  0  0  0  0  0  0  0  0  0  0
    2.2256    1.6122   -1.2836 O   0  0  0  0  0  0  0  0  0  0  0  0
   -0.1262   -0.1254   -1.8551 C   0  0  0  0  0  0  0  0  0  0  0  0
   -0.9303   -1.3942   -1.7092 C   0  0  0  0  0  0  0  0  0  0  0  0
   -0.2907   -2.5930   -1.3938 C   0  0  0  0  0  0  0  0  0  0  0  0
   -2.3130   -1.3681   -1.8905 C   0  0  0  0  0  0  0  0  0  0  0  0
   -1.0339   -3.7657   -1.2596 C   0  0  0  0  0  0  0  0  0  0  0  0
   -3.0563   -2.5408   -1.7563 C   0  0  0  0  0  0  0  0  0  0  0  0
   -2.4167   -3.7396   -1.4409 C   0  0  0  0  0  0  0  0  0  0  0  0
   -3.1416   -4.8843   -1.3111 O   0  0  0  0  0  0  0  0  0  0  0  0
   -1.7582    1.3241   -0.4207 H   0  0  0  0  0  0  0  0  0  0  0  0
    0.6662   -0.1914    0.1794 H   0  0  0  0  0  0  0  0  0  0  0  0
    0.7976   -0.3353   -2.4112 H   0  0  0  0  0  0  0  0  0  0  0  0
   -0.6924    0.5695   -2.4893 H   0  0  0  0  0  0  0  0  0  0  0  0
    0.7861   -2.6226   -1.2508 H   0  0  0  0  0  0  0  0  0  0  0  0
   -2.8199   -0.4384   -2.1363 H   0  0  0  0  0  0  0  0  0  0  0  0
   -0.5299   -4.6967   -1.0140 H   0  0  0  0  0  0  0  0  0  0  0  0
   -4.1329   -2.5139   -1.8991 H   0  0  0  0  0  0  0  0  0  0  0  0
   -4.0829   -4.7056   -1.4657 H   0  0  0  0  0  0  0  0  0  0  0  0
    0.6123    2.8878   -0.2046 N   0  0  0  0  0  0  0  0  0  0  0  0
    1.2908    4.1614   -0.2836 C   0  0  2  0  0  0  0  0  0  0  0  0
    2.7101    3.9712    0.2351 C   0  0  0  0  0  0  0  0  0  0  0  0
    3.0320    3.0539    0.9874 O   0  0  0  0  0  0  0  0  0  0  0  0
    0.5588    5.2288    0.5149 C   0  0  0  0  0  0  0  0  0  0  0  0
   -0.3004    2.8543    0.2399 H   0  0  0  0  0  0  0  0  0  0  0  0
    1.3225    4.4377   -1.3432 H   0  0  0  0  0  0  0  0  0  0  0  0
    0.5170    4.9695    1.5790 H   0  0  0  0  0  0  0  0  0  0  0  0
    1.0584    6.1996    0.4307 H   0  0  0  0  0  0  0  0  0  0  0  0
   -0.4711    5.3433    0.1599 H   0  0  0  0  0  0  0  0  0  0  0  0
    3.5655    4.9710   -0.2064 N   0  0  0  0  0  0  0  0  0  0  0  0
    4.9619    5.0199    0.1591 C   0  0  0  0  0  0  0  0  0  0  0  0
    3.2171    5.6815   -0.8433 H   0  0  0  0  0  0  0  0  0  0  0  0
    5.0844    5.6412    1.0585 H   0  0  0  0  0  0  0  0  0  0  0  0
    5.3227    4.0014    0.3652 H   0  0  0  0  0  0  0  0  0  0  0  0
    5.5423    5.4542   -0.6682 H   0  0  0  0  0  0  0  0  0  0  0  0
 23 25  2  0  0  0  0
 22 23  1  0  0  0  0
 24 26  1  0  0  0  0
 22 24  2  0  0  0  0
 25 27  1  0  0  0  0
 26 27  2  0  0  0  0
 21 22  1  0  0  0  0
 27 28  1  0  0  0  0
  1  3  1  0  0  0  0
  1  7  1  0  0  0  0
  1  2  2  0  0  0  0
 39 40  1  0  0  0  0
 40 48  1  0  0  0  0
 40 41  2  0  0  0  0
  8  9  1  0  0  0  0
  9 17  1  0  0  0  0
  9 10  2  0  0  0  0
 18 19  1  0  0  0  0
 19 38  1  0  0  0  0
 19 20  2  0  0  0  0
 39 42  1  0  0  0  0
  8 11  1  0  0  0  0
 48 49  1  0  0  0  0
 18 21  1  0  0  0  0
 38 39  1  0  0  0  0
  7  8  1  0  0  0  0
 17 18  1  0  0  0  0
 23 33  1  0  0  0  0
 24 34  1  0  0  0  0
 25 35  1  0  0  0  0
 26 36  1  0  0  0  0
  3  4  1  0  0  0  0
  3  5  1  0  0  0  0
  3  6  1  0  0  0  0
 42 45  1  0  0  0  0
 42 46  1  0  0  0  0
 42 47  1  0  0  0  0
 11 14  1  0  0  0  0
 11 15  1  0  0  0  0
 11 16  1  0  0  0  0
 49 51  1  0  0  0  0
 49 52  1  0  0  0  0
 49 53  1  0  0  0  0
 21 31  1  0  0  0  0
 21 32  1  0  0  0  0
 39 44  1  0  0  0  0
  8 13  1  0  0  0  0
 18 30  1  0  0  0  0
 48 50  1  0  0  0  0
  7 12  1  0  0  0  0
 38 43  1  0  0  0  0
 17 29  1  0  0  0  0
 28 37  1  0  0  0  0
M  END
$$$$

  -OEChem-05262214473D

 53 53  0     1  0  0  0  0  0999 V2000
   -1.9298    0.2574    3.9747 C   0  0  0  0  0  0  0  0  0  0  0  0
   -0.9825   -0.3573    3.4990 O   0  0  0  0  0  0  0  0  0  0  0  0
   -2.3617   -0.0250    5.3754 C   0  0  0  0  0  0  0  0  0  0  0  0
   -3.1214   -0.8213    5.4288 H   0  0  0  0  0  0  0  0  0  0  0  0
   -1.5305   -0.3726    6.0097 H   0  0  0  0  0  0  0  0  0  0  0  0
   -2.7997    0.8299    5.9150 H   0  0  0  0  0  0  0  0  0  0  0  0
   -2.6795    1.2298    3.3336 N   0  0  0  0  0  0  0  0  0  0  0  0
   -2.4327    1.6559    1.9812 C   0  0  2  0  0  0  0  0  0  0  0  0
   -1.0977    1.0705    1.5400 C   0  0  0  0  0  0  0  0  0  0  0  0
   -0.2256    0.7177    2.3313 O   0  0  0  0  0  0  0  0  0  0  0  0
   -2.4239    3.1726    1.8718 C   0  0  0  0  0  0  0  0  0  0  0  0
   -3.4446    1.6657    3.8454 H   0  0  0  0  0  0  0  0  0  0  0  0
   -3.2368    1.2374    1.3661 H   0  0  0  0  0  0  0  0  0  0  0  0
   -1.6248    3.6099    2.4815 H   0  0  0  0  0  0  0  0  0  0  0  0
   -2.2644    3.4949    0.8375 H   0  0  0  0  0  0  0  0  0  0  0  0
   -3.3741    3.5939    2.2175 H   0  0  0  0  0  0  0  0  0  0  0  0
   -0.9750    1.0274    0.1566 N   0  0  0  0  0  0  0  0  0  0  0  0
    0.2023    0.5266   -0.5070 C   0  0  2  0  0  0  0  0  0  0  0  0
    1.1451    1.7081   -0.7055 C   0  0  0  0  0  0  0  0  0  0  0  0
    2.0837    1.6892   -1.4989 O   0  0  0  0  0  0  0  0  0  0  0  0
   -0.1262   -0.1254   -1.8551 C   0  0  0  0  0  0  0  0  0  0  0  0
   -0.9303   -1.3942   -1.7092 C   0  0  0  0  0  0  0  0  0  0  0  0
   -0.2907   -2.5930   -1.3938 C   0  0  0  0  0  0  0  0  0  0  0  0
   -2.3130   -1.3681   -1.8905 C   0  0  0  0  0  0  0  0  0  0  0  0
   -1.0339   -3.7657   -1.2596 C   0  0  0  0  0  0  0  0  0  0  0  0
   -3.0563   -2.5408   -1.7563 C   0  0  0  0  0  0  0  0  0  0  0  0
   -2.4167   -3.7396   -1.4409 C   0  0  0  0  0  0  0  0  0  0  0  0
   -3.1416   -4.8843   -1.3111 O   0  0  0  0  0  0  0  0  0  0  0  0
   -1.7582    1.3241   -0.4207 H   0  0  0  0  0  0  0  0  0  0  0  0
    0.6662   -0.1914    0.1794 H   0  0  0  0  0  0  0  0  0  0  0  0
    0.7976   -0.3353   -2.4112 H   0  0  0  0  0  0  0  0  0  0  0  0
   -0.6924    0.5695   -2.4893 H   0  0  0  0  0  0  0  0  0  0  0  0
    0.7861   -2.6226   -1.2508 H   0  0  0  0  0  0  0  0  0  0  0  0
   -2.8199   -0.4384   -2.1363 H   0  0  0  0  0  0  0  0  0  0  0  0
   -0.5299   -4.6967   -1.0140 H   0  0  0  0  0  0  0  0  0  0  0  0
   -4.1329   -2.5139   -1.8991 H   0  0  0  0  0  0  0  0  0  0  0  0
   -4.0829   -4.7056   -1.4657 H   0  0  0  0  0  0  0  0  0  0  0  0
    0.7816    2.7991    0.0718 N   0  0  0  0  0  0  0  0  0  0  0  0
    1.4939    4.0565    0.0569 C   0  0  2  0  0  0  0  0  0  0  0  0
    2.9764    3.7594    0.2398 C   0  0  0  0  0  0  0  0  0  0  0  0
    3.3945    2.7260    0.7578 O   0  0  0  0  0  0  0  0  0  0  0  0
    0.9887    4.9916    1.1446 C   0  0  0  0  0  0  0  0  0  0  0  0
   -0.0256    2.7092    0.6817 H   0  0  0  0  0  0  0  0  0  0  0  0
    1.3292    4.5017   -0.9304 H   0  0  0  0  0  0  0  0  0  0  0  0
    1.1453    4.5625    2.1410 H   0  0  0  0  0  0  0  0  0  0  0  0
    1.5096    5.9542    1.1138 H   0  0  0  0  0  0  0  0  0  0  0  0
   -0.0840    5.1804    1.0289 H   0  0  0  0  0  0  0  0  0  0  0  0
    3.7765    4.8030   -0.2042 N   0  0  0  0  0  0  0  0  0  0  0  0
    5.2183    4.7672   -0.1272 C   0  0  0  0  0  0  0  0  0  0  0  0
    3.3450    5.6140   -0.6376 H   0  0  0  0  0  0  0  0  0  0  0  0
    5.5473    5.2309    0.8145 H   0  0  0  0  0  0  0  0  0  0  0  0
    5.5614    3.7227   -0.1609 H   0  0  0  0  0  0  0  0  0  0  0  0
    5.6446    5.3208   -0.9768 H   0  0  0  0  0  0  0  0  0  0  0  0
 23 25  2  0  0  0  0
 22 23  1  0  0  0  0
 24 26  1  0  0  0  0
 22 24  2  0  0  0  0
 25 27  1  0  0  0  0
 26 27  2  0  0  0  0
 21 22  1  0  0  0  0
 27 28  1  0  0  0  0
  1  3  1  0  0  0  0
  1  7  1  0  0  0  0
  1  2  2  0  0  0  0
 39 40  1  0  0  0  0
 40 48  1  0  0  0  0
 40 41  2  0  0  0  0
  8  9  1  0  0  0  0
  9 17  1  0  0  0  0
  9 10  2  0  0  0  0
 18 19  1  0  0  0  0
 19 38  1  0  0  0  0
 19 20  2  0  0  0  0
 39 42  1  0  0  0  0
  8 11  1  0  0  0  0
 48 49  1  0  0  0  0
 18 21  1  0  0  0  0
 38 39  1  0  0  0  0
  7  8  1  0  0  0  0
 17 18  1  0  0  0  0
 23 33  1  0  0  0  0
 24 34  1  0  0  0  0
 25 35  1  0  0  0  0
 26 36  1  0  0  0  0
  3  4  1  0  0  0  0
  3  5  1  0  0  0  0
  3  6  1  0  0  0  0
 42 45  1  0  0  0  0
 42 46  1  0  0  0  0
 42 47  1  0  0  0  0
 11 14  1  0  0  0  0
 11 15  1  0  0  0  0
 11 16  1  0  0  0  0
 49 51  1  0  0  0  0
 49 52  1  0  0  0  0
 49 53  1  0  0  0  0
 21 31  1  0  0  0  0
 21 32  1  0  0  0  0
 39 44  1  0  0  0  0
  8 13  1  0  0  0  0
 18 30  1  0  0  0  0
 48 50  1  0  0  0  0
  7 12  1  0  0  0  0
 38 43  1  0  0  0  0
 17 29  1  0  0  0  0
 28 37  1  0  0  0  0
M  END
$$$$

  -OEChem-05262214473D

 53 53  0     1  0  0  0  0  0999 V2000
   -1.9298    0.2574    3.9747 C   0  0  0  0  0  0  0  0  0  0  0  0
   -0.9825   -0.3573    3.4990 O   0  0  0  0  0  0  0  0  0  0  0  0
   -2.3617   -0.0250    5.3754 C   0  0  0  0  0  0  0  0  0  0  0  0
   -3.1214   -0.8213    5.4288 H   0  0  0  0  0  0  0  0  0  0  0  0
   -1.5305   -0.3726    6.0097 H   0  0  0  0  0  0  0  0  0  0  0  0
   -2.7997    0.8299    5.9150 H   0  0  0  0  0  0  0  0  0  0  0  0
   -2.6795    1.2298    3.3336 N   0  0  0  0  0  0  0  0  0  0  0  0
   -2.4327    1.6559    1.9812 C   0  0  2  0  0  0  0  0  0  0  0  0
   -1.0977    1.0705    1.5400 C   0  0  0  0  0  0  0  0  0  0  0  0
   -0.2256    0.7177    2.3313 O   0  0  0  0  0  0  0  0  0  0  0  0
   -2.4239    3.1726    1.8718 C   0  0  0  0  0  0  0  0  0  0  0  0
   -3.4446    1.6657    3.8454 H   0  0  0  0  0  0  0  0  0  0  0  0
   -3.2368    1.2374    1.3661 H   0  0  0  0  0  0  0  0  0  0  0  0
   -1.6248    3.6099    2.4815 H   0  0  0  0  0  0  0  0  0  0  0  0
   -2.2644    3.4949    0.8375 H   0  0  0  0  0  0  0  0  0  0  0  0
   -3.3741    3.5939    2.2175 H   0  0  0  0  0  0  0  0  0  0  0  0
   -0.9750    1.0274    0.1566 N   0  0  0  0  0  0  0  0  0  0  0  0
    0.2023    0.5266   -0.5070 C   0  0  2  0  0  0  0  0  0  0  0  0
    1.1451    1.7081   -0.7055 C   0  0  0  0  0  0  0  0  0  0  0  0
    1.9060    1.8029   -1.6661 O   0  0  0  0  0  0  0  0  0  0  0  0
   -0.1262   -0.1254   -1.8551 C   0  0  0  0  0  0  0  0  0  0  0  0
   -0.9303   -1.3942   -1.7092 C   0  0  0  0  0  0  0  0  0  0  0  0
   -0.2907   -2.5930   -1.3938 C   0  0  0  0  0  0  0  0  0  0  0  0
   -2.3130   -1.3681   -1.8905 C   0  0  0  0  0  0  0  0  0  0  0  0
   -1.0339   -3.7657   -1.2596 C   0  0  0  0  0  0  0  0  0  0  0  0
   -3.0563   -2.5408   -1.7563 C   0  0  0  0  0  0  0  0  0  0  0  0
   -2.4167   -3.7396   -1.4409 C   0  0  0  0  0  0  0  0  0  0  0  0
   -3.1416   -4.8843   -1.3111 O   0  0  0  0  0  0  0  0  0  0  0  0
   -1.7582    1.3241   -0.4207 H   0  0  0  0  0  0  0  0  0  0  0  0
    0.6662   -0.1914    0.1794 H   0  0  0  0  0  0  0  0  0  0  0  0
    0.7976   -0.3353   -2.4112 H   0  0  0  0  0  0  0  0  0  0  0  0
   -0.6924    0.5695   -2.4893 H   0  0  0  0  0  0  0  0  0  0  0  0
    0.7861   -2.6226   -1.2508 H   0  0  0  0  0  0  0  0  0  0  0  0
   -2.8199   -0.4384   -2.1363 H   0  0  0  0  0  0  0  0  0  0  0  0
   -0.5299   -4.6967   -1.0140 H   0  0  0  0  0  0  0  0  0  0  0  0
   -4.1329   -2.5139   -1.8991 H   0  0  0  0  0  0  0  0  0  0  0  0
   -4.0829   -4.7056   -1.4657 H   0  0  0  0  0  0  0  0  0  0  0  0
    0.9976    2.6635    0.2905 N   0  0  0  0  0  0  0  0  0  0  0  0
    1.7549    3.8939    0.3282 C   0  0  2  0  0  0  0  0  0  0  0  0
    3.2275    3.5452    0.1571 C   0  0  0  0  0  0  0  0  0  0  0  0
    3.6876    2.4339    0.4109 O   0  0  0  0  0  0  0  0  0  0  0  0
    1.5223    4.6471    1.6287 C   0  0  0  0  0  0  0  0  0  0  0  0
    0.3235    2.4891    1.0301 H   0  0  0  0  0  0  0  0  0  0  0  0
    1.4205    4.4973   -0.5227 H   0  0  0  0  0  0  0  0  0  0  0  0
    1.8512    4.0582    2.4927 H   0  0  0  0  0  0  0  0  0  0  0  0
    2.0743    5.5927    1.6438 H   0  0  0  0  0  0  0  0  0  0  0  0
    0.4587    4.8709    1.7646 H   0  0  0  0  0  0  0  0  0  0  0  0
    3.9751    4.6332   -0.2713 N   0  0  0  0  0  0  0  0  0  0  0  0
    5.4000    4.5604   -0.4956 C   0  0  0  0  0  0  0  0  0  0  0  0
    3.5075    5.5115   -0.4754 H   0  0  0  0  0  0  0  0  0  0  0  0
    5.9316    4.8580    0.4203 H   0  0  0  0  0  0  0  0  0  0  0  0
    5.6770    3.5295   -0.7615 H   0  0  0  0  0  0  0  0  0  0  0  0
    5.6769    5.2379   -1.3168 H   0  0  0  0  0  0  0  0  0  0  0  0
 23 25  2  0  0  0  0
 22 23  1  0  0  0  0
 24 26  1  0  0  0  0
 22 24  2  0  0  0  0
 25 27  1  0  0  0  0
 26 27  2  0  0  0  0
 21 22  1  0  0  0  0
 27 28  1  0  0  0  0
  1  3  1  0  0  0  0
  1  7  1  0  0  0  0
  1  2  2  0  0  0  0
 39 40  1  0  0  0  0
 40 48  1  0  0  0  0
 40 41  2  0  0  0  0
  8  9  1  0  0  0  0
  9 17  1  0  0  0  0
  9 10  2  0  0  0  0
 18 19  1  0  0  0  0
 19 38  1  0  0  0  0
 19 20  2  0  0  0  0
 39 42  1  0  0  0  0
  8 11  1  0  0  0  0
 48 49  1  0  0  0  0
 18 21  1  0  0  0  0
 38 39  1  0  0  0  0
  7  8  1  0  0  0  0
 17 18  1  0  0  0  0
 23 33  1  0  0  0  0
 24 34  1  0  0  0  0
 25 35  1  0  0  0  0
 26 36  1  0  0  0  0
  3  4  1  0  0  0  0
  3  5  1  0  0  0  0
  3  6  1  0  0  0  0
 42 45  1  0  0  0  0
 42 46  1  0  0  0  0
 42 47  1  0  0  0  0
 11 14  1  0  0  0  0
 11 15  1  0  0  0  0
 11 16  1  0  0  0  0
 49 51  1  0  0  0  0
 49 52  1  0  0  0  0
 49 53  1  0  0  0  0
 21 31  1  0  0  0  0
 21 32  1  0  0  0  0
 39 44  1  0  0  0  0
  8 13  1  0  0  0  0
 18 30  1  0  0  0  0
 48 50  1  0  0  0  0
  7 12  1  0  0  0  0
 38 43  1  0  0  0  0
 17 29  1  0  0  0  0
 28 37  1  0  0  0  0
M  END
$$$$

  -OEChem-05262214473D

 53 53  0     1  0  0  0  0  0999 V2000
   -1.9298    0.2574    3.9747 C   0  0  0  0  0  0  0  0  0  0  0  0
   -0.9825   -0.3573    3.4990 O   0  0  0  0  0  0  0  0  0  0  0  0
   -2.3617   -0.0250    5.3754 C   0  0  0  0  0  0  0  0  0  0  0  0
   -3.1214   -0.8213    5.4288 H   0  0  0  0  0  0  0  0  0  0  0  0
   -1.5305   -0.3726    6.0097 H   0  0  0  0  0  0  0  0  0  0  0  0
   -2.7997    0.8299    5.9150 H   0  0  0  0  0  0  0  0  0  0  0  0
   -2.6795    1.2298    3.3336 N   0  0  0  0  0  0  0  0  0  0  0  0
   -2.4327    1.6559    1.9812 C   0  0  2  0  0  0  0  0  0  0  0  0
   -1.0977    1.0705    1.5400 C   0  0  0  0  0  0  0  0  0  0  0  0
   -0.2256    0.7177    2.3313 O   0  0  0  0  0  0  0  0  0  0  0  0
   -2.4239    3.1726    1.8718 C   0  0  0  0  0  0  0  0  0  0  0  0
   -3.4446    1.6657    3.8454 H   0  0  0  0  0  0  0  0  0  0  0  0
   -3.2368    1.2374    1.3661 H   0  0  0  0  0  0  0  0  0  0  0  0
   -1.6248    3.6099    2.4815 H   0  0  0  0  0  0  0  0  0  0  0  0
   -2.2644    3.4949    0.8375 H   0  0  0  0  0  0  0  0  0  0  0  0
   -3.3741    3.5939    2.2175 H   0  0  0  0  0  0  0  0  0  0  0  0
   -0.9750    1.0274    0.1566 N   0  0  0  0  0  0  0  0  0  0  0  0
    0.2023    0.5266   -0.5070 C   0  0  2  0  0  0  0  0  0  0  0  0
    1.1451    1.7081   -0.7055 C   0  0  0  0  0  0  0  0  0  0  0  0
    1.7047    1.9455   -1.7738 O   0  0  0  0  0  0  0  0  0  0  0  0
   -0.1262   -0.1254   -1.8551 C   0  0  0  0  0  0  0  0  0  0  0  0
   -0.9303   -1.3942   -1.7092 C   0  0  0  0  0  0  0  0  0  0  0  0
   -0.2907   -2.5930   -1.3938 C   0  0  0  0  0  0  0  0  0  0  0  0
   -2.3130   -1.3681   -1.8905 C   0  0  0  0  0  0  0  0  0  0  0  0
   -1.0339   -3.7657   -1.2596 C   0  0  0  0  0  0  0  0  0  0  0  0
   -3.0563   -2.5408   -1.7563 C   0  0  0  0  0  0  0  0  0  0  0  0
   -2.4167   -3.7396   -1.4409 C   0  0  0  0  0  0  0  0  0  0  0  0
   -3.1416   -4.8843   -1.3111 O   0  0  0  0  0  0  0  0  0  0  0  0
   -1.7582    1.3241   -0.4207 H   0  0  0  0  0  0  0  0  0  0  0  0
    0.6662   -0.1914    0.1794 H   0  0  0  0  0  0  0  0  0  0  0  0
    0.7976   -0.3353   -2.4112 H   0  0  0  0  0  0  0  0  0  0  0  0
   -0.6924    0.5695   -2.4893 H   0  0  0  0  0  0  0  0  0  0  0  0
    0.7861   -2.6226   -1.2508 H   0  0  0  0  0  0  0  0  0  0  0  0
   -2.8199   -0.4384   -2.1363 H   0  0  0  0  0  0  0  0  0  0  0  0
   -0.5299   -4.6967   -1.0140 H   0  0  0  0  0  0  0  0  0  0  0  0
   -4.1329   -2.5139   -1.8991 H   0  0  0  0  0  0  0  0  0  0  0  0
   -4.0829   -4.7056   -1.4657 H   0  0  0  0  0  0  0  0  0  0  0  0
    1.2455    2.4902    0.4368 N   0  0  0  0  0  0  0  0  0  0  0  0
    2.0559    3.6845    0.5120 C   0  0  2  0  0  0  0  0  0  0  0  0
    3.4462    3.3430   -0.0075 C   0  0  0  0  0  0  0  0  0  0  0  0
    3.8913    2.1974   -0.0298 O   0  0  0  0  0  0  0  0  0  0  0  0
    2.1231    4.2189    1.9342 C   0  0  0  0  0  0  0  0  0  0  0  0
    0.7232    2.2090    1.2613 H   0  0  0  0  0  0  0  0  0  0  0  0
    1.5904    4.4246   -0.1480 H   0  0  0  0  0  0  0  0  0  0  0  0
    2.5866    3.4911    2.6101 H   0  0  0  0  0  0  0  0  0  0  0  0
    2.7138    5.1396    1.9846 H   0  0  0  0  0  0  0  0  0  0  0  0
    1.1200    4.4360    2.3168 H   0  0  0  0  0  0  0  0  0  0  0  0
    4.1477    4.4733   -0.4031 N   0  0  0  0  0  0  0  0  0  0  0  0
    5.4946    4.4134   -0.9210 C   0  0  0  0  0  0  0  0  0  0  0  0
    3.6935    5.3811   -0.3677 H   0  0  0  0  0  0  0  0  0  0  0  0
    6.2111    4.5480   -0.0973 H   0  0  0  0  0  0  0  0  0  0  0  0
    5.6616    3.4353   -1.3958 H   0  0  0  0  0  0  0  0  0  0  0  0
    5.6372    5.2111   -1.6649 H   0  0  0  0  0  0  0  0  0  0  0  0
 23 25  2  0  0  0  0
 22 23  1  0  0  0  0
 24 26  1  0  0  0  0
 22 24  2  0  0  0  0
 25 27  1  0  0  0  0
 26 27  2  0  0  0  0
 21 22  1  0  0  0  0
 27 28  1  0  0  0  0
  1  3  1  0  0  0  0
  1  7  1  0  0  0  0
  1  2  2  0  0  0  0
 39 40  1  0  0  0  0
 40 48  1  0  0  0  0
 40 41  2  0  0  0  0
  8  9  1  0  0  0  0
  9 17  1  0  0  0  0
  9 10  2  0  0  0  0
 18 19  1  0  0  0  0
 19 38  1  0  0  0  0
 19 20  2  0  0  0  0
 39 42  1  0  0  0  0
  8 11  1  0  0  0  0
 48 49  1  0  0  0  0
 18 21  1  0  0  0  0
 38 39  1  0  0  0  0
  7  8  1  0  0  0  0
 17 18  1  0  0  0  0
 23 33  1  0  0  0  0
 24 34  1  0  0  0  0
 25 35  1  0  0  0  0
 26 36  1  0  0  0  0
  3  4  1  0  0  0  0
  3  5  1  0  0  0  0
  3  6  1  0  0  0  0
 42 45  1  0  0  0  0
 42 46  1  0  0  0  0
 42 47  1  0  0  0  0
 11 14  1  0  0  0  0
 11 15  1  0  0  0  0
 11 16  1  0  0  0  0
 49 51  1  0  0  0  0
 49 52  1  0  0  0  0
 49 53  1  0  0  0  0
 21 31  1  0  0  0  0
 21 32  1  0  0  0  0
 39 44  1  0  0  0  0
  8 13  1  0  0  0  0
 18 30  1  0  0  0  0
 48 50  1  0  0  0  0
  7 12  1  0  0  0  0
 38 43  1  0  0  0  0
 17 29  1  0  0  0  0
 28 37  1  0  0  0  0
M  END
$$$$

  -OEChem-05262214473D

 53 53  0     1  0  0  0  0  0999 V2000
   -1.9298    0.2574    3.9747 C   0  0  0  0  0  0  0  0  0  0  0  0
   -0.9825   -0.3573    3.4990 O   0  0  0  0  0  0  0  0  0  0  0  0
   -2.3617   -0.0250    5.3754 C   0  0  0  0  0  0  0  0  0  0  0  0
   -3.1214   -0.8213    5.4288 H   0  0  0  0  0  0  0  0  0  0  0  0
   -1.5305   -0.3726    6.0097 H   0  0  0  0  0  0  0  0  0  0  0  0
   -2.7997    0.8299    5.9150 H   0  0  0  0  0  0  0  0  0  0  0  0
   -2.6795    1.2298    3.3336 N   0  0  0  0  0  0  0  0  0  0  0  0
   -2.4327    1.6559    1.9812 C   0  0  2  0  0  0  0  0  0  0  0  0
   -1.0977    1.0705    1.5400 C   0  0  0  0  0  0  0  0  0  0  0  0
   -0.2256    0.7177    2.3313 O   0  0  0  0  0  0  0  0  0  0  0  0
   -2.4239    3.1726    1.8718 C   0  0  0  0  0  0  0  0  0  0  0  0
   -3.4446    1.6657    3.8454 H   0  0  0  0  0  0  0  0  0  0  0  0
   -3.2368    1.2374    1.3661 H   0  0  0  0  0  0  0  0  0  0  0  0
   -1.6248    3.6099    2.4815 H   0  0  0  0  0  0  0  0  0  0  0  0
   -2.2644    3.4949    0.8375 H   0  0  0  0  0  0  0  0  0  0  0  0
   -3.3741    3.5939    2.2175 H   0  0  0  0  0  0  0  0  0  0  0  0
   -0.9750    1.0274    0.1566 N   0  0  0  0  0  0  0  0  0  0  0  0
    0.2023    0.5266   -0.5070 C   0  0  2  0  0  0  0  0  0  0  0  0
    1.1451    1.7081   -0.7055 C   0  0  0  0  0  0  0  0  0  0  0  0
    1.4934    2.1072   -1.8146 O   0  0  0  0  0  0  0  0  0  0  0  0
   -0.1262   -0.1254   -1.8551 C   0  0  0  0  0  0  0  0  0  0  0  0
   -0.9303   -1.3942   -1.7092 C   0  0  0  0  0  0  0  0  0  0  0  0
   -0.2907   -2.5930   -1.3938 C   0  0  0  0  0  0  0  0  0  0  0  0
   -2.3130   -1.3681   -1.8905 C   0  0  0  0  0  0  0  0  0  0  0  0
   -1.0339   -3.7657   -1.2596 C   0  0  0  0  0  0  0  0  0  0  0  0
   -3.0563   -2.5408   -1.7563 C   0  0  0  0  0  0  0  0  0  0  0  0
   -2.4167   -3.7396   -1.4409 C   0  0  0  0  0  0  0  0  0  0  0  0
   -3.1416   -4.8843   -1.3111 O   0  0  0  0  0  0  0  0  0  0  0  0
   -1.7582    1.3241   -0.4207 H   0  0  0  0  0  0  0  0  0  0  0  0
    0.6662   -0.1914    0.1794 H   0  0  0  0  0  0  0  0  0  0  0  0
    0.7976   -0.3353   -2.4112 H   0  0  0  0  0  0  0  0  0  0  0  0
   -0.6924    0.5695   -2.4893 H   0  0  0  0  0  0  0  0  0  0  0  0
    0.7861   -2.6226   -1.2508 H   0  0  0  0  0  0  0  0  0  0  0  0
   -2.8199   -0.4384   -2.1363 H   0  0  0  0  0  0  0  0  0  0  0  0
   -0.5299   -4.6967   -1.0140 H   0  0  0  0  0  0  0  0  0  0  0  0
   -4.1329   -2.5139   -1.8991 H   0  0  0  0  0  0  0  0  0  0  0  0
   -4.0829   -4.7056   -1.4657 H   0  0  0  0  0  0  0  0  0  0  0  0
    1.5085    2.2911    0.5006 N   0  0  0  0  0  0  0  0  0  0  0  0
    2.3765    3.4428    0.5956 C   0  0  2  0  0  0  0  0  0  0  0  0
    3.6177    3.1667   -0.2427 C   0  0  0  0  0  0  0  0  0  0  0  0
    3.9916    2.0326   -0.5342 O   0  0  0  0  0  0  0  0  0  0  0  0
    2.7504    3.7362    2.0401 C   0  0  0  0  0  0  0  0  0  0  0  0
    1.1463    1.8880    1.3597 H   0  0  0  0  0  0  0  0  0  0  0  0
    1.8272    4.2888    0.1682 H   0  0  0  0  0  0  0  0  0  0  0  0
    3.3014    2.8997    2.4852 H   0  0  0  0  0  0  0  0  0  0  0  0
    3.3846    4.6258    2.1130 H   0  0  0  0  0  0  0  0  0  0  0  0
    1.8549    3.9051    2.6479 H   0  0  0  0  0  0  0  0  0  0  0  0
    4.2827    4.3341   -0.5907 N   0  0  0  0  0  0  0  0  0  0  0  0
    5.4958    4.3363   -1.3745 C   0  0  0  0  0  0  0  0  0  0  0  0
    3.8904    5.2317   -0.3219 H   0  0  0  0  0  0  0  0  0  0  0  0
    6.3669    4.3220   -0.7029 H   0  0  0  0  0  0  0  0  0  0  0  0
    5.5164    3.4462   -2.0205 H   0  0  0  0  0  0  0  0  0  0  0  0
    5.5281    5.2423   -1.9974 H   0  0  0  0  0  0  0  0  0  0  0  0
 23 25  2  0  0  0  0
 22 23  1  0  0  0  0
 24 26  1  0  0  0  0
 22 24  2  0  0  0  0
 25 27  1  0  0  0  0
 26 27  2  0  0  0  0
 21 22  1  0  0  0  0
 27 28  1  0  0  0  0
  1  3  1  0  0  0  0
  1  7  1  0  0  0  0
  1  2  2  0  0  0  0
 39 40  1  0  0  0  0
 40 48  1  0  0  0  0
 40 41  2  0  0  0  0
  8  9  1  0  0  0  0
  9 17  1  0  0  0  0
  9 10  2  0  0  0  0
 18 19  1  0  0  0  0
 19 38  1  0  0  0  0
 19 20  2  0  0  0  0
 39 42  1  0  0  0  0
  8 11  1  0  0  0  0
 48 49  1  0  0  0  0
 18 21  1  0  0  0  0
 38 39  1  0  0  0  0
  7  8  1  0  0  0  0
 17 18  1  0  0  0  0
 23 33  1  0  0  0  0
 24 34  1  0  0  0  0
 25 35  1  0  0  0  0
 26 36  1  0  0  0  0
  3  4  1  0  0  0  0
  3  5  1  0  0  0  0
  3  6  1  0  0  0  0
 42 45  1  0  0  0  0
 42 46  1  0  0  0  0
 42 47  1  0  0  0  0
 11 14  1  0  0  0  0
 11 15  1  0  0  0  0
 11 16  1  0  0  0  0
 49 51  1  0  0  0  0
 49 52  1  0  0  0  0
 49 53  1  0  0  0  0
 21 31  1  0  0  0  0
 21 32  1  0  0  0  0
 39 44  1  0  0  0  0
  8 13  1  0  0  0  0
 18 30  1  0  0  0  0
 48 50  1  0  0  0  0
  7 12  1  0  0  0  0
 38 43  1  0  0  0  0
 17 29  1  0  0  0  0
 28 37  1  0  0  0  0
M  END
$$$$

  -OEChem-05262214473D

 53 53  0     1  0  0  0  0  0999 V2000
   -1.9298    0.2574    3.9747 C   0  0  0  0  0  0  0  0  0  0  0  0
   -0.9825   -0.3573    3.4990 O   0  0  0  0  0  0  0  0  0  0  0  0
   -2.3617   -0.0250    5.3754 C   0  0  0  0  0  0  0  0  0  0  0  0
   -3.1214   -0.8213    5.4288 H   0  0  0  0  0  0  0  0  0  0  0  0
   -1.5305   -0.3726    6.0097 H   0  0  0  0  0  0  0  0  0  0  0  0
   -2.7997    0.8299    5.9150 H   0  0  0  0  0  0  0  0  0  0  0  0
   -2.6795    1.2298    3.3336 N   0  0  0  0  0  0  0  0  0  0  0  0
   -2.4327    1.6559    1.9812 C   0  0  2  0  0  0  0  0  0  0  0  0
   -1.0977    1.0705    1.5400 C   0  0  0  0  0  0  0  0  0  0  0  0
   -0.2256    0.7177    2.3313 O   0  0  0  0  0  0  0  0  0  0  0  0
   -2.4239    3.1726    1.8718 C   0  0  0  0  0  0  0  0  0  0  0  0
   -3.4446    1.6657    3.8454 H   0  0  0  0  0  0  0  0  0  0  0  0
   -3.2368    1.2374    1.3661 H   0  0  0  0  0  0  0  0  0  0  0  0
   -1.6248    3.6099    2.4815 H   0  0  0  0  0  0  0  0  0  0  0  0
   -2.2644    3.4949    0.8375 H   0  0  0  0  0  0  0  0  0  0  0  0
   -3.3741    3.5939    2.2175 H   0  0  0  0  0  0  0  0  0  0  0  0
   -0.9750    1.0274    0.1566 N   0  0  0  0  0  0  0  0  0  0  0  0
    0.2023    0.5266   -0.5070 C   0  0  2  0  0  0  0  0  0  0  0  0
    1.1451    1.7081   -0.7055 C   0  0  0  0  0  0  0  0  0  0  0  0
    1.2866    2.2771   -1.7858 O   0  0  0  0  0  0  0  0  0  0  0  0
   -0.1262   -0.1254   -1.8551 C   0  0  0  0  0  0  0  0  0  0  0  0
   -0.9303   -1.3942   -1.7092 C   0  0  0  0  0  0  0  0  0  0  0  0
   -0.2907   -2.5930   -1.3938 C   0  0  0  0  0  0  0  0  0  0  0  0
   -2.3130   -1.3681   -1.8905 C   0  0  0  0  0  0  0  0  0  0  0  0
   -1.0339   -3.7657   -1.2596 C   0  0  0  0  0  0  0  0  0  0  0  0
   -3.0563   -2.5408   -1.7563 C   0  0  0  0  0  0  0  0  0  0  0  0
   -2.4167   -3.7396   -1.4409 C   0  0  0  0  0  0  0  0  0  0  0  0
   -3.1416   -4.8843   -1.3111 O   0  0  0  0  0  0  0  0  0  0  0  0
   -1.7582    1.3241   -0.4207 H   0  0  0  0  0  0  0  0  0  0  0  0
    0.6662   -0.1914    0.1794 H   0  0  0  0  0  0  0  0  0  0  0  0
    0.7976   -0.3353   -2.4112 H   0  0  0  0  0  0  0  0  0  0  0  0
   -0.6924    0.5695   -2.4893 H   0  0  0  0  0  0  0  0  0  0  0  0
    0.7861   -2.6226   -1.2508 H   0  0  0  0  0  0  0  0  0  0  0  0
   -2.8199   -0.4384   -2.1363 H   0  0  0  0  0  0  0  0  0  0  0  0
   -0.5299   -4.6967   -1.0140 H   0  0  0  0  0  0  0  0  0  0  0  0
   -4.1329   -2.5139   -1.8991 H   0  0  0  0  0  0  0  0  0  0  0  0
   -4.0829   -4.7056   -1.4657 H   0  0  0  0  0  0  0  0  0  0  0  0
    1.7686    2.0796    0.4776 N   0  0  0  0  0  0  0  0  0  0  0  0
    2.6947    3.1851    0.5733 C   0  0  2  0  0  0  0  0  0  0  0  0
    3.7302    3.0283   -0.5325 C   0  0  0  0  0  0  0  0  0  0  0  0
    3.9819    1.9507   -1.0678 O   0  0  0  0  0  0  0  0  0  0  0  0
    3.3612    3.2318    1.9394 C   0  0  0  0  0  0  0  0  0  0  0  0
    1.5638    1.5478    1.3184 H   0  0  0  0  0  0  0  0  0  0  0  0
    2.1148    4.0990    0.4045 H   0  0  0  0  0  0  0  0  0  0  0  0
    3.9469    2.3244    2.1265 H   0  0  0  0  0  0  0  0  0  0  0  0
    4.0410    4.0864    2.0202 H   0  0  0  0  0  0  0  0  0  0  0  0
    2.6133    3.3146    2.7354 H   0  0  0  0  0  0  0  0  0  0  0  0
    4.3707    4.2251   -0.8212 N   0  0  0  0  0  0  0  0  0  0  0  0
    5.4034    4.3344   -1.8250 C   0  0  0  0  0  0  0  0  0  0  0  0
    4.0848    5.0734   -0.3411 H   0  0  0  0  0  0  0  0  0  0  0  0
    6.3883    4.1954   -1.3553 H   0  0  0  0  0  0  0  0  0  0  0  0
    5.2512    3.5617   -2.5930 H   0  0  0  0  0  0  0  0  0  0  0  0
    5.3570    5.3294   -2.2918 H   0  0  0  0  0  0  0  0  0  0  0  0
 23 25  2  0  0  0  0
 22 23  1  0  0  0  0
 24 26  1  0  0  0  0
 22 24  2  0  0  0  0
 25 27  1  0  0  0  0
 26 27  2  0  0  0  0
 21 22  1  0  0  0  0
 27 28  1  0  0  0  0
  1  3  1  0  0  0  0
  1  7  1  0  0  0  0
  1  2  2  0  0  0  0
 39 40  1  0  0  0  0
 40 48  1  0  0  0  0
 40 41  2  0  0  0  0
  8  9  1  0  0  0  0
  9 17  1  0  0  0  0
  9 10  2  0  0  0  0
 18 19  1  0  0  0  0
 19 38  1  0  0  0  0
 19 20  2  0  0  0  0
 39 42  1  0  0  0  0
  8 11  1  0  0  0  0
 48 49  1  0  0  0  0
 18 21  1  0  0  0  0
 38 39  1  0  0  0  0
  7  8  1  0  0  0  0
 17 18  1  0  0  0  0
 23 33  1  0  0  0  0
 24 34  1  0  0  0  0
 25 35  1  0  0  0  0
 26 36  1  0  0  0  0
  3  4  1  0  0  0  0
  3  5  1  0  0  0  0
  3  6  1  0  0  0  0
 42 45  1  0  0  0  0
 42 46  1  0  0  0  0
 42 47  1  0  0  0  0
 11 14  1  0  0  0  0
 11 15  1  0  0  0  0
 11 16  1  0  0  0  0
 49 51  1  0  0  0  0
 49 52  1  0  0  0  0
 49 53  1  0  0  0  0
 21 31  1  0  0  0  0
 21 32  1  0  0  0  0
 39 44  1  0  0  0  0
  8 13  1  0  0  0  0
 18 30  1  0  0  0  0
 48 50  1  0  0  0  0
  7 12  1  0  0  0  0
 38 43  1  0  0  0  0
 17 29  1  0  0  0  0
 28 37  1  0  0  0  0
M  END
$$$$

  -OEChem-05262214473D

 53 53  0     1  0  0  0  0  0999 V2000
   -1.9298    0.2574    3.9747 C   0  0  0  0  0  0  0  0  0  0  0  0
   -0.9825   -0.3573    3.4990 O   0  0  0  0  0  0  0  0  0  0  0  0
   -2.3617   -0.0250    5.3754 C   0  0  0  0  0  0  0  0  0  0  0  0
   -3.1214   -0.8213    5.4288 H   0  0  0  0  0  0  0  0  0  0  0  0
   -1.5305   -0.3726    6.0097 H   0  0  0  0  0  0  0  0  0  0  0  0
   -2.7997    0.8299    5.9150 H   0  0  0  0  0  0  0  0  0  0  0  0
   -2.6795    1.2298    3.3336 N   0  0  0  0  0  0  0  0  0  0  0  0
   -2.4327    1.6559    1.9812 C   0  0  2  0  0  0  0  0  0  0  0  0
   -1.0977    1.0705    1.5400 C   0  0  0  0  0  0  0  0  0  0  0  0
   -0.2256    0.7177    2.3313 O   0  0  0  0  0  0  0  0  0  0  0  0
   -2.4239    3.1726    1.8718 C   0  0  0  0  0  0  0  0  0  0  0  0
   -3.4446    1.6657    3.8454 H   0  0  0  0  0  0  0  0  0  0  0  0
   -3.2368    1.2374    1.3661 H   0  0  0  0  0  0  0  0  0  0  0  0
   -1.6248    3.6099    2.4815 H   0  0  0  0  0  0  0  0  0  0  0  0
   -2.2644    3.4949    0.8375 H   0  0  0  0  0  0  0  0  0  0  0  0
   -3.3741    3.5939    2.2175 H   0  0  0  0  0  0  0  0  0  0  0  0
   -0.9750    1.0274    0.1566 N   0  0  0  0  0  0  0  0  0  0  0  0
    0.2023    0.5266   -0.5070 C   0  0  2  0  0  0  0  0  0  0  0  0
    1.1451    1.7081   -0.7055 C   0  0  0  0  0  0  0  0  0  0  0  0
    1.0984    2.4435   -1.6893 O   0  0  0  0  0  0  0  0  0  0  0  0
   -0.1262   -0.1254   -1.8551 C   0  0  0  0  0  0  0  0  0  0  0  0
   -0.9303   -1.3942   -1.7092 C   0  0  0  0  0  0  0  0  0  0  0  0
   -0.2907   -2.5930   -1.3938 C   0  0  0  0  0  0  0  0  0  0  0  0
   -2.3130   -1.3681   -1.8905 C   0  0  0  0  0  0  0  0  0  0  0  0
   -1.0339   -3.7657   -1.2596 C   0  0  0  0  0  0  0  0  0  0  0  0
   -3.0563   -2.5408   -1.7563 C   0  0  0  0  0  0  0  0  0  0  0  0
   -2.4167   -3.7396   -1.4409 C   0  0  0  0  0  0  0  0  0  0  0  0
   -3.1416   -4.8843   -1.3111 O   0  0  0  0  0  0  0  0  0  0  0  0
   -1.7582    1.3241   -0.4207 H   0  0  0  0  0  0  0  0  0  0  0  0
    0.6662   -0.1914    0.1794 H   0  0  0  0  0  0  0  0  0  0  0  0
    0.7976   -0.3353   -2.4112 H   0  0  0  0  0  0  0  0  0  0  0  0
   -0.6924    0.5695   -2.4893 H   0  0  0  0  0  0  0  0  0  0  0  0
    0.7861   -2.6226   -1.2508 H   0  0  0  0  0  0  0  0  0  0  0  0
   -2.8199   -0.4384   -2.1363 H   0  0  0  0  0  0  0  0  0  0  0  0
   -0.5299   -4.6967   -1.0140 H   0  0  0  0  0  0  0  0  0  0  0  0
   -4.1329   -2.5139   -1.8991 H   0  0  0  0  0  0  0  0  0  0  0  0
   -4.0829   -4.7056   -1.4657 H   0  0  0  0  0  0  0  0  0  0  0  0
    2.0081    1.8703    0.3694 N   0  0  0  0  0  0  0  0  0  0  0  0
    2.9890    2.9290    0.4467 C   0  0  2  0  0  0  0  0  0  0  0  0
    3.7760    2.9371   -0.8571 C   0  0  0  0  0  0  0  0  0  0  0  0
    3.8626    1.9574   -1.5945 O   0  0  0  0  0  0  0  0  0  0  0  0
    3.9141    2.7402    1.6389 C   0  0  0  0  0  0  0  0  0  0  0  0
    1.9474    1.2118    1.1404 H   0  0  0  0  0  0  0  0  0  0  0  0
    2.4336    3.8681    0.5446 H   0  0  0  0  0  0  0  0  0  0  0  0
    4.4790    1.8043    1.5585 H   0  0  0  0  0  0  0  0  0  0  0  0
    4.6383    3.5582    1.7126 H   0  0  0  0  0  0  0  0  0  0  0  0
    3.3435    2.7047    2.5732 H   0  0  0  0  0  0  0  0  0  0  0  0
    4.4059    4.1538   -1.0789 N   0  0  0  0  0  0  0  0  0  0  0  0
    5.2236    4.4078   -2.2420 C   0  0  0  0  0  0  0  0  0  0  0  0
    4.2634    4.9170   -0.4239 H   0  0  0  0  0  0  0  0  0  0  0  0
    6.2738    4.1767   -2.0100 H   0  0  0  0  0  0  0  0  0  0  0  0
    4.8841    3.7738   -3.0743 H   0  0  0  0  0  0  0  0  0  0  0  0
    5.1357    5.4663   -2.5278 H   0  0  0  0  0  0  0  0  0  0  0  0
 23 25  2  0  0  0  0
 22 23  1  0  0  0  0
 24 26  1  0  0  0  0
 22 24  2  0  0  0  0
 25 27  1  0  0  0  0
 26 27  2  0  0  0  0
 21 22  1  0  0  0  0
 27 28  1  0  0  0  0
  1  3  1  0  0  0  0
  1  7  1  0  0  0  0
  1  2  2  0  0  0  0
 39 40  1  0  0  0  0
 40 48  1  0  0  0  0
 40 41  2  0  0  0  0
  8  9  1  0  0  0  0
  9 17  1  0  0  0  0
  9 10  2  0  0  0  0
 18 19  1  0  0  0  0
 19 38  1  0  0  0  0
 19 20  2  0  0  0  0
 39 42  1  0  0  0  0
  8 11  1  0  0  0  0
 48 49  1  0  0  0  0
 18 21  1  0  0  0  0
 38 39  1  0  0  0  0
  7  8  1  0  0  0  0
 17 18  1  0  0  0  0
 23 33  1  0  0  0  0
 24 34  1  0  0  0  0
 25 35  1  0  0  0  0
 26 36  1  0  0  0  0
  3  4  1  0  0  0  0
  3  5  1  0  0  0  0
  3  6  1  0  0  0  0
 42 45  1  0  0  0  0
 42 46  1  0  0  0  0
 42 47  1  0  0  0  0
 11 14  1  0  0  0  0
 11 15  1  0  0  0  0
 11 16  1  0  0  0  0
 49 51  1  0  0  0  0
 49 52  1  0  0  0  0
 49 53  1  0  0  0  0
 21 31  1  0  0  0  0
 21 32  1  0  0  0  0
 39 44  1  0  0  0  0
  8 13  1  0  0  0  0
 18 30  1  0  0  0  0
 48 50  1  0  0  0  0
  7 12  1  0  0  0  0
 38 43  1  0  0  0  0
 17 29  1  0  0  0  0
 28 37  1  0  0  0  0
M  END
$$$$

  -OEChem-05262214473D

 53 53  0     1  0  0  0  0  0999 V2000
   -1.9298    0.2574    3.9747 C   0  0  0  0  0  0  0  0  0  0  0  0
   -0.9825   -0.3573    3.4990 O   0  0  0  0  0  0  0  0  0  0  0  0
   -2.3617   -0.0250    5.3754 C   0  0  0  0  0  0  0  0  0  0  0  0
   -3.1214   -0.8213    5.4288 H   0  0  0  0  0  0  0  0  0  0  0  0
   -1.5305   -0.3726    6.0097 H   0  0  0  0  0  0  0  0  0  0  0  0
   -2.7997    0.8299    5.9150 H   0  0  0  0  0  0  0  0  0  0  0  0
   -2.6795    1.2298    3.3336 N   0  0  0  0  0  0  0  0  0  0  0  0
   -2.4327    1.6559    1.9812 C   0  0  2  0  0  0  0  0  0  0  0  0
   -1.0977    1.0705    1.5400 C   0  0  0  0  0  0  0  0  0  0  0  0
   -0.2256    0.7177    2.3313 O   0  0  0  0  0  0  0  0  0  0  0  0
   -2.4239    3.1726    1.8718 C   0  0  0  0  0  0  0  0  0  0  0  0
   -3.4446    1.6657    3.8454 H   0  0  0  0  0  0  0  0  0  0  0  0
   -3.2368    1.2374    1.3661 H   0  0  0  0  0  0  0  0  0  0  0  0
   -1.6248    3.6099    2.4815 H   0  0  0  0  0  0  0  0  0  0  0  0
   -2.2644    3.4949    0.8375 H   0  0  0  0  0  0  0  0  0  0  0  0
   -3.3741    3.5939    2.2175 H   0  0  0  0  0  0  0  0  0  0  0  0
   -0.9750    1.0274    0.1566 N   0  0  0  0  0  0  0  0  0  0  0  0
    0.2023    0.5266   -0.5070 C   0  0  2  0  0  0  0  0  0  0  0  0
    1.1451    1.7081   -0.7055 C   0  0  0  0  0  0  0  0  0  0  0  0
    0.9415    2.5952   -1.5316 O   0  0  0  0  0  0  0  0  0  0  0  0
   -0.1262   -0.1254   -1.8551 C   0  0  0  0  0  0  0  0  0  0  0  0
   -0.9303   -1.3942   -1.7092 C   0  0  0  0  0  0  0  0  0  0  0  0
   -0.2907   -2.5930   -1.3938 C   0  0  0  0  0  0  0  0  0  0  0  0
   -2.3130   -1.3681   -1.8905 C   0  0  0  0  0  0  0  0  0  0  0  0
   -1.0339   -3.7657   -1.2596 C   0  0  0  0  0  0  0  0  0  0  0  0
   -3.0563   -2.5408   -1.7563 C   0  0  0  0  0  0  0  0  0  0  0  0
   -2.4167   -3.7396   -1.4409 C   0  0  0  0  0  0  0  0  0  0  0  0
   -3.1416   -4.8843   -1.3111 O   0  0  0  0  0  0  0  0  0  0  0  0
   -1.7582    1.3241   -0.4207 H   0  0  0  0  0  0  0  0  0  0  0  0
    0.6662   -0.1914    0.1794 H   0  0  0  0  0  0  0  0  0  0  0  0
    0.7976   -0.3353   -2.4112 H   0  0  0  0  0  0  0  0  0  0  0  0
   -0.6924    0.5695   -2.4893 H   0  0  0  0  0  0  0  0  0  0  0  0
    0.7861   -2.6226   -1.2508 H   0  0  0  0  0  0  0  0  0  0  0  0
   -2.8199   -0.4384   -2.1363 H   0  0  0  0  0  0  0  0  0  0  0  0
   -0.5299   -4.6967   -1.0140 H   0  0  0  0  0  0  0  0  0  0  0  0
   -4.1329   -2.5139   -1.8991 H   0  0  0  0  0  0  0  0  0  0  0  0
   -4.0829   -4.7056   -1.4657 H   0  0  0  0  0  0  0  0  0  0  0  0
    2.2107    1.6774    0.1833 N   0  0  0  0  0  0  0  0  0  0  0  0
    3.2392    2.6920    0.2245 C   0  0  2  0  0  0  0  0  0  0  0  0
    3.7521    2.8995   -1.1945 C   0  0  0  0  0  0  0  0  0  0  0  0
    3.6420    2.0522   -2.0782 O   0  0  0  0  0  0  0  0  0  0  0  0
    4.3712    2.2948    1.1590 C   0  0  0  0  0  0  0  0  0  0  0  0
    2.2708    0.9029    0.8377 H   0  0  0  0  0  0  0  0  0  0  0  0
    2.7618    3.6120    0.5791 H   0  0  0  0  0  0  0  0  0  0  0  0
    4.8616    1.3750    0.8199 H   0  0  0  0  0  0  0  0  0  0  0  0
    5.1357    3.0770    1.2111 H   0  0  0  0  0  0  0  0  0  0  0  0
    3.9957    2.1169    2.1725 H   0  0  0  0  0  0  0  0  0  0  0  0
    4.3857    4.1250   -1.3463 N   0  0  0  0  0  0  0  0  0  0  0  0
    4.9689    4.5514   -2.5969 C   0  0  0  0  0  0  0  0  0  0  0  0
    4.4140    4.7731   -0.5648 H   0  0  0  0  0  0  0  0  0  0  0  0
    6.0313    4.2674   -2.6225 H   0  0  0  0  0  0  0  0  0  0  0  0
    4.4401    4.0681   -3.4317 H   0  0  0  0  0  0  0  0  0  0  0  0
    4.8792    5.6439   -2.6895 H   0  0  0  0  0  0  0  0  0  0  0  0
 23 25  2  0  0  0  0
 22 23  1  0  0  0  0
 24 26  1  0  0  0  0
 22 24  2  0  0  0  0
 25 27  1  0  0  0  0
 26 27  2  0  0  0  0
 21 22  1  0  0  0  0
 27 28  1  0  0  0  0
  1  3  1  0  0  0  0
  1  7  1  0  0  0  0
  1  2  2  0  0  0  0
 39 40  1  0  0  0  0
 40 48  1  0  0  0  0
 40 41  2  0  0  0  0
  8  9  1  0  0  0  0
  9 17  1  0  0  0  0
  9 10  2  0  0  0  0
 18 19  1  0  0  0  0
 19 38  1  0  0  0  0
 19 20  2  0  0  0  0
 39 42  1  0  0  0  0
  8 11  1  0  0  0  0
 48 49  1  0  0  0  0
 18 21  1  0  0  0  0
 38 39  1  0  0  0  0
  7  8  1  0  0  0  0
 17 18  1  0  0  0  0
 23 33  1  0  0  0  0
 24 34  1  0  0  0  0
 25 35  1  0  0  0  0
 26 36  1  0  0  0  0
  3  4  1  0  0  0  0
  3  5  1  0  0  0  0
  3  6  1  0  0  0  0
 42 45  1  0  0  0  0
 42 46  1  0  0  0  0
 42 47  1  0  0  0  0
 11 14  1  0  0  0  0
 11 15  1  0  0  0  0
 11 16  1  0  0  0  0
 49 51  1  0  0  0  0
 49 52  1  0  0  0  0
 49 53  1  0  0  0  0
 21 31  1  0  0  0  0
 21 32  1  0  0  0  0
 39 44  1  0  0  0  0
  8 13  1  0  0  0  0
 18 30  1  0  0  0  0
 48 50  1  0  0  0  0
  7 12  1  0  0  0  0
 38 43  1  0  0  0  0
 17 29  1  0  0  0  0
 28 37  1  0  0  0  0
M  END
$$$$

  -OEChem-05262214473D

 53 53  0     1  0  0  0  0  0999 V2000
   -1.9298    0.2574    3.9747 C   0  0  0  0  0  0  0  0  0  0  0  0
   -0.9825   -0.3573    3.4990 O   0  0  0  0  0  0  0  0  0  0  0  0
   -2.3617   -0.0250    5.3754 C   0  0  0  0  0  0  0  0  0  0  0  0
   -3.1214   -0.8213    5.4288 H   0  0  0  0  0  0  0  0  0  0  0  0
   -1.5305   -0.3726    6.0097 H   0  0  0  0  0  0  0  0  0  0  0  0
   -2.7997    0.8299    5.9150 H   0  0  0  0  0  0  0  0  0  0  0  0
   -2.6795    1.2298    3.3336 N   0  0  0  0  0  0  0  0  0  0  0  0
   -2.4327    1.6559    1.9812 C   0  0  2  0  0  0  0  0  0  0  0  0
   -1.0977    1.0705    1.5400 C   0  0  0  0  0  0  0  0  0  0  0  0
   -0.2256    0.7177    2.3313 O   0  0  0  0  0  0  0  0  0  0  0  0
   -2.4239    3.1726    1.8718 C   0  0  0  0  0  0  0  0  0  0  0  0
   -3.4446    1.6657    3.8454 H   0  0  0  0  0  0  0  0  0  0  0  0
   -3.2368    1.2374    1.3661 H   0  0  0  0  0  0  0  0  0  0  0  0
   -1.6248    3.6099    2.4815 H   0  0  0  0  0  0  0  0  0  0  0  0
   -2.2644    3.4949    0.8375 H   0  0  0  0  0  0  0  0  0  0  0  0
   -3.3741    3.5939    2.2175 H   0  0  0  0  0  0  0  0  0  0  0  0
   -0.9750    1.0274    0.1566 N   0  0  0  0  0  0  0  0  0  0  0  0
    0.2023    0.5266   -0.5070 C   0  0  2  0  0  0  0  0  0  0  0  0
    1.1451    1.7081   -0.7055 C   0  0  0  0  0  0  0  0  0  0  0  0
    0.8267    2.7217   -1.3236 O   0  0  0  0  0  0  0  0  0  0  0  0
   -0.1262   -0.1254   -1.8551 C   0  0  0  0  0  0  0  0  0  0  0  0
   -0.9303   -1.3942   -1.7092 C   0  0  0  0  0  0  0  0  0  0  0  0
   -0.2907   -2.5930   -1.3938 C   0  0  0  0  0  0  0  0  0  0  0  0
   -2.3130   -1.3681   -1.8905 C   0  0  0  0  0  0  0  0  0  0  0  0
   -1.0339   -3.7657   -1.2596 C   0  0  0  0  0  0  0  0  0  0  0  0
   -3.0563   -2.5408   -1.7563 C   0  0  0  0  0  0  0  0  0  0  0  0
   -2.4167   -3.7396   -1.4409 C   0  0  0  0  0  0  0  0  0  0  0  0
   -3.1416   -4.8843   -1.3111 O   0  0  0  0  0  0  0  0  0  0  0  0
   -1.7582    1.3241   -0.4207 H   0  0  0  0  0  0  0  0  0  0  0  0
    0.6662   -0.1914    0.1794 H   0  0  0  0  0  0  0  0  0  0  0  0
    0.7976   -0.3353   -2.4112 H   0  0  0  0  0  0  0  0  0  0  0  0
   -0.6924    0.5695   -2.4893 H   0  0  0  0  0  0  0  0  0  0  0  0
    0.7861   -2.6226   -1.2508 H   0  0  0  0  0  0  0  0  0  0  0  0
   -2.8199   -0.4384   -2.1363 H   0  0  0  0  0  0  0  0  0  0  0  0
   -0.5299   -4.6967   -1.0140 H   0  0  0  0  0  0  0  0  0  0  0  0
   -4.1329   -2.5139   -1.8991 H   0  0  0  0  0  0  0  0  0  0  0  0
   -4.0829   -4.7056   -1.4657 H   0  0  0  0  0  0  0  0  0  0  0  0
    2.3626    1.5140   -0.0680 N   0  0  0  0  0  0  0  0  0  0  0  0
    3.4283    2.4902   -0.0784 C   0  0  2  0  0  0  0  0  0  0  0  0
    3.6601    2.9180   -1.5215 C   0  0  0  0  0  0  0  0  0  0  0  0
    3.3351    2.2286   -2.4860 O   0  0  0  0  0  0  0  0  0  0  0  0
    4.7015    1.9259    0.5325 C   0  0  0  0  0  0  0  0  0  0  0  0
    2.5122    0.6420    0.4310 H   0  0  0  0  0  0  0  0  0  0  0  0
    3.0772    3.3480    0.5055 H   0  0  0  0  0  0  0  0  0  0  0  0
    5.0685    1.0656   -0.0390 H   0  0  0  0  0  0  0  0  0  0  0  0
    5.4994    2.6757    0.5499 H   0  0  0  0  0  0  0  0  0  0  0  0
    4.5255    1.5913    1.5605 H   0  0  0  0  0  0  0  0  0  0  0  0
    4.3116    4.1406   -1.6052 N   0  0  0  0  0  0  0  0  0  0  0  0
    4.6564    4.7556   -2.8657 C   0  0  0  0  0  0  0  0  0  0  0  0
    4.5263    4.6517   -0.7541 H   0  0  0  0  0  0  0  0  0  0  0  0
    5.6772    4.4612   -3.1509 H   0  0  0  0  0  0  0  0  0  0  0  0
    3.9495    4.4245   -3.6407 H   0  0  0  0  0  0  0  0  0  0  0  0
    4.6050    5.8499   -2.7659 H   0  0  0  0  0  0  0  0  0  0  0  0
 23 25  2  0  0  0  0
 22 23  1  0  0  0  0
 24 26  1  0  0  0  0
 22 24  2  0  0  0  0
 25 27  1  0  0  0  0
 26 27  2  0  0  0  0
 21 22  1  0  0  0  0
 27 28  1  0  0  0  0
  1  3  1  0  0  0  0
  1  7  1  0  0  0  0
  1  2  2  0  0  0  0
 39 40  1  0  0  0  0
 40 48  1  0  0  0  0
 40 41  2  0  0  0  0
  8  9  1  0  0  0  0
  9 17  1  0  0  0  0
  9 10  2  0  0  0  0
 18 19  1  0  0  0  0
 19 38  1  0  0  0  0
 19 20  2  0  0  0  0
 39 42  1  0  0  0  0
  8 11  1  0  0  0  0
 48 49  1  0  0  0  0
 18 21  1  0  0  0  0
 38 39  1  0  0  0  0
  7  8  1  0  0  0  0
 17 18  1  0  0  0  0
 23 33  1  0  0  0  0
 24 34  1  0  0  0  0
 25 35  1  0  0  0  0
 26 36  1  0  0  0  0
  3  4  1  0  0  0  0
  3  5  1  0  0  0  0
  3  6  1  0  0  0  0
 42 45  1  0  0  0  0
 42 46  1  0  0  0  0
 42 47  1  0  0  0  0
 11 14  1  0  0  0  0
 11 15  1  0  0  0  0
 11 16  1  0  0  0  0
 49 51  1  0  0  0  0
 49 52  1  0  0  0  0
 49 53  1  0  0  0  0
 21 31  1  0  0  0  0
 21 32  1  0  0  0  0
 39 44  1  0  0  0  0
  8 13  1  0  0  0  0
 18 30  1  0  0  0  0
 48 50  1  0  0  0  0
  7 12  1  0  0  0  0
 38 43  1  0  0  0  0
 17 29  1  0  0  0  0
 28 37  1  0  0  0  0
M  END
$$$$

  -OEChem-05262214473D

 53 53  0     1  0  0  0  0  0999 V2000
   -1.9298    0.2574    3.9747 C   0  0  0  0  0  0  0  0  0  0  0  0
   -0.9825   -0.3573    3.4990 O   0  0  0  0  0  0  0  0  0  0  0  0
   -2.3617   -0.0250    5.3754 C   0  0  0  0  0  0  0  0  0  0  0  0
   -3.1214   -0.8213    5.4288 H   0  0  0  0  0  0  0  0  0  0  0  0
   -1.5305   -0.3726    6.0097 H   0  0  0  0  0  0  0  0  0  0  0  0
   -2.7997    0.8299    5.9150 H   0  0  0  0  0  0  0  0  0  0  0  0
   -2.6795    1.2298    3.3336 N   0  0  0  0  0  0  0  0  0  0  0  0
   -2.4327    1.6559    1.9812 C   0  0  2  0  0  0  0  0  0  0  0  0
   -1.0977    1.0705    1.5400 C   0  0  0  0  0  0  0  0  0  0  0  0
   -0.2256    0.7177    2.3313 O   0  0  0  0  0  0  0  0  0  0  0  0
   -2.4239    3.1726    1.8718 C   0  0  0  0  0  0  0  0  0  0  0  0
   -3.4446    1.6657    3.8454 H   0  0  0  0  0  0  0  0  0  0  0  0
   -3.2368    1.2374    1.3661 H   0  0  0  0  0  0  0  0  0  0  0  0
   -1.6248    3.6099    2.4815 H   0  0  0  0  0  0  0  0  0  0  0  0
   -2.2644    3.4949    0.8375 H   0  0  0  0  0  0  0  0  0  0  0  0
   -3.3741    3.5939    2.2175 H   0  0  0  0  0  0  0  0  0  0  0  0
   -0.9750    1.0274    0.1566 N   0  0  0  0  0  0  0  0  0  0  0  0
    0.2023    0.5266   -0.5070 C   0  0  2  0  0  0  0  0  0  0  0  0
    1.1451    1.7081   -0.7055 C   0  0  0  0  0  0  0  0  0  0  0  0
    0.7618    2.8145   -1.0794 O   0  0  0  0  0  0  0  0  0  0  0  0
   -0.1262   -0.1254   -1.8551 C   0  0  0  0  0  0  0  0  0  0  0  0
   -0.9303   -1.3942   -1.7092 C   0  0  0  0  0  0  0  0  0  0  0  0
   -0.2907   -2.5930   -1.3938 C   0  0  0  0  0  0  0  0  0  0  0  0
   -2.3130   -1.3681   -1.8905 C   0  0  0  0  0  0  0  0  0  0  0  0
   -1.0339   -3.7657   -1.2596 C   0  0  0  0  0  0  0  0  0  0  0  0
   -3.0563   -2.5408   -1.7563 C   0  0  0  0  0  0  0  0  0  0  0  0
   -2.4167   -3.7396   -1.4409 C   0  0  0  0  0  0  0  0  0  0  0  0
   -3.1416   -4.8843   -1.3111 O   0  0  0  0  0  0  0  0  0  0  0  0
   -1.7582    1.3241   -0.4207 H   0  0  0  0  0  0  0  0  0  0  0  0
    0.6662   -0.1914    0.1794 H   0  0  0  0  0  0  0  0  0  0  0  0
    0.7976   -0.3353   -2.4112 H   0  0  0  0  0  0  0  0  0  0  0  0
   -0.6924    0.5695   -2.4893 H   0  0  0  0  0  0  0  0  0  0  0  0
    0.7861   -2.6226   -1.2508 H   0  0  0  0  0  0  0  0  0  0  0  0
   -2.8199   -0.4384   -2.1363 H   0  0  0  0  0  0  0  0  0  0  0  0
   -0.5299   -4.6967   -1.0140 H   0  0  0  0  0  0  0  0  0  0  0  0
   -4.1329   -2.5139   -1.8991 H   0  0  0  0  0  0  0  0  0  0  0  0
   -4.0829   -4.7056   -1.4657 H   0  0  0  0  0  0  0  0  0  0  0  0
    2.4534    1.3913   -0.3673 N   0  0  0  0  0  0  0  0  0  0  0  0
    3.5434    2.3374   -0.4411 C   0  0  2  0  0  0  0  0  0  0  0  0
    3.5063    2.9913   -1.8161 C   0  0  0  0  0  0  0  0  0  0  0  0
    2.9628    2.4747   -2.7901 O   0  0  0  0  0  0  0  0  0  0  0  0
    4.8825    1.6588   -0.1980 C   0  0  0  0  0  0  0  0  0  0  0  0
    2.6549    0.4470   -0.0520 H   0  0  0  0  0  0  0  0  0  0  0  0
    3.3581    3.0941    0.3290 H   0  0  0  0  0  0  0  0  0  0  0  0
    5.0856    0.8973   -0.9597 H   0  0  0  0  0  0  0  0  0  0  0  0
    5.7045    2.3817   -0.2259 H   0  0  0  0  0  0  0  0  0  0  0  0
    4.8969    1.1638    0.7790 H   0  0  0  0  0  0  0  0  0  0  0  0
    4.1887    4.1996   -1.8379 N   0  0  0  0  0  0  0  0  0  0  0  0
    4.3076    5.0064   -3.0300 C   0  0  0  0  0  0  0  0  0  0  0  0
    4.5928    4.5609   -0.9789 H   0  0  0  0  0  0  0  0  0  0  0  0
    5.2358    4.7449   -3.5592 H   0  0  0  0  0  0  0  0  0  0  0  0
    3.4456    4.8187   -3.6871 H   0  0  0  0  0  0  0  0  0  0  0  0
    4.3317    6.0703   -2.7516 H   0  0  0  0  0  0  0  0  0  0  0  0
 23 25  2  0  0  0  0
 22 23  1  0  0  0  0
 24 26  1  0  0  0  0
 22 24  2  0  0  0  0
 25 27  1  0  0  0  0
 26 27  2  0  0  0  0
 21 22  1  0  0  0  0
 27 28  1  0  0  0  0
  1  3  1  0  0  0  0
  1  7  1  0  0  0  0
  1  2  2  0  0  0  0
 39 40  1  0  0  0  0
 40 48  1  0  0  0  0
 40 41  2  0  0  0  0
  8  9  1  0  0  0  0
  9 17  1  0  0  0  0
  9 10  2  0  0  0  0
 18 19  1  0  0  0  0
 19 38  1  0  0  0  0
 19 20  2  0  0  0  0
 39 42  1  0  0  0  0
  8 11  1  0  0  0  0
 48 49  1  0  0  0  0
 18 21  1  0  0  0  0
 38 39  1  0  0  0  0
  7  8  1  0  0  0  0
 17 18  1  0  0  0  0
 23 33  1  0  0  0  0
 24 34  1  0  0  0  0
 25 35  1  0  0  0  0
 26 36  1  0  0  0  0
  3  4  1  0  0  0  0
  3  5  1  0  0  0  0
  3  6  1  0  0  0  0
 42 45  1  0  0  0  0
 42 46  1  0  0  0  0
 42 47  1  0  0  0  0
 11 14  1  0  0  0  0
 11 15  1  0  0  0  0
 11 16  1  0  0  0  0
 49 51  1  0  0  0  0
 49 52  1  0  0  0  0
 49 53  1  0  0  0  0
 21 31  1  0  0  0  0
 21 32  1  0  0  0  0
 39 44  1  0  0  0  0
  8 13  1  0  0  0  0
 18 30  1  0  0  0  0
 48 50  1  0  0  0  0
  7 12  1  0  0  0  0
 38 43  1  0  0  0  0
 17 29  1  0  0  0  0
 28 37  1  0  0  0  0
M  END
$$$$

  -OEChem-05262214473D

 53 53  0     1  0  0  0  0  0999 V2000
   -1.9298    0.2574    3.9747 C   0  0  0  0  0  0  0  0  0  0  0  0
   -0.9825   -0.3573    3.4990 O   0  0  0  0  0  0  0  0  0  0  0  0
   -2.3617   -0.0250    5.3754 C   0  0  0  0  0  0  0  0  0  0  0  0
   -3.1214   -0.8213    5.4288 H   0  0  0  0  0  0  0  0  0  0  0  0
   -1.5305   -0.3726    6.0097 H   0  0  0  0  0  0  0  0  0  0  0  0
   -2.7997    0.8299    5.9150 H   0  0  0  0  0  0  0  0  0  0  0  0
   -2.6795    1.2298    3.3336 N   0  0  0  0  0  0  0  0  0  0  0  0
   -2.4327    1.6559    1.9812 C   0  0  2  0  0  0  0  0  0  0  0  0
   -1.0977    1.0705    1.5400 C   0  0  0  0  0  0  0  0  0  0  0  0
   -0.2256    0.7177    2.3313 O   0  0  0  0  0  0  0  0  0  0  0  0
   -2.4239    3.1726    1.8718 C   0  0  0  0  0  0  0  0  0  0  0  0
   -3.4446    1.6657    3.8454 H   0  0  0  0  0  0  0  0  0  0  0  0
   -3.2368    1.2374    1.3661 H   0  0  0  0  0  0  0  0  0  0  0  0
   -1.6248    3.6099    2.4815 H   0  0  0  0  0  0  0  0  0  0  0  0
   -2.2644    3.4949    0.8375 H   0  0  0  0  0  0  0  0  0  0  0  0
   -3.3741    3.5939    2.2175 H   0  0  0  0  0  0  0  0  0  0  0  0
   -0.9750    1.0274    0.1566 N   0  0  0  0  0  0  0  0  0  0  0  0
    0.2023    0.5266   -0.5070 C   0  0  2  0  0  0  0  0  0  0  0  0
    1.1451    1.7081   -0.7055 C   0  0  0  0  0  0  0  0  0  0  0  0
    0.7512    2.8672   -0.8157 O   0  0  0  0  0  0  0  0  0  0  0  0
   -0.1262   -0.1254   -1.8551 C   0  0  0  0  0  0  0  0  0  0  0  0
   -0.9303   -1.3942   -1.7092 C   0  0  0  0  0  0  0  0  0  0  0  0
   -0.2907   -2.5930   -1.3938 C   0  0  0  0  0  0  0  0  0  0  0  0
   -2.3130   -1.3681   -1.8905 C   0  0  0  0  0  0  0  0  0  0  0  0
   -1.0339   -3.7657   -1.2596 C   0  0  0  0  0  0  0  0  0  0  0  0
   -3.0563   -2.5408   -1.7563 C   0  0  0  0  0  0  0  0  0  0  0  0
   -2.4167   -3.7396   -1.4409 C   0  0  0  0  0  0  0  0  0  0  0  0
   -3.1416   -4.8843   -1.3111 O   0  0  0  0  0  0  0  0  0  0  0  0
   -1.7582    1.3241   -0.4207 H   0  0  0  0  0  0  0  0  0  0  0  0
    0.6662   -0.1914    0.1794 H   0  0  0  0  0  0  0  0  0  0  0  0
    0.7976   -0.3353   -2.4112 H   0  0  0  0  0  0  0  0  0  0  0  0
   -0.6924    0.5695   -2.4893 H   0  0  0  0  0  0  0  0  0  0  0  0
    0.7861   -2.6226   -1.2508 H   0  0  0  0  0  0  0  0  0  0  0  0
   -2.8199   -0.4384   -2.1363 H   0  0  0  0  0  0  0  0  0  0  0  0
   -0.5299   -4.6967   -1.0140 H   0  0  0  0  0  0  0  0  0  0  0  0
   -4.1329   -2.5139   -1.8991 H   0  0  0  0  0  0  0  0  0  0  0  0
   -4.0829   -4.7056   -1.4657 H   0  0  0  0  0  0  0  0  0  0  0  0
    2.4769    1.3176   -0.6942 N   0  0  0  0  0  0  0  0  0  0  0  0
    3.5768    2.2440   -0.8391 C   0  0  2  0  0  0  0  0  0  0  0  0
    3.3011    3.1145   -2.0580 C   0  0  0  0  0  0  0  0  0  0  0  0
    2.5505    2.7735   -2.9698 O   0  0  0  0  0  0  0  0  0  0  0  0
    4.9018    1.5117   -0.9826 C   0  0  0  0  0  0  0  0  0  0  0  0
    2.6893    0.3311   -0.5784 H   0  0  0  0  0  0  0  0  0  0  0  0
    3.5855    2.8677    0.0614 H   0  0  0  0  0  0  0  0  0  0  0  0
    4.9119    0.8815   -1.8794 H   0  0  0  0  0  0  0  0  0  0  0  0
    5.7371    2.2150   -1.0635 H   0  0  0  0  0  0  0  0  0  0  0  0
    5.0844    0.8633   -0.1188 H   0  0  0  0  0  0  0  0  0  0  0  0
    4.0252    4.2981   -2.0286 N   0  0  0  0  0  0  0  0  0  0  0  0
    3.9462    5.2867   -3.0785 C   0  0  0  0  0  0  0  0  0  0  0  0
    4.6089    4.5069   -1.2239 H   0  0  0  0  0  0  0  0  0  0  0  0
    4.7370    5.0991   -3.8197 H   0  0  0  0  0  0  0  0  0  0  0  0
    2.9629    5.2240   -3.5678 H   0  0  0  0  0  0  0  0  0  0  0  0
    4.0780    6.2902   -2.6478 H   0  0  0  0  0  0  0  0  0  0  0  0
 23 25  2  0  0  0  0
 22 23  1  0  0  0  0
 24 26  1  0  0  0  0
 22 24  2  0  0  0  0
 25 27  1  0  0  0  0
 26 27  2  0  0  0  0
 21 22  1  0  0  0  0
 27 28  1  0  0  0  0
  1  3  1  0  0  0  0
  1  7  1  0  0  0  0
  1  2  2  0  0  0  0
 39 40  1  0  0  0  0
 40 48  1  0  0  0  0
 40 41  2  0  0  0  0
  8  9  1  0  0  0  0
  9 17  1  0  0  0  0
  9 10  2  0  0  0  0
 18 19  1  0  0  0  0
 19 38  1  0  0  0  0
 19 20  2  0  0  0  0
 39 42  1  0  0  0  0
  8 11  1  0  0  0  0
 48 49  1  0  0  0  0
 18 21  1  0  0  0  0
 38 39  1  0  0  0  0
  7  8  1  0  0  0  0
 17 18  1  0  0  0  0
 23 33  1  0  0  0  0
 24 34  1  0  0  0  0
 25 35  1  0  0  0  0
 26 36  1  0  0  0  0
  3  4  1  0  0  0  0
  3  5  1  0  0  0  0
  3  6  1  0  0  0  0
 42 45  1  0  0  0  0
 42 46  1  0  0  0  0
 42 47  1  0  0  0  0
 11 14  1  0  0  0  0
 11 15  1  0  0  0  0
 11 16  1  0  0  0  0
 49 51  1  0  0  0  0
 49 52  1  0  0  0  0
 49 53  1  0  0  0  0
 21 31  1  0  0  0  0
 21 32  1  0  0  0  0
 39 44  1  0  0  0  0
  8 13  1  0  0  0  0
 18 30  1  0  0  0  0
 48 50  1  0  0  0  0
  7 12  1  0  0  0  0
 38 43  1  0  0  0  0
 17 29  1  0  0  0  0
 28 37  1  0  0  0  0
M  END
$$$$

  -OEChem-05262214473D

 53 53  0     1  0  0  0  0  0999 V2000
   -1.9298    0.2574    3.9747 C   0  0  0  0  0  0  0  0  0  0  0  0
   -0.9825   -0.3573    3.4990 O   0  0  0  0  0  0  0  0  0  0  0  0
   -2.3617   -0.0250    5.3754 C   0  0  0  0  0  0  0  0  0  0  0  0
   -3.1214   -0.8213    5.4288 H   0  0  0  0  0  0  0  0  0  0  0  0
   -1.5305   -0.3726    6.0097 H   0  0  0  0  0  0  0  0  0  0  0  0
   -2.7997    0.8299    5.9150 H   0  0  0  0  0  0  0  0  0  0  0  0
   -2.6795    1.2298    3.3336 N   0  0  0  0  0  0  0  0  0  0  0  0
   -2.4327    1.6559    1.9812 C   0  0  2  0  0  0  0  0  0  0  0  0
   -1.0977    1.0705    1.5400 C   0  0  0  0  0  0  0  0  0  0  0  0
   -0.2256    0.7177    2.3313 O   0  0  0  0  0  0  0  0  0  0  0  0
   -2.4239    3.1726    1.8718 C   0  0  0  0  0  0  0  0  0  0  0  0
   -3.4446    1.6657    3.8454 H   0  0  0  0  0  0  0  0  0  0  0  0
   -3.2368    1.2374    1.3661 H   0  0  0  0  0  0  0  0  0  0  0  0
   -1.6248    3.6099    2.4815 H   0  0  0  0  0  0  0  0  0  0  0  0
   -2.2644    3.4949    0.8375 H   0  0  0  0  0  0  0  0  0  0  0  0
   -3.3741    3.5939    2.2175 H   0  0  0  0  0  0  0  0  0  0  0  0
   -0.9750    1.0274    0.1566 N   0  0  0  0  0  0  0  0  0  0  0  0
    0.2023    0.5266   -0.5070 C   0  0  2  0  0  0  0  0  0  0  0  0
    1.1451    1.7081   -0.7055 C   0  0  0  0  0  0  0  0  0  0  0  0
    0.7957    2.8763   -0.5504 O   0  0  0  0  0  0  0  0  0  0  0  0
   -0.1262   -0.1254   -1.8551 C   0  0  0  0  0  0  0  0  0  0  0  0
   -0.9303   -1.3942   -1.7092 C   0  0  0  0  0  0  0  0  0  0  0  0
   -0.2907   -2.5930   -1.3938 C   0  0  0  0  0  0  0  0  0  0  0  0
   -2.3130   -1.3681   -1.8905 C   0  0  0  0  0  0  0  0  0  0  0  0
   -1.0339   -3.7657   -1.2596 C   0  0  0  0  0  0  0  0  0  0  0  0
   -3.0563   -2.5408   -1.7563 C   0  0  0  0  0  0  0  0  0  0  0  0
   -2.4167   -3.7396   -1.4409 C   0  0  0  0  0  0  0  0  0  0  0  0
   -3.1416   -4.8843   -1.3111 O   0  0  0  0  0  0  0  0  0  0  0  0
   -1.7582    1.3241   -0.4207 H   0  0  0  0  0  0  0  0  0  0  0  0
    0.6662   -0.1914    0.1794 H   0  0  0  0  0  0  0  0  0  0  0  0
    0.7976   -0.3353   -2.4112 H   0  0  0  0  0  0  0  0  0  0  0  0
   -0.6924    0.5695   -2.4893 H   0  0  0  0  0  0  0  0  0  0  0  0
    0.7861   -2.6226   -1.2508 H   0  0  0  0  0  0  0  0  0  0  0  0
   -2.8199   -0.4384   -2.1363 H   0  0  0  0  0  0  0  0  0  0  0  0
   -0.5299   -4.6967   -1.0140 H   0  0  0  0  0  0  0  0  0  0  0  0
   -4.1329   -2.5139   -1.8991 H   0  0  0  0  0  0  0  0  0  0  0  0
   -4.0829   -4.7056   -1.4657 H   0  0  0  0  0  0  0  0  0  0  0  0
    2.4316    1.2980   -1.0266 N   0  0  0  0  0  0  0  0  0  0  0  0
    3.5260    2.2163   -1.2451 C   0  0  2  0  0  0  0  0  0  0  0  0
    3.0585    3.2790   -2.2308 C   0  0  0  0  0  0  0  0  0  0  0  0
    2.1262    3.1048   -3.0128 O   0  0  0  0  0  0  0  0  0  0  0  0
    4.7581    1.4944   -1.7679 C   0  0  0  0  0  0  0  0  0  0  0  0
    2.6131    0.3022   -1.1123 H   0  0  0  0  0  0  0  0  0  0  0  0
    3.7439    2.6842   -0.2788 H   0  0  0  0  0  0  0  0  0  0  0  0
    4.5590    1.0193   -2.7354 H   0  0  0  0  0  0  0  0  0  0  0  0
    5.5950    2.1869   -1.9058 H   0  0  0  0  0  0  0  0  0  0  0  0
    5.0753    0.7105   -1.0717 H   0  0  0  0  0  0  0  0  0  0  0  0
    3.8324    4.4291   -2.1642 N   0  0  0  0  0  0  0  0  0  0  0  0
    3.5967    5.5773   -3.0081 C   0  0  0  0  0  0  0  0  0  0  0  0
    4.5734    4.4935   -1.4725 H   0  0  0  0  0  0  0  0  0  0  0  0
    4.2149    5.4998   -3.9146 H   0  0  0  0  0  0  0  0  0  0  0  0
    2.5343    5.6125   -3.2908 H   0  0  0  0  0  0  0  0  0  0  0  0
    3.8613    6.4945   -2.4614 H   0  0  0  0  0  0  0  0  0  0  0  0
 23 25  2  0  0  0  0
 22 23  1  0  0  0  0
 24 26  1  0  0  0  0
 22 24  2  0  0  0  0
 25 27  1  0  0  0  0
 26 27  2  0  0  0  0
 21 22  1  0  0  0  0
 27 28  1  0  0  0  0
  1  3  1  0  0  0  0
  1  7  1  0  0  0  0
  1  2  2  0  0  0  0
 39 40  1  0  0  0  0
 40 48  1  0  0  0  0
 40 41  2  0  0  0  0
  8  9  1  0  0  0  0
  9 17  1  0  0  0  0
  9 10  2  0  0  0  0
 18 19  1  0  0  0  0
 19 38  1  0  0  0  0
 19 20  2  0  0  0  0
 39 42  1  0  0  0  0
  8 11  1  0  0  0  0
 48 49  1  0  0  0  0
 18 21  1  0  0  0  0
 38 39  1  0  0  0  0
  7  8  1  0  0  0  0
 17 18  1  0  0  0  0
 23 33  1  0  0  0  0
 24 34  1  0  0  0  0
 25 35  1  0  0  0  0
 26 36  1  0  0  0  0
  3  4  1  0  0  0  0
  3  5  1  0  0  0  0
  3  6  1  0  0  0  0
 42 45  1  0  0  0  0
 42 46  1  0  0  0  0
 42 47  1  0  0  0  0
 11 14  1  0  0  0  0
 11 15  1  0  0  0  0
 11 16  1  0  0  0  0
 49 51  1  0  0  0  0
 49 52  1  0  0  0  0
 49 53  1  0  0  0  0
 21 31  1  0  0  0  0
 21 32  1  0  0  0  0
 39 44  1  0  0  0  0
  8 13  1  0  0  0  0
 18 30  1  0  0  0  0
 48 50  1  0  0  0  0
  7 12  1  0  0  0  0
 38 43  1  0  0  0  0
 17 29  1  0  0  0  0
 28 37  1  0  0  0  0
M  END
$$$$

  -OEChem-05262214473D

 53 53  0     1  0  0  0  0  0999 V2000
   -1.9298    0.2574    3.9747 C   0  0  0  0  0  0  0  0  0  0  0  0
   -0.9825   -0.3573    3.4990 O   0  0  0  0  0  0  0  0  0  0  0  0
   -2.3617   -0.0250    5.3754 C   0  0  0  0  0  0  0  0  0  0  0  0
   -3.1214   -0.8213    5.4288 H   0  0  0  0  0  0  0  0  0  0  0  0
   -1.5305   -0.3726    6.0097 H   0  0  0  0  0  0  0  0  0  0  0  0
   -2.7997    0.8299    5.9150 H   0  0  0  0  0  0  0  0  0  0  0  0
   -2.6795    1.2298    3.3336 N   0  0  0  0  0  0  0  0  0  0  0  0
   -2.4327    1.6559    1.9812 C   0  0  2  0  0  0  0  0  0  0  0  0
   -1.0977    1.0705    1.5400 C   0  0  0  0  0  0  0  0  0  0  0  0
   -0.2256    0.7177    2.3313 O   0  0  0  0  0  0  0  0  0  0  0  0
   -2.4239    3.1726    1.8718 C   0  0  0  0  0  0  0  0  0  0  0  0
   -3.4446    1.6657    3.8454 H   0  0  0  0  0  0  0  0  0  0  0  0
   -3.2368    1.2374    1.3661 H   0  0  0  0  0  0  0  0  0  0  0  0
   -1.6248    3.6099    2.4815 H   0  0  0  0  0  0  0  0  0  0  0  0
   -2.2644    3.4949    0.8375 H   0  0  0  0  0  0  0  0  0  0  0  0
   -3.3741    3.5939    2.2175 H   0  0  0  0  0  0  0  0  0  0  0  0
   -0.9750    1.0274    0.1566 N   0  0  0  0  0  0  0  0  0  0  0  0
    0.2023    0.5266   -0.5070 C   0  0  2  0  0  0  0  0  0  0  0  0
    1.2842    1.5921   -0.3712 C   0  0  0  0  0  0  0  0  0  0  0  0
    1.1167    2.6406    0.2481 O   0  0  0  0  0  0  0  0  0  0  0  0
   -0.0553    0.2141   -1.9856 C   0  0  0  0  0  0  0  0  0  0  0  0
   -1.0042   -0.9431   -2.1808 C   0  0  0  0  0  0  0  0  0  0  0  0
   -0.5356   -2.2534   -2.0846 C   0  0  0  0  0  0  0  0  0  0  0  0
   -2.3499   -0.7023   -2.4582 C   0  0  0  0  0  0  0  0  0  0  0  0
   -1.4126   -3.3228   -2.2656 C   0  0  0  0  0  0  0  0  0  0  0  0
   -3.2269   -1.7717   -2.6393 C   0  0  0  0  0  0  0  0  0  0  0  0
   -2.7583   -3.0820   -2.5429 C   0  0  0  0  0  0  0  0  0  0  0  0
   -3.6136   -4.1257   -2.7208 O   0  0  0  0  0  0  0  0  0  0  0  0
   -1.7582    1.3241   -0.4207 H   0  0  0  0  0  0  0  0  0  0  0  0
    0.5118   -0.3711    0.0410 H   0  0  0  0  0  0  0  0  0  0  0  0
    0.8921    0.0060   -2.5011 H   0  0  0  0  0  0  0  0  0  0  0  0
   -0.4739    1.0917   -2.4958 H   0  0  0  0  0  0  0  0  0  0  0  0
    0.5111   -2.4503   -1.8687 H   0  0  0  0  0  0  0  0  0  0  0  0
   -2.7239    0.3154   -2.5349 H   0  0  0  0  0  0  0  0  0  0  0  0
   -1.0415   -4.3414   -2.1896 H   0  0  0  0  0  0  0  0  0  0  0  0
   -4.2737   -1.5776   -2.8554 H   0  0  0  0  0  0  0  0  0  0  0  0
   -4.5088   -3.7992   -2.9051 H   0  0  0  0  0  0  0  0  0  0  0  0
    2.4706    1.2085   -0.9808 N   0  0  0  0  0  0  0  0  0  0  0  0
    3.6633    2.0248   -0.9800 C   0  0  2  0  0  0  0  0  0  0  0  0
    3.2749    3.4254   -1.4348 C   0  0  0  0  0  0  0  0  0  0  0  0
    2.2690    3.6594   -2.1015 O   0  0  0  0  0  0  0  0  0  0  0  0
    4.7362    1.4377   -1.8839 C   0  0  0  0  0  0  0  0  0  0  0  0
    2.5022    0.3088   -1.4513 H   0  0  0  0  0  0  0  0  0  0  0  0
    4.0203    2.0621    0.0550 H   0  0  0  0  0  0  0  0  0  0  0  0
    4.3967    1.3923   -2.9251 H   0  0  0  0  0  0  0  0  0  0  0  0
    5.6492    2.0418   -1.8600 H   0  0  0  0  0  0  0  0  0  0  0  0
    4.9929    0.4192   -1.5733 H   0  0  0  0  0  0  0  0  0  0  0  0
    4.2065    4.3776   -1.0454 N   0  0  0  0  0  0  0  0  0  0  0  0
    4.0701    5.7790   -1.3673 C   0  0  0  0  0  0  0  0  0  0  0  0
    5.0011    4.0967   -0.4784 H   0  0  0  0  0  0  0  0  0  0  0  0
    4.5981    5.9926   -2.3083 H   0  0  0  0  0  0  0  0  0  0  0  0
    3.0044    6.0270   -1.4805 H   0  0  0  0  0  0  0  0  0  0  0  0
    4.5037    6.3848   -0.5580 H   0  0  0  0  0  0  0  0  0  0  0  0
 23 25  2  0  0  0  0
 22 23  1  0  0  0  0
 24 26  1  0  0  0  0
 22 24  2  0  0  0  0
 25 27  1  0  0  0  0
 26 27  2  0  0  0  0
 21 22  1  0  0  0  0
 27 28  1  0  0  0  0
  1  3  1  0  0  0  0
  1  7  1  0  0  0  0
  1  2  2  0  0  0  0
 39 40  1  0  0  0  0
 40 48  1  0  0  0  0
 40 41  2  0  0  0  0
  8  9  1  0  0  0  0
  9 17  1  0  0  0  0
  9 10  2  0  0  0  0
 18 19  1  0  0  0  0
 19 38  1  0  0  0  0
 19 20  2  0  0  0  0
 39 42  1  0  0  0  0
  8 11  1  0  0  0  0
 48 49  1  0  0  0  0
 18 21  1  0  0  0  0
 38 39  1  0  0  0  0
  7  8  1  0  0  0  0
 17 18  1  0  0  0  0
 23 33  1  0  0  0  0
 24 34  1  0  0  0  0
 25 35  1  0  0  0  0
 26 36  1  0  0  0  0
  3  4  1  0  0  0  0
  3  5  1  0  0  0  0
  3  6  1  0  0  0  0
 42 45  1  0  0  0  0
 42 46  1  0  0  0  0
 42 47  1  0  0  0  0
 11 14  1  0  0  0  0
 11 15  1  0  0  0  0
 11 16  1  0  0  0  0
 49 51  1  0  0  0  0
 49 52  1  0  0  0  0
 49 53  1  0  0  0  0
 21 31  1  0  0  0  0
 21 32  1  0  0  0  0
 39 44  1  0  0  0  0
  8 13  1  0  0  0  0
 18 30  1  0  0  0  0
 48 50  1  0  0  0  0
  7 12  1  0  0  0  0
 38 43  1  0  0  0  0
 17 29  1  0  0  0  0
 28 37  1  0  0  0  0
M  END
$$$$

  -OEChem-05262214473D

 53 53  0     1  0  0  0  0  0999 V2000
   -1.9298    0.2574    3.9747 C   0  0  0  0  0  0  0  0  0  0  0  0
   -0.9825   -0.3573    3.4990 O   0  0  0  0  0  0  0  0  0  0  0  0
   -2.3617   -0.0250    5.3754 C   0  0  0  0  0  0  0  0  0  0  0  0
   -3.1214   -0.8213    5.4288 H   0  0  0  0  0  0  0  0  0  0  0  0
   -1.5305   -0.3726    6.0097 H   0  0  0  0  0  0  0  0  0  0  0  0
   -2.7997    0.8299    5.9150 H   0  0  0  0  0  0  0  0  0  0  0  0
   -2.6795    1.2298    3.3336 N   0  0  0  0  0  0  0  0  0  0  0  0
   -2.4327    1.6559    1.9812 C   0  0  2  0  0  0  0  0  0  0  0  0
   -1.0977    1.0705    1.5400 C   0  0  0  0  0  0  0  0  0  0  0  0
   -0.2256    0.7177    2.3313 O   0  0  0  0  0  0  0  0  0  0  0  0
   -2.4239    3.1726    1.8718 C   0  0  0  0  0  0  0  0  0  0  0  0
   -3.4446    1.6657    3.8454 H   0  0  0  0  0  0  0  0  0  0  0  0
   -3.2368    1.2374    1.3661 H   0  0  0  0  0  0  0  0  0  0  0  0
   -1.6248    3.6099    2.4815 H   0  0  0  0  0  0  0  0  0  0  0  0
   -2.2644    3.4949    0.8375 H   0  0  0  0  0  0  0  0  0  0  0  0
   -3.3741    3.5939    2.2175 H   0  0  0  0  0  0  0  0  0  0  0  0
   -0.9750    1.0274    0.1566 N   0  0  0  0  0  0  0  0  0  0  0  0
    0.2023    0.5266   -0.5070 C   0  0  2  0  0  0  0  0  0  0  0  0
    1.2842    1.5921   -0.3712 C   0  0  0  0  0  0  0  0  0  0  0  0
    1.2264    2.5032    0.4519 O   0  0  0  0  0  0  0  0  0  0  0  0
   -0.0553    0.2141   -1.9856 C   0  0  0  0  0  0  0  0  0  0  0  0
   -1.0042   -0.9431   -2.1808 C   0  0  0  0  0  0  0  0  0  0  0  0
   -0.5356   -2.2534   -2.0846 C   0  0  0  0  0  0  0  0  0  0  0  0
   -2.3499   -0.7023   -2.4582 C   0  0  0  0  0  0  0  0  0  0  0  0
   -1.4126   -3.3228   -2.2656 C   0  0  0  0  0  0  0  0  0  0  0  0
   -3.2269   -1.7717   -2.6393 C   0  0  0  0  0  0  0  0  0  0  0  0
   -2.7583   -3.0820   -2.5429 C   0  0  0  0  0  0  0  0  0  0  0  0
   -3.6136   -4.1257   -2.7208 O   0  0  0  0  0  0  0  0  0  0  0  0
   -1.7582    1.3241   -0.4207 H   0  0  0  0  0  0  0  0  0  0  0  0
    0.5118   -0.3711    0.0410 H   0  0  0  0  0  0  0  0  0  0  0  0
    0.8921    0.0060   -2.5011 H   0  0  0  0  0  0  0  0  0  0  0  0
   -0.4739    1.0917   -2.4958 H   0  0  0  0  0  0  0  0  0  0  0  0
    0.5111   -2.4503   -1.8687 H   0  0  0  0  0  0  0  0  0  0  0  0
   -2.7239    0.3154   -2.5349 H   0  0  0  0  0  0  0  0  0  0  0  0
   -1.0415   -4.3414   -2.1896 H   0  0  0  0  0  0  0  0  0  0  0  0
   -4.2737   -1.5776   -2.8554 H   0  0  0  0  0  0  0  0  0  0  0  0
   -4.5088   -3.7992   -2.9051 H   0  0  0  0  0  0  0  0  0  0  0  0
    2.3413    1.3733   -1.2436 N   0  0  0  0  0  0  0  0  0  0  0  0
    3.5090    2.2228   -1.3043 C   0  0  2  0  0  0  0  0  0  0  0  0
    3.0353    3.6661   -1.4141 C   0  0  0  0  0  0  0  0  0  0  0  0
    1.9229    3.9768   -1.8349 O   0  0  0  0  0  0  0  0  0  0  0  0
    4.4019    1.8530   -2.4784 C   0  0  0  0  0  0  0  0  0  0  0  0
    2.2918    0.5759   -1.8709 H   0  0  0  0  0  0  0  0  0  0  0  0
    4.0491    2.0858   -0.3611 H   0  0  0  0  0  0  0  0  0  0  0  0
    3.8778    1.9838   -3.4322 H   0  0  0  0  0  0  0  0  0  0  0  0
    5.3001    2.4786   -2.5063 H   0  0  0  0  0  0  0  0  0  0  0  0
    4.7174    0.8060   -2.4135 H   0  0  0  0  0  0  0  0  0  0  0  0
    4.0165    4.5682   -1.0274 N   0  0  0  0  0  0  0  0  0  0  0  0
    3.8149    5.9981   -1.0537 C   0  0  0  0  0  0  0  0  0  0  0  0
    4.9031    4.2210   -0.6738 H   0  0  0  0  0  0  0  0  0  0  0  0
    4.1604    6.4000   -2.0176 H   0  0  0  0  0  0  0  0  0  0  0  0
    2.7450    6.2199   -0.9265 H   0  0  0  0  0  0  0  0  0  0  0  0
    4.3855    6.4638   -0.2366 H   0  0  0  0  0  0  0  0  0  0  0  0
 23 25  2  0  0  0  0
 22 23  1  0  0  0  0
 24 26  1  0  0  0  0
 22 24  2  0  0  0  0
 25 27  1  0  0  0  0
 26 27  2  0  0  0  0
 21 22  1  0  0  0  0
 27 28  1  0  0  0  0
  1  3  1  0  0  0  0
  1  7  1  0  0  0  0
  1  2  2  0  0  0  0
 39 40  1  0  0  0  0
 40 48  1  0  0  0  0
 40 41  2  0  0  0  0
  8  9  1  0  0  0  0
  9 17  1  0  0  0  0
  9 10  2  0  0  0  0
 18 19  1  0  0  0  0
 19 38  1  0  0  0  0
 19 20  2  0  0  0  0
 39 42  1  0  0  0  0
  8 11  1  0  0  0  0
 48 49  1  0  0  0  0
 18 21  1  0  0  0  0
 38 39  1  0  0  0  0
  7  8  1  0  0  0  0
 17 18  1  0  0  0  0
 23 33  1  0  0  0  0
 24 34  1  0  0  0  0
 25 35  1  0  0  0  0
 26 36  1  0  0  0  0
  3  4  1  0  0  0  0
  3  5  1  0  0  0  0
  3  6  1  0  0  0  0
 42 45  1  0  0  0  0
 42 46  1  0  0  0  0
 42 47  1  0  0  0  0
 11 14  1  0  0  0  0
 11 15  1  0  0  0  0
 11 16  1  0  0  0  0
 49 51  1  0  0  0  0
 49 52  1  0  0  0  0
 49 53  1  0  0  0  0
 21 31  1  0  0  0  0
 21 32  1  0  0  0  0
 39 44  1  0  0  0  0
  8 13  1  0  0  0  0
 18 30  1  0  0  0  0
 48 50  1  0  0  0  0
  7 12  1  0  0  0  0
 38 43  1  0  0  0  0
 17 29  1  0  0  0  0
 28 37  1  0  0  0  0
M  END
$$$$

  -OEChem-05262214473D

 53 53  0     1  0  0  0  0  0999 V2000
   -1.9298    0.2574    3.9747 C   0  0  0  0  0  0  0  0  0  0  0  0
   -0.9825   -0.3573    3.4990 O   0  0  0  0  0  0  0  0  0  0  0  0
   -2.3617   -0.0250    5.3754 C   0  0  0  0  0  0  0  0  0  0  0  0
   -3.1214   -0.8213    5.4288 H   0  0  0  0  0  0  0  0  0  0  0  0
   -1.5305   -0.3726    6.0097 H   0  0  0  0  0  0  0  0  0  0  0  0
   -2.7997    0.8299    5.9150 H   0  0  0  0  0  0  0  0  0  0  0  0
   -2.6795    1.2298    3.3336 N   0  0  0  0  0  0  0  0  0  0  0  0
   -2.4327    1.6559    1.9812 C   0  0  2  0  0  0  0  0  0  0  0  0
   -1.0977    1.0705    1.5400 C   0  0  0  0  0  0  0  0  0  0  0  0
   -0.2256    0.7177    2.3313 O   0  0  0  0  0  0  0  0  0  0  0  0
   -2.4239    3.1726    1.8718 C   0  0  0  0  0  0  0  0  0  0  0  0
   -3.4446    1.6657    3.8454 H   0  0  0  0  0  0  0  0  0  0  0  0
   -3.2368    1.2374    1.3661 H   0  0  0  0  0  0  0  0  0  0  0  0
   -1.6248    3.6099    2.4815 H   0  0  0  0  0  0  0  0  0  0  0  0
   -2.2644    3.4949    0.8375 H   0  0  0  0  0  0  0  0  0  0  0  0
   -3.3741    3.5939    2.2175 H   0  0  0  0  0  0  0  0  0  0  0  0
   -0.9750    1.0274    0.1566 N   0  0  0  0  0  0  0  0  0  0  0  0
    0.2023    0.5266   -0.5070 C   0  0  2  0  0  0  0  0  0  0  0  0
    1.2842    1.5921   -0.3712 C   0  0  0  0  0  0  0  0  0  0  0  0
    1.3725    2.3356    0.6036 O   0  0  0  0  0  0  0  0  0  0  0  0
   -0.0553    0.2141   -1.9856 C   0  0  0  0  0  0  0  0  0  0  0  0
   -1.0042   -0.9431   -2.1808 C   0  0  0  0  0  0  0  0  0  0  0  0
   -0.5356   -2.2534   -2.0846 C   0  0  0  0  0  0  0  0  0  0  0  0
   -2.3499   -0.7023   -2.4582 C   0  0  0  0  0  0  0  0  0  0  0  0
   -1.4126   -3.3228   -2.2656 C   0  0  0  0  0  0  0  0  0  0  0  0
   -3.2269   -1.7717   -2.6393 C   0  0  0  0  0  0  0  0  0  0  0  0
   -2.7583   -3.0820   -2.5429 C   0  0  0  0  0  0  0  0  0  0  0  0
   -3.6136   -4.1257   -2.7208 O   0  0  0  0  0  0  0  0  0  0  0  0
   -1.7582    1.3241   -0.4207 H   0  0  0  0  0  0  0  0  0  0  0  0
    0.5118   -0.3711    0.0410 H   0  0  0  0  0  0  0  0  0  0  0  0
    0.8921    0.0060   -2.5011 H   0  0  0  0  0  0  0  0  0  0  0  0
   -0.4739    1.0917   -2.4958 H   0  0  0  0  0  0  0  0  0  0  0  0
    0.5111   -2.4503   -1.8687 H   0  0  0  0  0  0  0  0  0  0  0  0
   -2.7239    0.3154   -2.5349 H   0  0  0  0  0  0  0  0  0  0  0  0
   -1.0415   -4.3414   -2.1896 H   0  0  0  0  0  0  0  0  0  0  0  0
   -4.2737   -1.5776   -2.8554 H   0  0  0  0  0  0  0  0  0  0  0  0
   -4.5088   -3.7992   -2.9051 H   0  0  0  0  0  0  0  0  0  0  0  0
    2.1651    1.5777   -1.4437 N   0  0  0  0  0  0  0  0  0  0  0  0
    3.2967    2.4701   -1.5532 C   0  0  2  0  0  0  0  0  0  0  0  0
    2.8020    3.8892   -1.3065 C   0  0  0  0  0  0  0  0  0  0  0  0
    1.6295    4.2265   -1.4566 O   0  0  0  0  0  0  0  0  0  0  0  0
    3.9618    2.3556   -2.9159 C   0  0  0  0  0  0  0  0  0  0  0  0
    2.0065    0.9062   -2.1891 H   0  0  0  0  0  0  0  0  0  0  0  0
    4.0011    2.1859   -0.7639 H   0  0  0  0  0  0  0  0  0  0  0  0
    3.2713    2.6364   -3.7195 H   0  0  0  0  0  0  0  0  0  0  0  0
    4.8359    3.0113   -2.9872 H   0  0  0  0  0  0  0  0  0  0  0  0
    4.2904    1.3277   -3.1041 H   0  0  0  0  0  0  0  0  0  0  0  0
    3.8318    4.7447   -0.9406 N   0  0  0  0  0  0  0  0  0  0  0  0
    3.6200    6.1464   -0.6643 C   0  0  0  0  0  0  0  0  0  0  0  0
    4.7704    4.3747   -0.8219 H   0  0  0  0  0  0  0  0  0  0  0  0
    3.7808    6.7301   -1.5827 H   0  0  0  0  0  0  0  0  0  0  0  0
    2.5902    6.2984   -0.3090 H   0  0  0  0  0  0  0  0  0  0  0  0
    4.3277    6.4784    0.1096 H   0  0  0  0  0  0  0  0  0  0  0  0
 23 25  2  0  0  0  0
 22 23  1  0  0  0  0
 24 26  1  0  0  0  0
 22 24  2  0  0  0  0
 25 27  1  0  0  0  0
 26 27  2  0  0  0  0
 21 22  1  0  0  0  0
 27 28  1  0  0  0  0
  1  3  1  0  0  0  0
  1  7  1  0  0  0  0
  1  2  2  0  0  0  0
 39 40  1  0  0  0  0
 40 48  1  0  0  0  0
 40 41  2  0  0  0  0
  8  9  1  0  0  0  0
  9 17  1  0  0  0  0
  9 10  2  0  0  0  0
 18 19  1  0  0  0  0
 19 38  1  0  0  0  0
 19 20  2  0  0  0  0
 39 42  1  0  0  0  0
  8 11  1  0  0  0  0
 48 49  1  0  0  0  0
 18 21  1  0  0  0  0
 38 39  1  0  0  0  0
  7  8  1  0  0  0  0
 17 18  1  0  0  0  0
 23 33  1  0  0  0  0
 24 34  1  0  0  0  0
 25 35  1  0  0  0  0
 26 36  1  0  0  0  0
  3  4  1  0  0  0  0
  3  5  1  0  0  0  0
  3  6  1  0  0  0  0
 42 45  1  0  0  0  0
 42 46  1  0  0  0  0
 42 47  1  0  0  0  0
 11 14  1  0  0  0  0
 11 15  1  0  0  0  0
 11 16  1  0  0  0  0
 49 51  1  0  0  0  0
 49 52  1  0  0  0  0
 49 53  1  0  0  0  0
 21 31  1  0  0  0  0
 21 32  1  0  0  0  0
 39 44  1  0  0  0  0
  8 13  1  0  0  0  0
 18 30  1  0  0  0  0
 48 50  1  0  0  0  0
  7 12  1  0  0  0  0
 38 43  1  0  0  0  0
 17 29  1  0  0  0  0
 28 37  1  0  0  0  0
M  END
$$$$

  -OEChem-05262214473D

 53 53  0     1  0  0  0  0  0999 V2000
   -1.9298    0.2574    3.9747 C   0  0  0  0  0  0  0  0  0  0  0  0
   -0.9825   -0.3573    3.4990 O   0  0  0  0  0  0  0  0  0  0  0  0
   -2.3617   -0.0250    5.3754 C   0  0  0  0  0  0  0  0  0  0  0  0
   -3.1214   -0.8213    5.4288 H   0  0  0  0  0  0  0  0  0  0  0  0
   -1.5305   -0.3726    6.0097 H   0  0  0  0  0  0  0  0  0  0  0  0
   -2.7997    0.8299    5.9150 H   0  0  0  0  0  0  0  0  0  0  0  0
   -2.6795    1.2298    3.3336 N   0  0  0  0  0  0  0  0  0  0  0  0
   -2.4327    1.6559    1.9812 C   0  0  2  0  0  0  0  0  0  0  0  0
   -1.0977    1.0705    1.5400 C   0  0  0  0  0  0  0  0  0  0  0  0
   -0.2256    0.7177    2.3313 O   0  0  0  0  0  0  0  0  0  0  0  0
   -2.4239    3.1726    1.8718 C   0  0  0  0  0  0  0  0  0  0  0  0
   -3.4446    1.6657    3.8454 H   0  0  0  0  0  0  0  0  0  0  0  0
   -3.2368    1.2374    1.3661 H   0  0  0  0  0  0  0  0  0  0  0  0
   -1.6248    3.6099    2.4815 H   0  0  0  0  0  0  0  0  0  0  0  0
   -2.2644    3.4949    0.8375 H   0  0  0  0  0  0  0  0  0  0  0  0
   -3.3741    3.5939    2.2175 H   0  0  0  0  0  0  0  0  0  0  0  0
   -0.9750    1.0274    0.1566 N   0  0  0  0  0  0  0  0  0  0  0  0
    0.2023    0.5266   -0.5070 C   0  0  2  0  0  0  0  0  0  0  0  0
    1.2842    1.5921   -0.3712 C   0  0  0  0  0  0  0  0  0  0  0  0
    1.5448    2.1491    0.6930 O   0  0  0  0  0  0  0  0  0  0  0  0
   -0.0553    0.2141   -1.9856 C   0  0  0  0  0  0  0  0  0  0  0  0
   -1.0042   -0.9431   -2.1808 C   0  0  0  0  0  0  0  0  0  0  0  0
   -0.5356   -2.2534   -2.0846 C   0  0  0  0  0  0  0  0  0  0  0  0
   -2.3499   -0.7023   -2.4582 C   0  0  0  0  0  0  0  0  0  0  0  0
   -1.4126   -3.3228   -2.2656 C   0  0  0  0  0  0  0  0  0  0  0  0
   -3.2269   -1.7717   -2.6393 C   0  0  0  0  0  0  0  0  0  0  0  0
   -2.7583   -3.0820   -2.5429 C   0  0  0  0  0  0  0  0  0  0  0  0
   -3.6136   -4.1257   -2.7208 O   0  0  0  0  0  0  0  0  0  0  0  0
   -1.7582    1.3241   -0.4207 H   0  0  0  0  0  0  0  0  0  0  0  0
    0.5118   -0.3711    0.0410 H   0  0  0  0  0  0  0  0  0  0  0  0
    0.8921    0.0060   -2.5011 H   0  0  0  0  0  0  0  0  0  0  0  0
   -0.4739    1.0917   -2.4958 H   0  0  0  0  0  0  0  0  0  0  0  0
    0.5111   -2.4503   -1.8687 H   0  0  0  0  0  0  0  0  0  0  0  0
   -2.7239    0.3154   -2.5349 H   0  0  0  0  0  0  0  0  0  0  0  0
   -1.0415   -4.3414   -2.1896 H   0  0  0  0  0  0  0  0  0  0  0  0
   -4.2737   -1.5776   -2.8554 H   0  0  0  0  0  0  0  0  0  0  0  0
   -4.5088   -3.7992   -2.9051 H   0  0  0  0  0  0  0  0  0  0  0  0
    1.9540    1.8079   -1.5675 N   0  0  0  0  0  0  0  0  0  0  0  0
    3.0409    2.7498   -1.7098 C   0  0  2  0  0  0  0  0  0  0  0  0
    2.5910    4.0796   -1.1193 C   0  0  0  0  0  0  0  0  0  0  0  0
    1.4088    4.3914   -0.9921 O   0  0  0  0  0  0  0  0  0  0  0  0
    3.4461    2.9112   -3.1667 C   0  0  0  0  0  0  0  0  0  0  0  0
    1.6658    1.2770   -2.3842 H   0  0  0  0  0  0  0  0  0  0  0  0
    3.8796    2.3554   -1.1259 H   0  0  0  0  0  0  0  0  0  0  0  0
    2.6183    3.3054   -3.7674 H   0  0  0  0  0  0  0  0  0  0  0  0
    4.2883    3.6034   -3.2699 H   0  0  0  0  0  0  0  0  0  0  0  0
    3.7409    1.9486   -3.5981 H   0  0  0  0  0  0  0  0  0  0  0  0
    3.6651    4.8949   -0.7910 N   0  0  0  0  0  0  0  0  0  0  0  0
    3.4988    6.2135   -0.2257 C   0  0  0  0  0  0  0  0  0  0  0  0
    4.6118    4.5474   -0.9128 H   0  0  0  0  0  0  0  0  0  0  0  0
    3.4852    6.9602   -1.0334 H   0  0  0  0  0  0  0  0  0  0  0  0
    2.5505    6.2572    0.3299 H   0  0  0  0  0  0  0  0  0  0  0  0
    4.3341    6.4275    0.4573 H   0  0  0  0  0  0  0  0  0  0  0  0
 23 25  2  0  0  0  0
 22 23  1  0  0  0  0
 24 26  1  0  0  0  0
 22 24  2  0  0  0  0
 25 27  1  0  0  0  0
 26 27  2  0  0  0  0
 21 22  1  0  0  0  0
 27 28  1  0  0  0  0
  1  3  1  0  0  0  0
  1  7  1  0  0  0  0
  1  2  2  0  0  0  0
 39 40  1  0  0  0  0
 40 48  1  0  0  0  0
 40 41  2  0  0  0  0
  8  9  1  0  0  0  0
  9 17  1  0  0  0  0
  9 10  2  0  0  0  0
 18 19  1  0  0  0  0
 19 38  1  0  0  0  0
 19 20  2  0  0  0  0
 39 42  1  0  0  0  0
  8 11  1  0  0  0  0
 48 49  1  0  0  0  0
 18 21  1  0  0  0  0
 38 39  1  0  0  0  0
  7  8  1  0  0  0  0
 17 18  1  0  0  0  0
 23 33  1  0  0  0  0
 24 34  1  0  0  0  0
 25 35  1  0  0  0  0
 26 36  1  0  0  0  0
  3  4  1  0  0  0  0
  3  5  1  0  0  0  0
  3  6  1  0  0  0  0
 42 45  1  0  0  0  0
 42 46  1  0  0  0  0
 42 47  1  0  0  0  0
 11 14  1  0  0  0  0
 11 15  1  0  0  0  0
 11 16  1  0  0  0  0
 49 51  1  0  0  0  0
 49 52  1  0  0  0  0
 49 53  1  0  0  0  0
 21 31  1  0  0  0  0
 21 32  1  0  0  0  0
 39 44  1  0  0  0  0
  8 13  1  0  0  0  0
 18 30  1  0  0  0  0
 48 50  1  0  0  0  0
  7 12  1  0  0  0  0
 38 43  1  0  0  0  0
 17 29  1  0  0  0  0
 28 37  1  0  0  0  0
M  END
$$$$

  -OEChem-05262214473D

 53 53  0     1  0  0  0  0  0999 V2000
   -1.9298    0.2574    3.9747 C   0  0  0  0  0  0  0  0  0  0  0  0
   -0.9825   -0.3573    3.4990 O   0  0  0  0  0  0  0  0  0  0  0  0
   -2.3617   -0.0250    5.3754 C   0  0  0  0  0  0  0  0  0  0  0  0
   -3.1214   -0.8213    5.4288 H   0  0  0  0  0  0  0  0  0  0  0  0
   -1.5305   -0.3726    6.0097 H   0  0  0  0  0  0  0  0  0  0  0  0
   -2.7997    0.8299    5.9150 H   0  0  0  0  0  0  0  0  0  0  0  0
   -2.6795    1.2298    3.3336 N   0  0  0  0  0  0  0  0  0  0  0  0
   -2.4327    1.6559    1.9812 C   0  0  2  0  0  0  0  0  0  0  0  0
   -1.0977    1.0705    1.5400 C   0  0  0  0  0  0  0  0  0  0  0  0
   -0.2256    0.7177    2.3313 O   0  0  0  0  0  0  0  0  0  0  0  0
   -2.4239    3.1726    1.8718 C   0  0  0  0  0  0  0  0  0  0  0  0
   -3.4446    1.6657    3.8454 H   0  0  0  0  0  0  0  0  0  0  0  0
   -3.2368    1.2374    1.3661 H   0  0  0  0  0  0  0  0  0  0  0  0
   -1.6248    3.6099    2.4815 H   0  0  0  0  0  0  0  0  0  0  0  0
   -2.2644    3.4949    0.8375 H   0  0  0  0  0  0  0  0  0  0  0  0
   -3.3741    3.5939    2.2175 H   0  0  0  0  0  0  0  0  0  0  0  0
   -0.9750    1.0274    0.1566 N   0  0  0  0  0  0  0  0  0  0  0  0
    0.2023    0.5266   -0.5070 C   0  0  2  0  0  0  0  0  0  0  0  0
    1.2842    1.5921   -0.3712 C   0  0  0  0  0  0  0  0  0  0  0  0
    1.7318    1.9566    0.7140 O   0  0  0  0  0  0  0  0  0  0  0  0
   -0.0553    0.2141   -1.9856 C   0  0  0  0  0  0  0  0  0  0  0  0
   -1.0042   -0.9431   -2.1808 C   0  0  0  0  0  0  0  0  0  0  0  0
   -0.5356   -2.2534   -2.0846 C   0  0  0  0  0  0  0  0  0  0  0  0
   -2.3499   -0.7023   -2.4582 C   0  0  0  0  0  0  0  0  0  0  0  0
   -1.4126   -3.3228   -2.2656 C   0  0  0  0  0  0  0  0  0  0  0  0
   -3.2269   -1.7717   -2.6393 C   0  0  0  0  0  0  0  0  0  0  0  0
   -2.7583   -3.0820   -2.5429 C   0  0  0  0  0  0  0  0  0  0  0  0
   -3.6136   -4.1257   -2.7208 O   0  0  0  0  0  0  0  0  0  0  0  0
   -1.7582    1.3241   -0.4207 H   0  0  0  0  0  0  0  0  0  0  0  0
    0.5118   -0.3711    0.0410 H   0  0  0  0  0  0  0  0  0  0  0  0
    0.8921    0.0060   -2.5011 H   0  0  0  0  0  0  0  0  0  0  0  0
   -0.4739    1.0917   -2.4958 H   0  0  0  0  0  0  0  0  0  0  0  0
    0.5111   -2.4503   -1.8687 H   0  0  0  0  0  0  0  0  0  0  0  0
   -2.7239    0.3154   -2.5349 H   0  0  0  0  0  0  0  0  0  0  0  0
   -1.0415   -4.3414   -2.1896 H   0  0  0  0  0  0  0  0  0  0  0  0
   -4.2737   -1.5776   -2.8554 H   0  0  0  0  0  0  0  0  0  0  0  0
   -4.5088   -3.7992   -2.9051 H   0  0  0  0  0  0  0  0  0  0  0  0
    1.7223    2.0481   -1.6067 N   0  0  0  0  0  0  0  0  0  0  0  0
    2.7590    3.0428   -1.7634 C   0  0  2  0  0  0  0  0  0  0  0  0
    2.4166    4.2243   -0.8654 C   0  0  0  0  0  0  0  0  0  0  0  0
    1.2758    4.4604   -0.4733 O   0  0  0  0  0  0  0  0  0  0  0  0
    2.8897    3.4821   -3.2135 C   0  0  0  0  0  0  0  0  0  0  0  0
    1.2928    1.6632   -2.4429 H   0  0  0  0  0  0  0  0  0  0  0  0
    3.6929    2.5828   -1.4225 H   0  0  0  0  0  0  0  0  0  0  0  0
    1.9636    3.9455   -3.5728 H   0  0  0  0  0  0  0  0  0  0  0  0
    3.6945    4.2146   -3.3351 H   0  0  0  0  0  0  0  0  0  0  0  0
    3.1065    2.6264   -3.8619 H   0  0  0  0  0  0  0  0  0  0  0  0
    3.5277    5.0087   -0.5887 N   0  0  0  0  0  0  0  0  0  0  0  0
    3.4596    6.1951    0.2322 C   0  0  0  0  0  0  0  0  0  0  0  0
    4.4381    4.7271   -0.9402 H   0  0  0  0  0  0  0  0  0  0  0  0
    3.2937    7.0748   -0.4070 H   0  0  0  0  0  0  0  0  0  0  0  0
    2.6287    6.0992    0.9466 H   0  0  0  0  0  0  0  0  0  0  0  0
    4.4044    6.3147    0.7825 H   0  0  0  0  0  0  0  0  0  0  0  0
 23 25  2  0  0  0  0
 22 23  1  0  0  0  0
 24 26  1  0  0  0  0
 22 24  2  0  0  0  0
 25 27  1  0  0  0  0
 26 27  2  0  0  0  0
 21 22  1  0  0  0  0
 27 28  1  0  0  0  0
  1  3  1  0  0  0  0
  1  7  1  0  0  0  0
  1  2  2  0  0  0  0
 39 40  1  0  0  0  0
 40 48  1  0  0  0  0
 40 41  2  0  0  0  0
  8  9  1  0  0  0  0
  9 17  1  0  0  0  0
  9 10  2  0  0  0  0
 18 19  1  0  0  0  0
 19 38  1  0  0  0  0
 19 20  2  0  0  0  0
 39 42  1  0  0  0  0
  8 11  1  0  0  0  0
 48 49  1  0  0  0  0
 18 21  1  0  0  0  0
 38 39  1  0  0  0  0
  7  8  1  0  0  0  0
 17 18  1  0  0  0  0
 23 33  1  0  0  0  0
 24 34  1  0  0  0  0
 25 35  1  0  0  0  0
 26 36  1  0  0  0  0
  3  4  1  0  0  0  0
  3  5  1  0  0  0  0
  3  6  1  0  0  0  0
 42 45  1  0  0  0  0
 42 46  1  0  0  0  0
 42 47  1  0  0  0  0
 11 14  1  0  0  0  0
 11 15  1  0  0  0  0
 11 16  1  0  0  0  0
 49 51  1  0  0  0  0
 49 52  1  0  0  0  0
 49 53  1  0  0  0  0
 21 31  1  0  0  0  0
 21 32  1  0  0  0  0
 39 44  1  0  0  0  0
  8 13  1  0  0  0  0
 18 30  1  0  0  0  0
 48 50  1  0  0  0  0
  7 12  1  0  0  0  0
 38 43  1  0  0  0  0
 17 29  1  0  0  0  0
 28 37  1  0  0  0  0
M  END
$$$$

  -OEChem-05262214473D

 53 53  0     1  0  0  0  0  0999 V2000
   -1.9298    0.2574    3.9747 C   0  0  0  0  0  0  0  0  0  0  0  0
   -0.9825   -0.3573    3.4990 O   0  0  0  0  0  0  0  0  0  0  0  0
   -2.3617   -0.0250    5.3754 C   0  0  0  0  0  0  0  0  0  0  0  0
   -3.1214   -0.8213    5.4288 H   0  0  0  0  0  0  0  0  0  0  0  0
   -1.5305   -0.3726    6.0097 H   0  0  0  0  0  0  0  0  0  0  0  0
   -2.7997    0.8299    5.9150 H   0  0  0  0  0  0  0  0  0  0  0  0
   -2.6795    1.2298    3.3336 N   0  0  0  0  0  0  0  0  0  0  0  0
   -2.4327    1.6559    1.9812 C   0  0  2  0  0  0  0  0  0  0  0  0
   -1.0977    1.0705    1.5400 C   0  0  0  0  0  0  0  0  0  0  0  0
   -0.2256    0.7177    2.3313 O   0  0  0  0  0  0  0  0  0  0  0  0
   -2.4239    3.1726    1.8718 C   0  0  0  0  0  0  0  0  0  0  0  0
   -3.4446    1.6657    3.8454 H   0  0  0  0  0  0  0  0  0  0  0  0
   -3.2368    1.2374    1.3661 H   0  0  0  0  0  0  0  0  0  0  0  0
   -1.6248    3.6099    2.4815 H   0  0  0  0  0  0  0  0  0  0  0  0
   -2.2644    3.4949    0.8375 H   0  0  0  0  0  0  0  0  0  0  0  0
   -3.3741    3.5939    2.2175 H   0  0  0  0  0  0  0  0  0  0  0  0
   -0.9750    1.0274    0.1566 N   0  0  0  0  0  0  0  0  0  0  0  0
    0.2023    0.5266   -0.5070 C   0  0  2  0  0  0  0  0  0  0  0  0
    1.2842    1.5921   -0.3712 C   0  0  0  0  0  0  0  0  0  0  0  0
    1.9206    1.7711    0.6650 O   0  0  0  0  0  0  0  0  0  0  0  0
   -0.0553    0.2141   -1.9856 C   0  0  0  0  0  0  0  0  0  0  0  0
   -1.0042   -0.9431   -2.1808 C   0  0  0  0  0  0  0  0  0  0  0  0
   -0.5356   -2.2534   -2.0846 C   0  0  0  0  0  0  0  0  0  0  0  0
   -2.3499   -0.7023   -2.4582 C   0  0  0  0  0  0  0  0  0  0  0  0
   -1.4126   -3.3228   -2.2656 C   0  0  0  0  0  0  0  0  0  0  0  0
   -3.2269   -1.7717   -2.6393 C   0  0  0  0  0  0  0  0  0  0  0  0
   -2.7583   -3.0820   -2.5429 C   0  0  0  0  0  0  0  0  0  0  0  0
   -3.6136   -4.1257   -2.7208 O   0  0  0  0  0  0  0  0  0  0  0  0
   -1.7582    1.3241   -0.4207 H   0  0  0  0  0  0  0  0  0  0  0  0
    0.5118   -0.3711    0.0410 H   0  0  0  0  0  0  0  0  0  0  0  0
    0.8921    0.0060   -2.5011 H   0  0  0  0  0  0  0  0  0  0  0  0
   -0.4739    1.0917   -2.4958 H   0  0  0  0  0  0  0  0  0  0  0  0
    0.5111   -2.4503   -1.8687 H   0  0  0  0  0  0  0  0  0  0  0  0
   -2.7239    0.3154   -2.5349 H   0  0  0  0  0  0  0  0  0  0  0  0
   -1.0415   -4.3414   -2.1896 H   0  0  0  0  0  0  0  0  0  0  0  0
   -4.2737   -1.5776   -2.8554 H   0  0  0  0  0  0  0  0  0  0  0  0
   -4.5088   -3.7992   -2.9051 H   0  0  0  0  0  0  0  0  0  0  0  0
    1.4860    2.2819   -1.5586 N   0  0  0  0  0  0  0  0  0  0  0  0
    2.4703    3.3292   -1.7104 C   0  0  2  0  0  0  0  0  0  0  0  0
    2.2908    4.3134   -0.5621 C   0  0  0  0  0  0  0  0  0  0  0  0
    1.2396    4.4286    0.0646 O   0  0  0  0  0  0  0  0  0  0  0  0
    2.3307    4.0294   -3.0532 C   0  0  0  0  0  0  0  0  0  0  0  0
    0.9130    2.0385   -2.3612 H   0  0  0  0  0  0  0  0  0  0  0  0
    3.4536    2.8526   -1.6334 H   0  0  0  0  0  0  0  0  0  0  0  0
    1.3516    4.5129   -3.1487 H   0  0  0  0  0  0  0  0  0  0  0  0
    3.0951    4.8033   -3.1785 H   0  0  0  0  0  0  0  0  0  0  0  0
    2.4304    3.3149   -3.8775 H   0  0  0  0  0  0  0  0  0  0  0  0
    3.4289    5.0782   -0.3476 N   0  0  0  0  0  0  0  0  0  0  0  0
    3.5049    6.0922    0.6782 C   0  0  0  0  0  0  0  0  0  0  0  0
    4.2614    4.9018   -0.9022 H   0  0  0  0  0  0  0  0  0  0  0  0
    3.2194    7.0660    0.2537 H   0  0  0  0  0  0  0  0  0  0  0  0
    2.8194    5.8351    1.4992 H   0  0  0  0  0  0  0  0  0  0  0  0
    4.5337    6.1476    1.0633 H   0  0  0  0  0  0  0  0  0  0  0  0
 23 25  2  0  0  0  0
 22 23  1  0  0  0  0
 24 26  1  0  0  0  0
 22 24  2  0  0  0  0
 25 27  1  0  0  0  0
 26 27  2  0  0  0  0
 21 22  1  0  0  0  0
 27 28  1  0  0  0  0
  1  3  1  0  0  0  0
  1  7  1  0  0  0  0
  1  2  2  0  0  0  0
 39 40  1  0  0  0  0
 40 48  1  0  0  0  0
 40 41  2  0  0  0  0
  8  9  1  0  0  0  0
  9 17  1  0  0  0  0
  9 10  2  0  0  0  0
 18 19  1  0  0  0  0
 19 38  1  0  0  0  0
 19 20  2  0  0  0  0
 39 42  1  0  0  0  0
  8 11  1  0  0  0  0
 48 49  1  0  0  0  0
 18 21  1  0  0  0  0
 38 39  1  0  0  0  0
  7  8  1  0  0  0  0
 17 18  1  0  0  0  0
 23 33  1  0  0  0  0
 24 34  1  0  0  0  0
 25 35  1  0  0  0  0
 26 36  1  0  0  0  0
  3  4  1  0  0  0  0
  3  5  1  0  0  0  0
  3  6  1  0  0  0  0
 42 45  1  0  0  0  0
 42 46  1  0  0  0  0
 42 47  1  0  0  0  0
 11 14  1  0  0  0  0
 11 15  1  0  0  0  0
 11 16  1  0  0  0  0
 49 51  1  0  0  0  0
 49 52  1  0  0  0  0
 49 53  1  0  0  0  0
 21 31  1  0  0  0  0
 21 32  1  0  0  0  0
 39 44  1  0  0  0  0
  8 13  1  0  0  0  0
 18 30  1  0  0  0  0
 48 50  1  0  0  0  0
  7 12  1  0  0  0  0
 38 43  1  0  0  0  0
 17 29  1  0  0  0  0
 28 37  1  0  0  0  0
M  END
$$$$

  -OEChem-05262214473D

 53 53  0     1  0  0  0  0  0999 V2000
   -1.9298    0.2574    3.9747 C   0  0  0  0  0  0  0  0  0  0  0  0
   -0.9825   -0.3573    3.4990 O   0  0  0  0  0  0  0  0  0  0  0  0
   -2.3617   -0.0250    5.3754 C   0  0  0  0  0  0  0  0  0  0  0  0
   -3.1214   -0.8213    5.4288 H   0  0  0  0  0  0  0  0  0  0  0  0
   -1.5305   -0.3726    6.0097 H   0  0  0  0  0  0  0  0  0  0  0  0
   -2.7997    0.8299    5.9150 H   0  0  0  0  0  0  0  0  0  0  0  0
   -2.6795    1.2298    3.3336 N   0  0  0  0  0  0  0  0  0  0  0  0
   -2.4327    1.6559    1.9812 C   0  0  2  0  0  0  0  0  0  0  0  0
   -1.0977    1.0705    1.5400 C   0  0  0  0  0  0  0  0  0  0  0  0
   -0.2256    0.7177    2.3313 O   0  0  0  0  0  0  0  0  0  0  0  0
   -2.4239    3.1726    1.8718 C   0  0  0  0  0  0  0  0  0  0  0  0
   -3.4446    1.6657    3.8454 H   0  0  0  0  0  0  0  0  0  0  0  0
   -3.2368    1.2374    1.3661 H   0  0  0  0  0  0  0  0  0  0  0  0
   -1.6248    3.6099    2.4815 H   0  0  0  0  0  0  0  0  0  0  0  0
   -2.2644    3.4949    0.8375 H   0  0  0  0  0  0  0  0  0  0  0  0
   -3.3741    3.5939    2.2175 H   0  0  0  0  0  0  0  0  0  0  0  0
   -0.9750    1.0274    0.1566 N   0  0  0  0  0  0  0  0  0  0  0  0
    0.2023    0.5266   -0.5070 C   0  0  2  0  0  0  0  0  0  0  0  0
    1.2842    1.5921   -0.3712 C   0  0  0  0  0  0  0  0  0  0  0  0
    2.0984    1.6053    0.5495 O   0  0  0  0  0  0  0  0  0  0  0  0
   -0.0553    0.2141   -1.9856 C   0  0  0  0  0  0  0  0  0  0  0  0
   -1.0042   -0.9431   -2.1808 C   0  0  0  0  0  0  0  0  0  0  0  0
   -0.5356   -2.2534   -2.0846 C   0  0  0  0  0  0  0  0  0  0  0  0
   -2.3499   -0.7023   -2.4582 C   0  0  0  0  0  0  0  0  0  0  0  0
   -1.4126   -3.3228   -2.2656 C   0  0  0  0  0  0  0  0  0  0  0  0
   -3.2269   -1.7717   -2.6393 C   0  0  0  0  0  0  0  0  0  0  0  0
   -2.7583   -3.0820   -2.5429 C   0  0  0  0  0  0  0  0  0  0  0  0
   -3.6136   -4.1257   -2.7208 O   0  0  0  0  0  0  0  0  0  0  0  0
   -1.7582    1.3241   -0.4207 H   0  0  0  0  0  0  0  0  0  0  0  0
    0.5118   -0.3711    0.0410 H   0  0  0  0  0  0  0  0  0  0  0  0
    0.8921    0.0060   -2.5011 H   0  0  0  0  0  0  0  0  0  0  0  0
   -0.4739    1.0917   -2.4958 H   0  0  0  0  0  0  0  0  0  0  0  0
    0.5111   -2.4503   -1.8687 H   0  0  0  0  0  0  0  0  0  0  0  0
   -2.7239    0.3154   -2.5349 H   0  0  0  0  0  0  0  0  0  0  0  0
   -1.0415   -4.3414   -2.1896 H   0  0  0  0  0  0  0  0  0  0  0  0
   -4.2737   -1.5776   -2.8554 H   0  0  0  0  0  0  0  0  0  0  0  0
   -4.5088   -3.7992   -2.9051 H   0  0  0  0  0  0  0  0  0  0  0  0
    1.2610    2.4935   -1.4263 N   0  0  0  0  0  0  0  0  0  0  0  0
    2.1944    3.5895   -1.5544 C   0  0  2  0  0  0  0  0  0  0  0  0
    2.2221    4.3409   -0.2299 C   0  0  0  0  0  0  0  0  0  0  0  0
    1.3026    4.2982    0.5848 O   0  0  0  0  0  0  0  0  0  0  0  0
    1.8070    4.5156   -2.6967 C   0  0  0  0  0  0  0  0  0  0  0  0
    0.5523    2.3771   -2.1447 H   0  0  0  0  0  0  0  0  0  0  0  0
    3.1781    3.1465   -1.7443 H   0  0  0  0  0  0  0  0  0  0  0  0
    0.8241    4.9689   -2.5242 H   0  0  0  0  0  0  0  0  0  0  0  0
    2.5308    5.3294   -2.8106 H   0  0  0  0  0  0  0  0  0  0  0  0
    1.7586    3.9673   -3.6437 H   0  0  0  0  0  0  0  0  0  0  0  0
    3.3755    5.0989   -0.0840 N   0  0  0  0  0  0  0  0  0  0  0  0
    3.6317    5.9120    1.0819 C   0  0  0  0  0  0  0  0  0  0  0  0
    4.0934    5.0595   -0.8014 H   0  0  0  0  0  0  0  0  0  0  0  0
    3.2674    6.9345    0.9037 H   0  0  0  0  0  0  0  0  0  0  0  0
    3.1097    5.4829    1.9499 H   0  0  0  0  0  0  0  0  0  0  0  0
    4.7133    5.9376    1.2804 H   0  0  0  0  0  0  0  0  0  0  0  0
 23 25  2  0  0  0  0
 22 23  1  0  0  0  0
 24 26  1  0  0  0  0
 22 24  2  0  0  0  0
 25 27  1  0  0  0  0
 26 27  2  0  0  0  0
 21 22  1  0  0  0  0
 27 28  1  0  0  0  0
  1  3  1  0  0  0  0
  1  7  1  0  0  0  0
  1  2  2  0  0  0  0
 39 40  1  0  0  0  0
 40 48  1  0  0  0  0
 40 41  2  0  0  0  0
  8  9  1  0  0  0  0
  9 17  1  0  0  0  0
  9 10  2  0  0  0  0
 18 19  1  0  0  0  0
 19 38  1  0  0  0  0
 19 20  2  0  0  0  0
 39 42  1  0  0  0  0
  8 11  1  0  0  0  0
 48 49  1  0  0  0  0
 18 21  1  0  0  0  0
 38 39  1  0  0  0  0
  7  8  1  0  0  0  0
 17 18  1  0  0  0  0
 23 33  1  0  0  0  0
 24 34  1  0  0  0  0
 25 35  1  0  0  0  0
 26 36  1  0  0  0  0
  3  4  1  0  0  0  0
  3  5  1  0  0  0  0
  3  6  1  0  0  0  0
 42 45  1  0  0  0  0
 42 46  1  0  0  0  0
 42 47  1  0  0  0  0
 11 14  1  0  0  0  0
 11 15  1  0  0  0  0
 11 16  1  0  0  0  0
 49 51  1  0  0  0  0
 49 52  1  0  0  0  0
 49 53  1  0  0  0  0
 21 31  1  0  0  0  0
 21 32  1  0  0  0  0
 39 44  1  0  0  0  0
  8 13  1  0  0  0  0
 18 30  1  0  0  0  0
 48 50  1  0  0  0  0
  7 12  1  0  0  0  0
 38 43  1  0  0  0  0
 17 29  1  0  0  0  0
 28 37  1  0  0  0  0
M  END
$$$$

  -OEChem-05262214473D

 53 53  0     1  0  0  0  0  0999 V2000
   -1.9298    0.2574    3.9747 C   0  0  0  0  0  0  0  0  0  0  0  0
   -0.9825   -0.3573    3.4990 O   0  0  0  0  0  0  0  0  0  0  0  0
   -2.3617   -0.0250    5.3754 C   0  0  0  0  0  0  0  0  0  0  0  0
   -3.1214   -0.8213    5.4288 H   0  0  0  0  0  0  0  0  0  0  0  0
   -1.5305   -0.3726    6.0097 H   0  0  0  0  0  0  0  0  0  0  0  0
   -2.7997    0.8299    5.9150 H   0  0  0  0  0  0  0  0  0  0  0  0
   -2.6795    1.2298    3.3336 N   0  0  0  0  0  0  0  0  0  0  0  0
   -2.4327    1.6559    1.9812 C   0  0  2  0  0  0  0  0  0  0  0  0
   -1.0977    1.0705    1.5400 C   0  0  0  0  0  0  0  0  0  0  0  0
   -0.2256    0.7177    2.3313 O   0  0  0  0  0  0  0  0  0  0  0  0
   -2.4239    3.1726    1.8718 C   0  0  0  0  0  0  0  0  0  0  0  0
   -3.4446    1.6657    3.8454 H   0  0  0  0  0  0  0  0  0  0  0  0
   -3.2368    1.2374    1.3661 H   0  0  0  0  0  0  0  0  0  0  0  0
   -1.6248    3.6099    2.4815 H   0  0  0  0  0  0  0  0  0  0  0  0
   -2.2644    3.4949    0.8375 H   0  0  0  0  0  0  0  0  0  0  0  0
   -3.3741    3.5939    2.2175 H   0  0  0  0  0  0  0  0  0  0  0  0
   -0.9750    1.0274    0.1566 N   0  0  0  0  0  0  0  0  0  0  0  0
    0.2023    0.5266   -0.5070 C   0  0  2  0  0  0  0  0  0  0  0  0
    1.2842    1.5921   -0.3712 C   0  0  0  0  0  0  0  0  0  0  0  0
    2.2531    1.4705    0.3753 O   0  0  0  0  0  0  0  0  0  0  0  0
   -0.0553    0.2141   -1.9856 C   0  0  0  0  0  0  0  0  0  0  0  0
   -1.0042   -0.9431   -2.1808 C   0  0  0  0  0  0  0  0  0  0  0  0
   -0.5356   -2.2534   -2.0846 C   0  0  0  0  0  0  0  0  0  0  0  0
   -2.3499   -0.7023   -2.4582 C   0  0  0  0  0  0  0  0  0  0  0  0
   -1.4126   -3.3228   -2.2656 C   0  0  0  0  0  0  0  0  0  0  0  0
   -3.2269   -1.7717   -2.6393 C   0  0  0  0  0  0  0  0  0  0  0  0
   -2.7583   -3.0820   -2.5429 C   0  0  0  0  0  0  0  0  0  0  0  0
   -3.6136   -4.1257   -2.7208 O   0  0  0  0  0  0  0  0  0  0  0  0
   -1.7582    1.3241   -0.4207 H   0  0  0  0  0  0  0  0  0  0  0  0
    0.5118   -0.3711    0.0410 H   0  0  0  0  0  0  0  0  0  0  0  0
    0.8921    0.0060   -2.5011 H   0  0  0  0  0  0  0  0  0  0  0  0
   -0.4739    1.0917   -2.4958 H   0  0  0  0  0  0  0  0  0  0  0  0
    0.5111   -2.4503   -1.8687 H   0  0  0  0  0  0  0  0  0  0  0  0
   -2.7239    0.3154   -2.5349 H   0  0  0  0  0  0  0  0  0  0  0  0
   -1.0415   -4.3414   -2.1896 H   0  0  0  0  0  0  0  0  0  0  0  0
   -4.2737   -1.5776   -2.8554 H   0  0  0  0  0  0  0  0  0  0  0  0
   -4.5088   -3.7992   -2.9051 H   0  0  0  0  0  0  0  0  0  0  0  0
    1.0627    2.6685   -1.2190 N   0  0  0  0  0  0  0  0  0  0  0  0
    1.9501    3.8058   -1.3060 C   0  0  2  0  0  0  0  0  0  0  0  0
    2.2152    4.3048    0.1083 C   0  0  0  0  0  0  0  0  0  0  0  0
    1.4606    4.0782    1.0520 O   0  0  0  0  0  0  0  0  0  0  0  0
    1.3545    4.9078   -2.1684 C   0  0  0  0  0  0  0  0  0  0  0  0
    0.2352    2.6562   -1.8081 H   0  0  0  0  0  0  0  0  0  0  0  0
    2.8852    3.4444   -1.7476 H   0  0  0  0  0  0  0  0  0  0  0  0
    0.4170    5.2825   -1.7418 H   0  0  0  0  0  0  0  0  0  0  0  0
    2.0402    5.7569   -2.2566 H   0  0  0  0  0  0  0  0  0  0  0  0
    1.1369    4.5390   -3.1766 H   0  0  0  0  0  0  0  0  0  0  0  0
    3.3711    5.0692    0.1841 N   0  0  0  0  0  0  0  0  0  0  0  0
    3.8313    5.6667    1.4158 C   0  0  0  0  0  0  0  0  0  0  0  0
    3.9458    5.1894   -0.6447 H   0  0  0  0  0  0  0  0  0  0  0  0
    3.4343    6.6891    1.4987 H   0  0  0  0  0  0  0  0  0  0  0  0
    3.4797    5.0667    2.2681 H   0  0  0  0  0  0  0  0  0  0  0  0
    4.9309    5.6990    1.4190 H   0  0  0  0  0  0  0  0  0  0  0  0
 23 25  2  0  0  0  0
 22 23  1  0  0  0  0
 24 26  1  0  0  0  0
 22 24  2  0  0  0  0
 25 27  1  0  0  0  0
 26 27  2  0  0  0  0
 21 22  1  0  0  0  0
 27 28  1  0  0  0  0
  1  3  1  0  0  0  0
  1  7  1  0  0  0  0
  1  2  2  0  0  0  0
 39 40  1  0  0  0  0
 40 48  1  0  0  0  0
 40 41  2  0  0  0  0
  8  9  1  0  0  0  0
  9 17  1  0  0  0  0
  9 10  2  0  0  0  0
 18 19  1  0  0  0  0
 19 38  1  0  0  0  0
 19 20  2  0  0  0  0
 39 42  1  0  0  0  0
  8 11  1  0  0  0  0
 48 49  1  0  0  0  0
 18 21  1  0  0  0  0
 38 39  1  0  0  0  0
  7  8  1  0  0  0  0
 17 18  1  0  0  0  0
 23 33  1  0  0  0  0
 24 34  1  0  0  0  0
 25 35  1  0  0  0  0
 26 36  1  0  0  0  0
  3  4  1  0  0  0  0
  3  5  1  0  0  0  0
  3  6  1  0  0  0  0
 42 45  1  0  0  0  0
 42 46  1  0  0  0  0
 42 47  1  0  0  0  0
 11 14  1  0  0  0  0
 11 15  1  0  0  0  0
 11 16  1  0  0  0  0
 49 51  1  0  0  0  0
 49 52  1  0  0  0  0
 49 53  1  0  0  0  0
 21 31  1  0  0  0  0
 21 32  1  0  0  0  0
 39 44  1  0  0  0  0
  8 13  1  0  0  0  0
 18 30  1  0  0  0  0
 48 50  1  0  0  0  0
  7 12  1  0  0  0  0
 38 43  1  0  0  0  0
 17 29  1  0  0  0  0
 28 37  1  0  0  0  0
M  END
$$$$

  -OEChem-05262214473D

 53 53  0     1  0  0  0  0  0999 V2000
   -1.9298    0.2574    3.9747 C   0  0  0  0  0  0  0  0  0  0  0  0
   -0.9825   -0.3573    3.4990 O   0  0  0  0  0  0  0  0  0  0  0  0
   -2.3617   -0.0250    5.3754 C   0  0  0  0  0  0  0  0  0  0  0  0
   -3.1214   -0.8213    5.4288 H   0  0  0  0  0  0  0  0  0  0  0  0
   -1.5305   -0.3726    6.0097 H   0  0  0  0  0  0  0  0  0  0  0  0
   -2.7997    0.8299    5.9150 H   0  0  0  0  0  0  0  0  0  0  0  0
   -2.6795    1.2298    3.3336 N   0  0  0  0  0  0  0  0  0  0  0  0
   -2.4327    1.6559    1.9812 C   0  0  2  0  0  0  0  0  0  0  0  0
   -1.0977    1.0705    1.5400 C   0  0  0  0  0  0  0  0  0  0  0  0
   -0.2256    0.7177    2.3313 O   0  0  0  0  0  0  0  0  0  0  0  0
   -2.4239    3.1726    1.8718 C   0  0  0  0  0  0  0  0  0  0  0  0
   -3.4446    1.6657    3.8454 H   0  0  0  0  0  0  0  0  0  0  0  0
   -3.2368    1.2374    1.3661 H   0  0  0  0  0  0  0  0  0  0  0  0
   -1.6248    3.6099    2.4815 H   0  0  0  0  0  0  0  0  0  0  0  0
   -2.2644    3.4949    0.8375 H   0  0  0  0  0  0  0  0  0  0  0  0
   -3.3741    3.5939    2.2175 H   0  0  0  0  0  0  0  0  0  0  0  0
   -0.9750    1.0274    0.1566 N   0  0  0  0  0  0  0  0  0  0  0  0
    0.2023    0.5266   -0.5070 C   0  0  2  0  0  0  0  0  0  0  0  0
    1.2842    1.5921   -0.3712 C   0  0  0  0  0  0  0  0  0  0  0  0
    2.3741    1.3758    0.1543 O   0  0  0  0  0  0  0  0  0  0  0  0
   -0.0553    0.2141   -1.9856 C   0  0  0  0  0  0  0  0  0  0  0  0
   -1.0042   -0.9431   -2.1808 C   0  0  0  0  0  0  0  0  0  0  0  0
   -0.5356   -2.2534   -2.0846 C   0  0  0  0  0  0  0  0  0  0  0  0
   -2.3499   -0.7023   -2.4582 C   0  0  0  0  0  0  0  0  0  0  0  0
   -1.4126   -3.3228   -2.2656 C   0  0  0  0  0  0  0  0  0  0  0  0
   -3.2269   -1.7717   -2.6393 C   0  0  0  0  0  0  0  0  0  0  0  0
   -2.7583   -3.0820   -2.5429 C   0  0  0  0  0  0  0  0  0  0  0  0
   -3.6136   -4.1257   -2.7208 O   0  0  0  0  0  0  0  0  0  0  0  0
   -1.7582    1.3241   -0.4207 H   0  0  0  0  0  0  0  0  0  0  0  0
    0.5118   -0.3711    0.0410 H   0  0  0  0  0  0  0  0  0  0  0  0
    0.8921    0.0060   -2.5011 H   0  0  0  0  0  0  0  0  0  0  0  0
   -0.4739    1.0917   -2.4958 H   0  0  0  0  0  0  0  0  0  0  0  0
    0.5111   -2.4503   -1.8687 H   0  0  0  0  0  0  0  0  0  0  0  0
   -2.7239    0.3154   -2.5349 H   0  0  0  0  0  0  0  0  0  0  0  0
   -1.0415   -4.3414   -2.1896 H   0  0  0  0  0  0  0  0  0  0  0  0
   -4.2737   -1.5776   -2.8554 H   0  0  0  0  0  0  0  0  0  0  0  0
   -4.5088   -3.7992   -2.9051 H   0  0  0  0  0  0  0  0  0  0  0  0
    0.9046    2.7948   -0.9508 N   0  0  0  0  0  0  0  0  0  0  0  0
    1.7541    3.9636   -0.9821 C   0  0  2  0  0  0  0  0  0  0  0  0
    2.2705    4.2076    0.4297 C   0  0  0  0  0  0  0  0  0  0  0  0
    1.7028    3.7836    1.4342 O   0  0  0  0  0  0  0  0  0  0  0  0
    1.0040    5.1791   -1.5042 C   0  0  0  0  0  0  0  0  0  0  0  0
   -0.0166    2.8566   -1.3743 H   0  0  0  0  0  0  0  0  0  0  0  0
    2.5948    3.7259   -1.6431 H   0  0  0  0  0  0  0  0  0  0  0  0
    0.1580    5.4324   -0.8548 H   0  0  0  0  0  0  0  0  0  0  0  0
    1.6567    6.0568   -1.5542 H   0  0  0  0  0  0  0  0  0  0  0  0
    0.6078    4.9910   -2.5079 H   0  0  0  0  0  0  0  0  0  0  0  0
    3.4160    4.9911    0.4383 N   0  0  0  0  0  0  0  0  0  0  0  0
    4.0903    5.3730    1.6572 C   0  0  0  0  0  0  0  0  0  0  0  0
    3.8286    5.2827   -0.4429 H   0  0  0  0  0  0  0  0  0  0  0  0
    3.7088    6.3467    1.9982 H   0  0  0  0  0  0  0  0  0  0  0  0
    3.9042    4.6147    2.4320 H   0  0  0  0  0  0  0  0  0  0  0  0
    5.1716    5.4481    1.4698 H   0  0  0  0  0  0  0  0  0  0  0  0
 23 25  2  0  0  0  0
 22 23  1  0  0  0  0
 24 26  1  0  0  0  0
 22 24  2  0  0  0  0
 25 27  1  0  0  0  0
 26 27  2  0  0  0  0
 21 22  1  0  0  0  0
 27 28  1  0  0  0  0
  1  3  1  0  0  0  0
  1  7  1  0  0  0  0
  1  2  2  0  0  0  0
 39 40  1  0  0  0  0
 40 48  1  0  0  0  0
 40 41  2  0  0  0  0
  8  9  1  0  0  0  0
  9 17  1  0  0  0  0
  9 10  2  0  0  0  0
 18 19  1  0  0  0  0
 19 38  1  0  0  0  0
 19 20  2  0  0  0  0
 39 42  1  0  0  0  0
  8 11  1  0  0  0  0
 48 49  1  0  0  0  0
 18 21  1  0  0  0  0
 38 39  1  0  0  0  0
  7  8  1  0  0  0  0
 17 18  1  0  0  0  0
 23 33  1  0  0  0  0
 24 34  1  0  0  0  0
 25 35  1  0  0  0  0
 26 36  1  0  0  0  0
  3  4  1  0  0  0  0
  3  5  1  0  0  0  0
  3  6  1  0  0  0  0
 42 45  1  0  0  0  0
 42 46  1  0  0  0  0
 42 47  1  0  0  0  0
 11 14  1  0  0  0  0
 11 15  1  0  0  0  0
 11 16  1  0  0  0  0
 49 51  1  0  0  0  0
 49 52  1  0  0  0  0
 49 53  1  0  0  0  0
 21 31  1  0  0  0  0
 21 32  1  0  0  0  0
 39 44  1  0  0  0  0
  8 13  1  0  0  0  0
 18 30  1  0  0  0  0
 48 50  1  0  0  0  0
  7 12  1  0  0  0  0
 38 43  1  0  0  0  0
 17 29  1  0  0  0  0
 28 37  1  0  0  0  0
M  END
$$$$

  -OEChem-05262214473D

 53 53  0     1  0  0  0  0  0999 V2000
   -1.9298    0.2574    3.9747 C   0  0  0  0  0  0  0  0  0  0  0  0
   -0.9825   -0.3573    3.4990 O   0  0  0  0  0  0  0  0  0  0  0  0
   -2.3617   -0.0250    5.3754 C   0  0  0  0  0  0  0  0  0  0  0  0
   -3.1214   -0.8213    5.4288 H   0  0  0  0  0  0  0  0  0  0  0  0
   -1.5305   -0.3726    6.0097 H   0  0  0  0  0  0  0  0  0  0  0  0
   -2.7997    0.8299    5.9150 H   0  0  0  0  0  0  0  0  0  0  0  0
   -2.6795    1.2298    3.3336 N   0  0  0  0  0  0  0  0  0  0  0  0
   -2.4327    1.6559    1.9812 C   0  0  2  0  0  0  0  0  0  0  0  0
   -1.0977    1.0705    1.5400 C   0  0  0  0  0  0  0  0  0  0  0  0
   -0.2256    0.7177    2.3313 O   0  0  0  0  0  0  0  0  0  0  0  0
   -2.4239    3.1726    1.8718 C   0  0  0  0  0  0  0  0  0  0  0  0
   -3.4446    1.6657    3.8454 H   0  0  0  0  0  0  0  0  0  0  0  0
   -3.2368    1.2374    1.3661 H   0  0  0  0  0  0  0  0  0  0  0  0
   -1.6248    3.6099    2.4815 H   0  0  0  0  0  0  0  0  0  0  0  0
   -2.2644    3.4949    0.8375 H   0  0  0  0  0  0  0  0  0  0  0  0
   -3.3741    3.5939    2.2175 H   0  0  0  0  0  0  0  0  0  0  0  0
   -0.9750    1.0274    0.1566 N   0  0  0  0  0  0  0  0  0  0  0  0
    0.2023    0.5266   -0.5070 C   0  0  2  0  0  0  0  0  0  0  0  0
    1.2842    1.5921   -0.3712 C   0  0  0  0  0  0  0  0  0  0  0  0
    2.4532    1.3277   -0.0985 O   0  0  0  0  0  0  0  0  0  0  0  0
   -0.0553    0.2141   -1.9856 C   0  0  0  0  0  0  0  0  0  0  0  0
   -1.0042   -0.9431   -2.1808 C   0  0  0  0  0  0  0  0  0  0  0  0
   -0.5356   -2.2534   -2.0846 C   0  0  0  0  0  0  0  0  0  0  0  0
   -2.3499   -0.7023   -2.4582 C   0  0  0  0  0  0  0  0  0  0  0  0
   -1.4126   -3.3228   -2.2656 C   0  0  0  0  0  0  0  0  0  0  0  0
   -3.2269   -1.7717   -2.6393 C   0  0  0  0  0  0  0  0  0  0  0  0
   -2.7583   -3.0820   -2.5429 C   0  0  0  0  0  0  0  0  0  0  0  0
   -3.6136   -4.1257   -2.7208 O   0  0  0  0  0  0  0  0  0  0  0  0
   -1.7582    1.3241   -0.4207 H   0  0  0  0  0  0  0  0  0  0  0  0
    0.5118   -0.3711    0.0410 H   0  0  0  0  0  0  0  0  0  0  0  0
    0.8921    0.0060   -2.5011 H   0  0  0  0  0  0  0  0  0  0  0  0
   -0.4739    1.0917   -2.4958 H   0  0  0  0  0  0  0  0  0  0  0  0
    0.5111   -2.4503   -1.8687 H   0  0  0  0  0  0  0  0  0  0  0  0
   -2.7239    0.3154   -2.5349 H   0  0  0  0  0  0  0  0  0  0  0  0
   -1.0415   -4.3414   -2.1896 H   0  0  0  0  0  0  0  0  0  0  0  0
   -4.2737   -1.5776   -2.8554 H   0  0  0  0  0  0  0  0  0  0  0  0
   -4.5088   -3.7992   -2.9051 H   0  0  0  0  0  0  0  0  0  0  0  0
    0.7975    2.8639   -0.6399 N   0  0  0  0  0  0  0  0  0  0  0  0
    1.6198    4.0519   -0.6048 C   0  0  2  0  0  0  0  0  0  0  0  0
    2.3843    4.0560    0.7123 C   0  0  0  0  0  0  0  0  0  0  0  0
    2.0127    3.4343    1.7055 O   0  0  0  0  0  0  0  0  0  0  0  0
    0.7792    5.3110   -0.7494 C   0  0  0  0  0  0  0  0  0  0  0  0
   -0.1860    2.9647   -0.8730 H   0  0  0  0  0  0  0  0  0  0  0  0
    2.3267    3.9720   -1.4379 H   0  0  0  0  0  0  0  0  0  0  0  0
    0.0649    5.4083    0.0763 H   0  0  0  0  0  0  0  0  0  0  0  0
    1.4063    6.2087   -0.7513 H   0  0  0  0  0  0  0  0  0  0  0  0
    0.2072    5.2927   -1.6833 H   0  0  0  0  0  0  0  0  0  0  0  0
    3.5072    4.8701    0.6615 N   0  0  0  0  0  0  0  0  0  0  0  0
    4.3908    5.0510    1.7895 C   0  0  0  0  0  0  0  0  0  0  0  0
    3.7497    5.3331   -0.2095 H   0  0  0  0  0  0  0  0  0  0  0  0
    4.0722    5.9306    2.3682 H   0  0  0  0  0  0  0  0  0  0  0  0
    4.3544    4.1577    2.4305 H   0  0  0  0  0  0  0  0  0  0  0  0
    5.4191    5.2020    1.4292 H   0  0  0  0  0  0  0  0  0  0  0  0
 23 25  2  0  0  0  0
 22 23  1  0  0  0  0
 24 26  1  0  0  0  0
 22 24  2  0  0  0  0
 25 27  1  0  0  0  0
 26 27  2  0  0  0  0
 21 22  1  0  0  0  0
 27 28  1  0  0  0  0
  1  3  1  0  0  0  0
  1  7  1  0  0  0  0
  1  2  2  0  0  0  0
 39 40  1  0  0  0  0
 40 48  1  0  0  0  0
 40 41  2  0  0  0  0
  8  9  1  0  0  0  0
  9 17  1  0  0  0  0
  9 10  2  0  0  0  0
 18 19  1  0  0  0  0
 19 38  1  0  0  0  0
 19 20  2  0  0  0  0
 39 42  1  0  0  0  0
  8 11  1  0  0  0  0
 48 49  1  0  0  0  0
 18 21  1  0  0  0  0
 38 39  1  0  0  0  0
  7  8  1  0  0  0  0
 17 18  1  0  0  0  0
 23 33  1  0  0  0  0
 24 34  1  0  0  0  0
 25 35  1  0  0  0  0
 26 36  1  0  0  0  0
  3  4  1  0  0  0  0
  3  5  1  0  0  0  0
  3  6  1  0  0  0  0
 42 45  1  0  0  0  0
 42 46  1  0  0  0  0
 42 47  1  0  0  0  0
 11 14  1  0  0  0  0
 11 15  1  0  0  0  0
 11 16  1  0  0  0  0
 49 51  1  0  0  0  0
 49 52  1  0  0  0  0
 49 53  1  0  0  0  0
 21 31  1  0  0  0  0
 21 32  1  0  0  0  0
 39 44  1  0  0  0  0
  8 13  1  0  0  0  0
 18 30  1  0  0  0  0
 48 50  1  0  0  0  0
  7 12  1  0  0  0  0
 38 43  1  0  0  0  0
 17 29  1  0  0  0  0
 28 37  1  0  0  0  0
M  END
$$$$

  -OEChem-05262214473D

 53 53  0     1  0  0  0  0  0999 V2000
   -1.9298    0.2574    3.9747 C   0  0  0  0  0  0  0  0  0  0  0  0
   -0.9825   -0.3573    3.4990 O   0  0  0  0  0  0  0  0  0  0  0  0
   -2.3617   -0.0250    5.3754 C   0  0  0  0  0  0  0  0  0  0  0  0
   -3.1214   -0.8213    5.4288 H   0  0  0  0  0  0  0  0  0  0  0  0
   -1.5305   -0.3726    6.0097 H   0  0  0  0  0  0  0  0  0  0  0  0
   -2.7997    0.8299    5.9150 H   0  0  0  0  0  0  0  0  0  0  0  0
   -2.6795    1.2298    3.3336 N   0  0  0  0  0  0  0  0  0  0  0  0
   -2.4327    1.6559    1.9812 C   0  0  2  0  0  0  0  0  0  0  0  0
   -1.0977    1.0705    1.5400 C   0  0  0  0  0  0  0  0  0  0  0  0
   -0.2256    0.7177    2.3313 O   0  0  0  0  0  0  0  0  0  0  0  0
   -2.4239    3.1726    1.8718 C   0  0  0  0  0  0  0  0  0  0  0  0
   -3.4446    1.6657    3.8454 H   0  0  0  0  0  0  0  0  0  0  0  0
   -3.2368    1.2374    1.3661 H   0  0  0  0  0  0  0  0  0  0  0  0
   -1.6248    3.6099    2.4815 H   0  0  0  0  0  0  0  0  0  0  0  0
   -2.2644    3.4949    0.8375 H   0  0  0  0  0  0  0  0  0  0  0  0
   -3.3741    3.5939    2.2175 H   0  0  0  0  0  0  0  0  0  0  0  0
   -0.9750    1.0274    0.1566 N   0  0  0  0  0  0  0  0  0  0  0  0
    0.2023    0.5266   -0.5070 C   0  0  2  0  0  0  0  0  0  0  0  0
    1.2842    1.5921   -0.3712 C   0  0  0  0  0  0  0  0  0  0  0  0
    2.4849    1.3295   -0.3657 O   0  0  0  0  0  0  0  0  0  0  0  0
   -0.0553    0.2141   -1.9856 C   0  0  0  0  0  0  0  0  0  0  0  0
   -1.0042   -0.9431   -2.1808 C   0  0  0  0  0  0  0  0  0  0  0  0
   -0.5356   -2.2534   -2.0846 C   0  0  0  0  0  0  0  0  0  0  0  0
   -2.3499   -0.7023   -2.4582 C   0  0  0  0  0  0  0  0  0  0  0  0
   -1.4126   -3.3228   -2.2656 C   0  0  0  0  0  0  0  0  0  0  0  0
   -3.2269   -1.7717   -2.6393 C   0  0  0  0  0  0  0  0  0  0  0  0
   -2.7583   -3.0820   -2.5429 C   0  0  0  0  0  0  0  0  0  0  0  0
   -3.6136   -4.1257   -2.7208 O   0  0  0  0  0  0  0  0  0  0  0  0
   -1.7582    1.3241   -0.4207 H   0  0  0  0  0  0  0  0  0  0  0  0
    0.5118   -0.3711    0.0410 H   0  0  0  0  0  0  0  0  0  0  0  0
    0.8921    0.0060   -2.5011 H   0  0  0  0  0  0  0  0  0  0  0  0
   -0.4739    1.0917   -2.4958 H   0  0  0  0  0  0  0  0  0  0  0  0
    0.5111   -2.4503   -1.8687 H   0  0  0  0  0  0  0  0  0  0  0  0
   -2.7239    0.3154   -2.5349 H   0  0  0  0  0  0  0  0  0  0  0  0
   -1.0415   -4.3414   -2.1896 H   0  0  0  0  0  0  0  0  0  0  0  0
   -4.2737   -1.5776   -2.8554 H   0  0  0  0  0  0  0  0  0  0  0  0
   -4.5088   -3.7992   -2.9051 H   0  0  0  0  0  0  0  0  0  0  0  0
    0.7488    2.8710   -0.3076 N   0  0  0  0  0  0  0  0  0  0  0  0
    1.5562    4.0649   -0.1999 C   0  0  2  0  0  0  0  0  0  0  0  0
    2.5489    3.8603    0.9369 C   0  0  0  0  0  0  0  0  0  0  0  0
    2.3692    3.0543    1.8474 O   0  0  0  0  0  0  0  0  0  0  0  0
    0.6957    5.2947    0.0446 C   0  0  0  0  0  0  0  0  0  0  0  0
   -0.2614    2.9731   -0.3382 H   0  0  0  0  0  0  0  0  0  0  0  0
    2.0992    4.1659   -1.1460 H   0  0  0  0  0  0  0  0  0  0  0  0
    0.1439    5.2118    0.9881 H   0  0  0  0  0  0  0  0  0  0  0  0
    1.3063    6.2021    0.0975 H   0  0  0  0  0  0  0  0  0  0  0  0
   -0.0375    5.4234   -0.7589 H   0  0  0  0  0  0  0  0  0  0  0  0
    3.6384    4.7143    0.8383 N   0  0  0  0  0  0  0  0  0  0  0  0
    4.7124    4.7225    1.8039 C   0  0  0  0  0  0  0  0  0  0  0  0
    3.7146    5.3370    0.0394 H   0  0  0  0  0  0  0  0  0  0  0  0
    4.4998    5.4690    2.5833 H   0  0  0  0  0  0  0  0  0  0  0  0
    4.7995    3.7270    2.2637 H   0  0  0  0  0  0  0  0  0  0  0  0
    5.6564    4.9775    1.3000 H   0  0  0  0  0  0  0  0  0  0  0  0
 23 25  2  0  0  0  0
 22 23  1  0  0  0  0
 24 26  1  0  0  0  0
 22 24  2  0  0  0  0
 25 27  1  0  0  0  0
 26 27  2  0  0  0  0
 21 22  1  0  0  0  0
 27 28  1  0  0  0  0
  1  3  1  0  0  0  0
  1  7  1  0  0  0  0
  1  2  2  0  0  0  0
 39 40  1  0  0  0  0
 40 48  1  0  0  0  0
 40 41  2  0  0  0  0
  8  9  1  0  0  0  0
  9 17  1  0  0  0  0
  9 10  2  0  0  0  0
 18 19  1  0  0  0  0
 19 38  1  0  0  0  0
 19 20  2  0  0  0  0
 39 42  1  0  0  0  0
  8 11  1  0  0  0  0
 48 49  1  0  0  0  0
 18 21  1  0  0  0  0
 38 39  1  0  0  0  0
  7  8  1  0  0  0  0
 17 18  1  0  0  0  0
 23 33  1  0  0  0  0
 24 34  1  0  0  0  0
 25 35  1  0  0  0  0
 26 36  1  0  0  0  0
  3  4  1  0  0  0  0
  3  5  1  0  0  0  0
  3  6  1  0  0  0  0
 42 45  1  0  0  0  0
 42 46  1  0  0  0  0
 42 47  1  0  0  0  0
 11 14  1  0  0  0  0
 11 15  1  0  0  0  0
 11 16  1  0  0  0  0
 49 51  1  0  0  0  0
 49 52  1  0  0  0  0
 49 53  1  0  0  0  0
 21 31  1  0  0  0  0
 21 32  1  0  0  0  0
 39 44  1  0  0  0  0
  8 13  1  0  0  0  0
 18 30  1  0  0  0  0
 48 50  1  0  0  0  0
  7 12  1  0  0  0  0
 38 43  1  0  0  0  0
 17 29  1  0  0  0  0
 28 37  1  0  0  0  0
M  END
$$$$

  -OEChem-05262214473D

 53 53  0     1  0  0  0  0  0999 V2000
   -1.9298    0.2574    3.9747 C   0  0  0  0  0  0  0  0  0  0  0  0
   -0.9825   -0.3573    3.4990 O   0  0  0  0  0  0  0  0  0  0  0  0
   -2.3617   -0.0250    5.3754 C   0  0  0  0  0  0  0  0  0  0  0  0
   -3.1214   -0.8213    5.4288 H   0  0  0  0  0  0  0  0  0  0  0  0
   -1.5305   -0.3726    6.0097 H   0  0  0  0  0  0  0  0  0  0  0  0
   -2.7997    0.8299    5.9150 H   0  0  0  0  0  0  0  0  0  0  0  0
   -2.6795    1.2298    3.3336 N   0  0  0  0  0  0  0  0  0  0  0  0
   -2.4327    1.6559    1.9812 C   0  0  2  0  0  0  0  0  0  0  0  0
   -1.0977    1.0705    1.5400 C   0  0  0  0  0  0  0  0  0  0  0  0
   -0.2256    0.7177    2.3313 O   0  0  0  0  0  0  0  0  0  0  0  0
   -2.4239    3.1726    1.8718 C   0  0  0  0  0  0  0  0  0  0  0  0
   -3.4446    1.6657    3.8454 H   0  0  0  0  0  0  0  0  0  0  0  0
   -3.2368    1.2374    1.3661 H   0  0  0  0  0  0  0  0  0  0  0  0
   -1.6248    3.6099    2.4815 H   0  0  0  0  0  0  0  0  0  0  0  0
   -2.2644    3.4949    0.8375 H   0  0  0  0  0  0  0  0  0  0  0  0
   -3.3741    3.5939    2.2175 H   0  0  0  0  0  0  0  0  0  0  0  0
   -0.9750    1.0274    0.1566 N   0  0  0  0  0  0  0  0  0  0  0  0
    0.2023    0.5266   -0.5070 C   0  0  2  0  0  0  0  0  0  0  0  0
    1.2842    1.5921   -0.3712 C   0  0  0  0  0  0  0  0  0  0  0  0
    2.4673    1.3810   -0.6293 O   0  0  0  0  0  0  0  0  0  0  0  0
   -0.0553    0.2141   -1.9856 C   0  0  0  0  0  0  0  0  0  0  0  0
   -1.0042   -0.9431   -2.1808 C   0  0  0  0  0  0  0  0  0  0  0  0
   -0.5356   -2.2534   -2.0846 C   0  0  0  0  0  0  0  0  0  0  0  0
   -2.3499   -0.7023   -2.4582 C   0  0  0  0  0  0  0  0  0  0  0  0
   -1.4126   -3.3228   -2.2656 C   0  0  0  0  0  0  0  0  0  0  0  0
   -3.2269   -1.7717   -2.6393 C   0  0  0  0  0  0  0  0  0  0  0  0
   -2.7583   -3.0820   -2.5429 C   0  0  0  0  0  0  0  0  0  0  0  0
   -3.6136   -4.1257   -2.7208 O   0  0  0  0  0  0  0  0  0  0  0  0
   -1.7582    1.3241   -0.4207 H   0  0  0  0  0  0  0  0  0  0  0  0
    0.5118   -0.3711    0.0410 H   0  0  0  0  0  0  0  0  0  0  0  0
    0.8921    0.0060   -2.5011 H   0  0  0  0  0  0  0  0  0  0  0  0
   -0.4739    1.0917   -2.4958 H   0  0  0  0  0  0  0  0  0  0  0  0
    0.5111   -2.4503   -1.8687 H   0  0  0  0  0  0  0  0  0  0  0  0
   -2.7239    0.3154   -2.5349 H   0  0  0  0  0  0  0  0  0  0  0  0
   -1.0415   -4.3414   -2.1896 H   0  0  0  0  0  0  0  0  0  0  0  0
   -4.2737   -1.5776   -2.8554 H   0  0  0  0  0  0  0  0  0  0  0  0
   -4.5088   -3.7992   -2.9051 H   0  0  0  0  0  0  0  0  0  0  0  0
    0.7616    2.8158    0.0236 N   0  0  0  0  0  0  0  0  0  0  0  0
    1.5677    4.0016    0.2051 C   0  0  2  0  0  0  0  0  0  0  0  0
    2.7529    3.6338    1.0880 C   0  0  0  0  0  0  0  0  0  0  0  0
    2.7479    2.6693    1.8501 O   0  0  0  0  0  0  0  0  0  0  0  0
    0.7589    5.1311    0.8237 C   0  0  0  0  0  0  0  0  0  0  0  0
   -0.2377    2.8813    0.1935 H   0  0  0  0  0  0  0  0  0  0  0  0
    1.9277    4.2942   -0.7872 H   0  0  0  0  0  0  0  0  0  0  0  0
    0.3898    4.8563    1.8185 H   0  0  0  0  0  0  0  0  0  0  0  0
    1.3633    6.0375    0.9342 H   0  0  0  0  0  0  0  0  0  0  0  0
   -0.1097    5.3741    0.2023 H   0  0  0  0  0  0  0  0  0  0  0  0
    3.8008    4.5344    0.9567 N   0  0  0  0  0  0  0  0  0  0  0  0
    5.0333    4.4100    1.6992 C   0  0  0  0  0  0  0  0  0  0  0  0
    3.7256    5.2943    0.2869 H   0  0  0  0  0  0  0  0  0  0  0  0
    4.9623    4.9935    2.6290 H   0  0  0  0  0  0  0  0  0  0  0  0
    5.2092    3.3519    1.9430 H   0  0  0  0  0  0  0  0  0  0  0  0
    5.8675    4.7897    1.0910 H   0  0  0  0  0  0  0  0  0  0  0  0
 23 25  2  0  0  0  0
 22 23  1  0  0  0  0
 24 26  1  0  0  0  0
 22 24  2  0  0  0  0
 25 27  1  0  0  0  0
 26 27  2  0  0  0  0
 21 22  1  0  0  0  0
 27 28  1  0  0  0  0
  1  3  1  0  0  0  0
  1  7  1  0  0  0  0
  1  2  2  0  0  0  0
 39 40  1  0  0  0  0
 40 48  1  0  0  0  0
 40 41  2  0  0  0  0
  8  9  1  0  0  0  0
  9 17  1  0  0  0  0
  9 10  2  0  0  0  0
 18 19  1  0  0  0  0
 19 38  1  0  0  0  0
 19 20  2  0  0  0  0
 39 42  1  0  0  0  0
  8 11  1  0  0  0  0
 48 49  1  0  0  0  0
 18 21  1  0  0  0  0
 38 39  1  0  0  0  0
  7  8  1  0  0  0  0
 17 18  1  0  0  0  0
 23 33  1  0  0  0  0
 24 34  1  0  0  0  0
 25 35  1  0  0  0  0
 26 36  1  0  0  0  0
  3  4  1  0  0  0  0
  3  5  1  0  0  0  0
  3  6  1  0  0  0  0
 42 45  1  0  0  0  0
 42 46  1  0  0  0  0
 42 47  1  0  0  0  0
 11 14  1  0  0  0  0
 11 15  1  0  0  0  0
 11 16  1  0  0  0  0
 49 51  1  0  0  0  0
 49 52  1  0  0  0  0
 49 53  1  0  0  0  0
 21 31  1  0  0  0  0
 21 32  1  0  0  0  0
 39 44  1  0  0  0  0
  8 13  1  0  0  0  0
 18 30  1  0  0  0  0
 48 50  1  0  0  0  0
  7 12  1  0  0  0  0
 38 43  1  0  0  0  0
 17 29  1  0  0  0  0
 28 37  1  0  0  0  0
M  END
$$$$

  -OEChem-05262214473D

 53 53  0     1  0  0  0  0  0999 V2000
   -1.9298    0.2574    3.9747 C   0  0  0  0  0  0  0  0  0  0  0  0
   -0.9825   -0.3573    3.4990 O   0  0  0  0  0  0  0  0  0  0  0  0
   -2.3617   -0.0250    5.3754 C   0  0  0  0  0  0  0  0  0  0  0  0
   -3.1214   -0.8213    5.4288 H   0  0  0  0  0  0  0  0  0  0  0  0
   -1.5305   -0.3726    6.0097 H   0  0  0  0  0  0  0  0  0  0  0  0
   -2.7997    0.8299    5.9150 H   0  0  0  0  0  0  0  0  0  0  0  0
   -2.6795    1.2298    3.3336 N   0  0  0  0  0  0  0  0  0  0  0  0
   -2.4327    1.6559    1.9812 C   0  0  2  0  0  0  0  0  0  0  0  0
   -1.0977    1.0705    1.5400 C   0  0  0  0  0  0  0  0  0  0  0  0
   -0.2256    0.7177    2.3313 O   0  0  0  0  0  0  0  0  0  0  0  0
   -2.4239    3.1726    1.8718 C   0  0  0  0  0  0  0  0  0  0  0  0
   -3.4446    1.6657    3.8454 H   0  0  0  0  0  0  0  0  0  0  0  0
   -3.2368    1.2374    1.3661 H   0  0  0  0  0  0  0  0  0  0  0  0
   -1.6248    3.6099    2.4815 H   0  0  0  0  0  0  0  0  0  0  0  0
   -2.2644    3.4949    0.8375 H   0  0  0  0  0  0  0  0  0  0  0  0
   -3.3741    3.5939    2.2175 H   0  0  0  0  0  0  0  0  0  0  0  0
   -0.9750    1.0274    0.1566 N   0  0  0  0  0  0  0  0  0  0  0  0
    0.2023    0.5266   -0.5070 C   0  0  2  0  0  0  0  0  0  0  0  0
    1.2842    1.5921   -0.3712 C   0  0  0  0  0  0  0  0  0  0  0  0
    2.4013    1.4789   -0.8713 O   0  0  0  0  0  0  0  0  0  0  0  0
   -0.0553    0.2141   -1.9856 C   0  0  0  0  0  0  0  0  0  0  0  0
   -1.0042   -0.9431   -2.1808 C   0  0  0  0  0  0  0  0  0  0  0  0
   -0.5356   -2.2534   -2.0846 C   0  0  0  0  0  0  0  0  0  0  0  0
   -2.3499   -0.7023   -2.4582 C   0  0  0  0  0  0  0  0  0  0  0  0
   -1.4126   -3.3228   -2.2656 C   0  0  0  0  0  0  0  0  0  0  0  0
   -3.2269   -1.7717   -2.6393 C   0  0  0  0  0  0  0  0  0  0  0  0
   -2.7583   -3.0820   -2.5429 C   0  0  0  0  0  0  0  0  0  0  0  0
   -3.6136   -4.1257   -2.7208 O   0  0  0  0  0  0  0  0  0  0  0  0
   -1.7582    1.3241   -0.4207 H   0  0  0  0  0  0  0  0  0  0  0  0
    0.5118   -0.3711    0.0410 H   0  0  0  0  0  0  0  0  0  0  0  0
    0.8921    0.0060   -2.5011 H   0  0  0  0  0  0  0  0  0  0  0  0
   -0.4739    1.0917   -2.4958 H   0  0  0  0  0  0  0  0  0  0  0  0
    0.5111   -2.4503   -1.8687 H   0  0  0  0  0  0  0  0  0  0  0  0
   -2.7239    0.3154   -2.5349 H   0  0  0  0  0  0  0  0  0  0  0  0
   -1.0415   -4.3414   -2.1896 H   0  0  0  0  0  0  0  0  0  0  0  0
   -4.2737   -1.5776   -2.8554 H   0  0  0  0  0  0  0  0  0  0  0  0
   -4.5088   -3.7992   -2.9051 H   0  0  0  0  0  0  0  0  0  0  0  0
    0.8352    2.7019    0.3310 N   0  0  0  0  0  0  0  0  0  0  0  0
    1.6536    3.8663    0.5826 C   0  0  2  0  0  0  0  0  0  0  0  0
    2.9826    3.3920    1.1555 C   0  0  0  0  0  0  0  0  0  0  0  0
    3.1231    2.3058    1.7136 O   0  0  0  0  0  0  0  0  0  0  0  0
    0.9647    4.8315    1.5347 C   0  0  0  0  0  0  0  0  0  0  0  0
   -0.1166    2.6955    0.6859 H   0  0  0  0  0  0  0  0  0  0  0  0
    1.8240    4.3484   -0.3862 H   0  0  0  0  0  0  0  0  0  0  0  0
    0.7856    4.3661    2.5108 H   0  0  0  0  0  0  0  0  0  0  0  0
    1.5735    5.7262    1.7019 H   0  0  0  0  0  0  0  0  0  0  0  0
   -0.0045    5.1484    1.1347 H   0  0  0  0  0  0  0  0  0  0  0  0
    3.9831    4.3426    1.0087 N   0  0  0  0  0  0  0  0  0  0  0  0
    5.3315    4.1348    1.4827 C   0  0  0  0  0  0  0  0  0  0  0  0
    3.7819    5.2078    0.5162 H   0  0  0  0  0  0  0  0  0  0  0  0
    5.4283    4.5365    2.5022 H   0  0  0  0  0  0  0  0  0  0  0  0
    5.5556    3.0579    1.4902 H   0  0  0  0  0  0  0  0  0  0  0  0
    6.0380    4.6517    0.8165 H   0  0  0  0  0  0  0  0  0  0  0  0
 23 25  2  0  0  0  0
 22 23  1  0  0  0  0
 24 26  1  0  0  0  0
 22 24  2  0  0  0  0
 25 27  1  0  0  0  0
 26 27  2  0  0  0  0
 21 22  1  0  0  0  0
 27 28  1  0  0  0  0
  1  3  1  0  0  0  0
  1  7  1  0  0  0  0
  1  2  2  0  0  0  0
 39 40  1  0  0  0  0
 40 48  1  0  0  0  0
 40 41  2  0  0  0  0
  8  9  1  0  0  0  0
  9 17  1  0  0  0  0
  9 10  2  0  0  0  0
 18 19  1  0  0  0  0
 19 38  1  0  0  0  0
 19 20  2  0  0  0  0
 39 42  1  0  0  0  0
  8 11  1  0  0  0  0
 48 49  1  0  0  0  0
 18 21  1  0  0  0  0
 38 39  1  0  0  0  0
  7  8  1  0  0  0  0
 17 18  1  0  0  0  0
 23 33  1  0  0  0  0
 24 34  1  0  0  0  0
 25 35  1  0  0  0  0
 26 36  1  0  0  0  0
  3  4  1  0  0  0  0
  3  5  1  0  0  0  0
  3  6  1  0  0  0  0
 42 45  1  0  0  0  0
 42 46  1  0  0  0  0
 42 47  1  0  0  0  0
 11 14  1  0  0  0  0
 11 15  1  0  0  0  0
 11 16  1  0  0  0  0
 49 51  1  0  0  0  0
 49 52  1  0  0  0  0
 49 53  1  0  0  0  0
 21 31  1  0  0  0  0
 21 32  1  0  0  0  0
 39 44  1  0  0  0  0
  8 13  1  0  0  0  0
 18 30  1  0  0  0  0
 48 50  1  0  0  0  0
  7 12  1  0  0  0  0
 38 43  1  0  0  0  0
 17 29  1  0  0  0  0
 28 37  1  0  0  0  0
M  END
$$$$

  -OEChem-05262214473D

 53 53  0     1  0  0  0  0  0999 V2000
   -1.9298    0.2574    3.9747 C   0  0  0  0  0  0  0  0  0  0  0  0
   -0.9825   -0.3573    3.4990 O   0  0  0  0  0  0  0  0  0  0  0  0
   -2.3617   -0.0250    5.3754 C   0  0  0  0  0  0  0  0  0  0  0  0
   -3.1214   -0.8213    5.4288 H   0  0  0  0  0  0  0  0  0  0  0  0
   -1.5305   -0.3726    6.0097 H   0  0  0  0  0  0  0  0  0  0  0  0
   -2.7997    0.8299    5.9150 H   0  0  0  0  0  0  0  0  0  0  0  0
   -2.6795    1.2298    3.3336 N   0  0  0  0  0  0  0  0  0  0  0  0
   -2.4327    1.6559    1.9812 C   0  0  2  0  0  0  0  0  0  0  0  0
   -1.0977    1.0705    1.5400 C   0  0  0  0  0  0  0  0  0  0  0  0
   -0.2256    0.7177    2.3313 O   0  0  0  0  0  0  0  0  0  0  0  0
   -2.4239    3.1726    1.8718 C   0  0  0  0  0  0  0  0  0  0  0  0
   -3.4446    1.6657    3.8454 H   0  0  0  0  0  0  0  0  0  0  0  0
   -3.2368    1.2374    1.3661 H   0  0  0  0  0  0  0  0  0  0  0  0
   -1.6248    3.6099    2.4815 H   0  0  0  0  0  0  0  0  0  0  0  0
   -2.2644    3.4949    0.8375 H   0  0  0  0  0  0  0  0  0  0  0  0
   -3.3741    3.5939    2.2175 H   0  0  0  0  0  0  0  0  0  0  0  0
   -0.9750    1.0274    0.1566 N   0  0  0  0  0  0  0  0  0  0  0  0
    0.2023    0.5266   -0.5070 C   0  0  2  0  0  0  0  0  0  0  0  0
    1.2842    1.5921   -0.3712 C   0  0  0  0  0  0  0  0  0  0  0  0
    2.2916    1.6163   -1.0751 O   0  0  0  0  0  0  0  0  0  0  0  0
   -0.0553    0.2141   -1.9856 C   0  0  0  0  0  0  0  0  0  0  0  0
   -1.0042   -0.9431   -2.1808 C   0  0  0  0  0  0  0  0  0  0  0  0
   -0.5356   -2.2534   -2.0846 C   0  0  0  0  0  0  0  0  0  0  0  0
   -2.3499   -0.7023   -2.4582 C   0  0  0  0  0  0  0  0  0  0  0  0
   -1.4126   -3.3228   -2.2656 C   0  0  0  0  0  0  0  0  0  0  0  0
   -3.2269   -1.7717   -2.6393 C   0  0  0  0  0  0  0  0  0  0  0  0
   -2.7583   -3.0820   -2.5429 C   0  0  0  0  0  0  0  0  0  0  0  0
   -3.6136   -4.1257   -2.7208 O   0  0  0  0  0  0  0  0  0  0  0  0
   -1.7582    1.3241   -0.4207 H   0  0  0  0  0  0  0  0  0  0  0  0
    0.5118   -0.3711    0.0410 H   0  0  0  0  0  0  0  0  0  0  0  0
    0.8921    0.0060   -2.5011 H   0  0  0  0  0  0  0  0  0  0  0  0
   -0.4739    1.0917   -2.4958 H   0  0  0  0  0  0  0  0  0  0  0  0
    0.5111   -2.4503   -1.8687 H   0  0  0  0  0  0  0  0  0  0  0  0
   -2.7239    0.3154   -2.5349 H   0  0  0  0  0  0  0  0  0  0  0  0
   -1.0415   -4.3414   -2.1896 H   0  0  0  0  0  0  0  0  0  0  0  0
   -4.2737   -1.5776   -2.8554 H   0  0  0  0  0  0  0  0  0  0  0  0
   -4.5088   -3.7992   -2.9051 H   0  0  0  0  0  0  0  0  0  0  0  0
    0.9644    2.5371    0.5937 N   0  0  0  0  0  0  0  0  0  0  0  0
    1.8079    3.6682    0.9069 C   0  0  2  0  0  0  0  0  0  0  0  0
    3.2223    3.1513    1.1348 C   0  0  0  0  0  0  0  0  0  0  0  0
    3.4692    1.9883    1.4470 O   0  0  0  0  0  0  0  0  0  0  0  0
    1.2990    4.4163    2.1292 C   0  0  0  0  0  0  0  0  0  0  0  0
    0.0938    2.4284    1.1056 H   0  0  0  0  0  0  0  0  0  0  0  0
    1.7952    4.3246    0.0300 H   0  0  0  0  0  0  0  0  0  0  0  0
    1.3045    3.7746    3.0179 H   0  0  0  0  0  0  0  0  0  0  0  0
    1.9226    5.2893    2.3482 H   0  0  0  0  0  0  0  0  0  0  0  0
    0.2711    4.7615    1.9749 H   0  0  0  0  0  0  0  0  0  0  0  0
    4.1731    4.1519    0.9907 N   0  0  0  0  0  0  0  0  0  0  0  0
    5.5868    3.9156    1.1691 C   0  0  0  0  0  0  0  0  0  0  0  0
    3.8798    5.0835    0.7115 H   0  0  0  0  0  0  0  0  0  0  0  0
    5.8660    4.1291    2.2114 H   0  0  0  0  0  0  0  0  0  0  0  0
    5.8150    2.8651    0.9362 H   0  0  0  0  0  0  0  0  0  0  0  0
    6.1561    4.5727    0.4952 H   0  0  0  0  0  0  0  0  0  0  0  0
 23 25  2  0  0  0  0
 22 23  1  0  0  0  0
 24 26  1  0  0  0  0
 22 24  2  0  0  0  0
 25 27  1  0  0  0  0
 26 27  2  0  0  0  0
 21 22  1  0  0  0  0
 27 28  1  0  0  0  0
  1  3  1  0  0  0  0
  1  7  1  0  0  0  0
  1  2  2  0  0  0  0
 39 40  1  0  0  0  0
 40 48  1  0  0  0  0
 40 41  2  0  0  0  0
  8  9  1  0  0  0  0
  9 17  1  0  0  0  0
  9 10  2  0  0  0  0
 18 19  1  0  0  0  0
 19 38  1  0  0  0  0
 19 20  2  0  0  0  0
 39 42  1  0  0  0  0
  8 11  1  0  0  0  0
 48 49  1  0  0  0  0
 18 21  1  0  0  0  0
 38 39  1  0  0  0  0
  7  8  1  0  0  0  0
 17 18  1  0  0  0  0
 23 33  1  0  0  0  0
 24 34  1  0  0  0  0
 25 35  1  0  0  0  0
 26 36  1  0  0  0  0
  3  4  1  0  0  0  0
  3  5  1  0  0  0  0
  3  6  1  0  0  0  0
 42 45  1  0  0  0  0
 42 46  1  0  0  0  0
 42 47  1  0  0  0  0
 11 14  1  0  0  0  0
 11 15  1  0  0  0  0
 11 16  1  0  0  0  0
 49 51  1  0  0  0  0
 49 52  1  0  0  0  0
 49 53  1  0  0  0  0
 21 31  1  0  0  0  0
 21 32  1  0  0  0  0
 39 44  1  0  0  0  0
  8 13  1  0  0  0  0
 18 30  1  0  0  0  0
 48 50  1  0  0  0  0
  7 12  1  0  0  0  0
 38 43  1  0  0  0  0
 17 29  1  0  0  0  0
 28 37  1  0  0  0  0
M  END
$$$$

  -OEChem-05262214473D

 53 53  0     1  0  0  0  0  0999 V2000
   -1.9298    0.2574    3.9747 C   0  0  0  0  0  0  0  0  0  0  0  0
   -0.9825   -0.3573    3.4990 O   0  0  0  0  0  0  0  0  0  0  0  0
   -2.3617   -0.0250    5.3754 C   0  0  0  0  0  0  0  0  0  0  0  0
   -3.1214   -0.8213    5.4288 H   0  0  0  0  0  0  0  0  0  0  0  0
   -1.5305   -0.3726    6.0097 H   0  0  0  0  0  0  0  0  0  0  0  0
   -2.7997    0.8299    5.9150 H   0  0  0  0  0  0  0  0  0  0  0  0
   -2.6795    1.2298    3.3336 N   0  0  0  0  0  0  0  0  0  0  0  0
   -2.4327    1.6559    1.9812 C   0  0  2  0  0  0  0  0  0  0  0  0
   -1.0977    1.0705    1.5400 C   0  0  0  0  0  0  0  0  0  0  0  0
   -0.2256    0.7177    2.3313 O   0  0  0  0  0  0  0  0  0  0  0  0
   -2.4239    3.1726    1.8718 C   0  0  0  0  0  0  0  0  0  0  0  0
   -3.4446    1.6657    3.8454 H   0  0  0  0  0  0  0  0  0  0  0  0
   -3.2368    1.2374    1.3661 H   0  0  0  0  0  0  0  0  0  0  0  0
   -1.6248    3.6099    2.4815 H   0  0  0  0  0  0  0  0  0  0  0  0
   -2.2644    3.4949    0.8375 H   0  0  0  0  0  0  0  0  0  0  0  0
   -3.3741    3.5939    2.2175 H   0  0  0  0  0  0  0  0  0  0  0  0
   -0.9750    1.0274    0.1566 N   0  0  0  0  0  0  0  0  0  0  0  0
    0.2023    0.5266   -0.5070 C   0  0  2  0  0  0  0  0  0  0  0  0
    1.2842    1.5921   -0.3712 C   0  0  0  0  0  0  0  0  0  0  0  0
    2.1455    1.7839   -1.2268 O   0  0  0  0  0  0  0  0  0  0  0  0
   -0.0553    0.2141   -1.9856 C   0  0  0  0  0  0  0  0  0  0  0  0
   -1.0042   -0.9431   -2.1808 C   0  0  0  0  0  0  0  0  0  0  0  0
   -0.5356   -2.2534   -2.0846 C   0  0  0  0  0  0  0  0  0  0  0  0
   -2.3499   -0.7023   -2.4582 C   0  0  0  0  0  0  0  0  0  0  0  0
   -1.4126   -3.3228   -2.2656 C   0  0  0  0  0  0  0  0  0  0  0  0
   -3.2269   -1.7717   -2.6393 C   0  0  0  0  0  0  0  0  0  0  0  0
   -2.7583   -3.0820   -2.5429 C   0  0  0  0  0  0  0  0  0  0  0  0
   -3.6136   -4.1257   -2.7208 O   0  0  0  0  0  0  0  0  0  0  0  0
   -1.7582    1.3241   -0.4207 H   0  0  0  0  0  0  0  0  0  0  0  0
    0.5118   -0.3711    0.0410 H   0  0  0  0  0  0  0  0  0  0  0  0
    0.8921    0.0060   -2.5011 H   0  0  0  0  0  0  0  0  0  0  0  0
   -0.4739    1.0917   -2.4958 H   0  0  0  0  0  0  0  0  0  0  0  0
    0.5111   -2.4503   -1.8687 H   0  0  0  0  0  0  0  0  0  0  0  0
   -2.7239    0.3154   -2.5349 H   0  0  0  0  0  0  0  0  0  0  0  0
   -1.0415   -4.3414   -2.1896 H   0  0  0  0  0  0  0  0  0  0  0  0
   -4.2737   -1.5776   -2.8554 H   0  0  0  0  0  0  0  0  0  0  0  0
   -4.5088   -3.7992   -2.9051 H   0  0  0  0  0  0  0  0  0  0  0  0
    1.1407    2.3327    0.7938 N   0  0  0  0  0  0  0  0  0  0  0  0
    2.0202    3.4209    1.1558 C   0  0  2  0  0  0  0  0  0  0  0  0
    3.4555    2.9282    1.0272 C   0  0  0  0  0  0  0  0  0  0  0  0
    3.7626    1.7386    1.0686 O   0  0  0  0  0  0  0  0  0  0  0  0
    1.7391    3.9137    2.5668 C   0  0  0  0  0  0  0  0  0  0  0  0
    0.3791    2.0981    1.4238 H   0  0  0  0  0  0  0  0  0  0  0  0
    1.8432    4.2246    0.4327 H   0  0  0  0  0  0  0  0  0  0  0  0
    1.9110    3.1221    3.3052 H   0  0  0  0  0  0  0  0  0  0  0  0
    2.3868    4.7567    2.8290 H   0  0  0  0  0  0  0  0  0  0  0  0
    0.6981    4.2399    2.6655 H   0  0  0  0  0  0  0  0  0  0  0  0
    4.3578    3.9755    0.9039 N   0  0  0  0  0  0  0  0  0  0  0  0
    5.7816    3.7674    0.7797 C   0  0  0  0  0  0  0  0  0  0  0  0
    4.0126    4.9298    0.8597 H   0  0  0  0  0  0  0  0  0  0  0  0
    6.2456    3.7991    1.7765 H   0  0  0  0  0  0  0  0  0  0  0  0
    5.9699    2.7866    0.3187 H   0  0  0  0  0  0  0  0  0  0  0  0
    6.2139    4.5581    0.1489 H   0  0  0  0  0  0  0  0  0  0  0  0
 23 25  2  0  0  0  0
 22 23  1  0  0  0  0
 24 26  1  0  0  0  0
 22 24  2  0  0  0  0
 25 27  1  0  0  0  0
 26 27  2  0  0  0  0
 21 22  1  0  0  0  0
 27 28  1  0  0  0  0
  1  3  1  0  0  0  0
  1  7  1  0  0  0  0
  1  2  2  0  0  0  0
 39 40  1  0  0  0  0
 40 48  1  0  0  0  0
 40 41  2  0  0  0  0
  8  9  1  0  0  0  0
  9 17  1  0  0  0  0
  9 10  2  0  0  0  0
 18 19  1  0  0  0  0
 19 38  1  0  0  0  0
 19 20  2  0  0  0  0
 39 42  1  0  0  0  0
  8 11  1  0  0  0  0
 48 49  1  0  0  0  0
 18 21  1  0  0  0  0
 38 39  1  0  0  0  0
  7  8  1  0  0  0  0
 17 18  1  0  0  0  0
 23 33  1  0  0  0  0
 24 34  1  0  0  0  0
 25 35  1  0  0  0  0
 26 36  1  0  0  0  0
  3  4  1  0  0  0  0
  3  5  1  0  0  0  0
  3  6  1  0  0  0  0
 42 45  1  0  0  0  0
 42 46  1  0  0  0  0
 42 47  1  0  0  0  0
 11 14  1  0  0  0  0
 11 15  1  0  0  0  0
 11 16  1  0  0  0  0
 49 51  1  0  0  0  0
 49 52  1  0  0  0  0
 49 53  1  0  0  0  0
 21 31  1  0  0  0  0
 21 32  1  0  0  0  0
 39 44  1  0  0  0  0
  8 13  1  0  0  0  0
 18 30  1  0  0  0  0
 48 50  1  0  0  0  0
  7 12  1  0  0  0  0
 38 43  1  0  0  0  0
 17 29  1  0  0  0  0
 28 37  1  0  0  0  0
M  END
$$$$

  -OEChem-05262214473D

 53 53  0     1  0  0  0  0  0999 V2000
   -1.9298    0.2574    3.9747 C   0  0  0  0  0  0  0  0  0  0  0  0
   -0.9825   -0.3573    3.4990 O   0  0  0  0  0  0  0  0  0  0  0  0
   -2.3617   -0.0250    5.3754 C   0  0  0  0  0  0  0  0  0  0  0  0
   -3.1214   -0.8213    5.4288 H   0  0  0  0  0  0  0  0  0  0  0  0
   -1.5305   -0.3726    6.0097 H   0  0  0  0  0  0  0  0  0  0  0  0
   -2.7997    0.8299    5.9150 H   0  0  0  0  0  0  0  0  0  0  0  0
   -2.6795    1.2298    3.3336 N   0  0  0  0  0  0  0  0  0  0  0  0
   -2.4327    1.6559    1.9812 C   0  0  2  0  0  0  0  0  0  0  0  0
   -1.0977    1.0705    1.5400 C   0  0  0  0  0  0  0  0  0  0  0  0
   -0.2256    0.7177    2.3313 O   0  0  0  0  0  0  0  0  0  0  0  0
   -2.4239    3.1726    1.8718 C   0  0  0  0  0  0  0  0  0  0  0  0
   -3.4446    1.6657    3.8454 H   0  0  0  0  0  0  0  0  0  0  0  0
   -3.2368    1.2374    1.3661 H   0  0  0  0  0  0  0  0  0  0  0  0
   -1.6248    3.6099    2.4815 H   0  0  0  0  0  0  0  0  0  0  0  0
   -2.2644    3.4949    0.8375 H   0  0  0  0  0  0  0  0  0  0  0  0
   -3.3741    3.5939    2.2175 H   0  0  0  0  0  0  0  0  0  0  0  0
   -0.9750    1.0274    0.1566 N   0  0  0  0  0  0  0  0  0  0  0  0
    0.2023    0.5266   -0.5070 C   0  0  2  0  0  0  0  0  0  0  0  0
    1.2842    1.5921   -0.3712 C   0  0  0  0  0  0  0  0  0  0  0  0
    1.9732    1.9703   -1.3162 O   0  0  0  0  0  0  0  0  0  0  0  0
   -0.0553    0.2141   -1.9856 C   0  0  0  0  0  0  0  0  0  0  0  0
   -1.0042   -0.9431   -2.1808 C   0  0  0  0  0  0  0  0  0  0  0  0
   -0.5356   -2.2534   -2.0846 C   0  0  0  0  0  0  0  0  0  0  0  0
   -2.3499   -0.7023   -2.4582 C   0  0  0  0  0  0  0  0  0  0  0  0
   -1.4126   -3.3228   -2.2656 C   0  0  0  0  0  0  0  0  0  0  0  0
   -3.2269   -1.7717   -2.6393 C   0  0  0  0  0  0  0  0  0  0  0  0
   -2.7583   -3.0820   -2.5429 C   0  0  0  0  0  0  0  0  0  0  0  0
   -3.6136   -4.1257   -2.7208 O   0  0  0  0  0  0  0  0  0  0  0  0
   -1.7582    1.3241   -0.4207 H   0  0  0  0  0  0  0  0  0  0  0  0
    0.5118   -0.3711    0.0410 H   0  0  0  0  0  0  0  0  0  0  0  0
    0.8921    0.0060   -2.5011 H   0  0  0  0  0  0  0  0  0  0  0  0
   -0.4739    1.0917   -2.4958 H   0  0  0  0  0  0  0  0  0  0  0  0
    0.5111   -2.4503   -1.8687 H   0  0  0  0  0  0  0  0  0  0  0  0
   -2.7239    0.3154   -2.5349 H   0  0  0  0  0  0  0  0  0  0  0  0
   -1.0415   -4.3414   -2.1896 H   0  0  0  0  0  0  0  0  0  0  0  0
   -4.2737   -1.5776   -2.8554 H   0  0  0  0  0  0  0  0  0  0  0  0
   -4.5088   -3.7992   -2.9051 H   0  0  0  0  0  0  0  0  0  0  0  0
    1.3518    2.1026    0.9177 N   0  0  0  0  0  0  0  0  0  0  0  0
    2.2760    3.1412    1.3124 C   0  0  2  0  0  0  0  0  0  0  0  0
    3.6665    2.7378    0.8400 C   0  0  0  0  0  0  0  0  0  0  0  0
    3.9834    1.5737    0.6042 O   0  0  0  0  0  0  0  0  0  0  0  0
    2.2549    3.3580    2.8175 C   0  0  0  0  0  0  0  0  0  0  0  0
    0.7199    1.7273    1.6189 H   0  0  0  0  0  0  0  0  0  0  0  0
    1.9647    4.0551    0.7948 H   0  0  0  0  0  0  0  0  0  0  0  0
    2.5639    2.4530    3.3532 H   0  0  0  0  0  0  0  0  0  0  0  0
    2.9345    4.1646    3.1118 H   0  0  0  0  0  0  0  0  0  0  0  0
    1.2476    3.6190    3.1595 H   0  0  0  0  0  0  0  0  0  0  0  0
    4.5245    3.8253    0.7542 N   0  0  0  0  0  0  0  0  0  0  0  0
    5.9028    3.7003    0.3411 C   0  0  0  0  0  0  0  0  0  0  0  0
    4.1712    4.7572    0.9505 H   0  0  0  0  0  0  0  0  0  0  0  0
    6.5413    3.5689    1.2272 H   0  0  0  0  0  0  0  0  0  0  0  0
    6.0095    2.8277   -0.3202 H   0  0  0  0  0  0  0  0  0  0  0  0
    6.2075    4.6089   -0.1987 H   0  0  0  0  0  0  0  0  0  0  0  0
 23 25  2  0  0  0  0
 22 23  1  0  0  0  0
 24 26  1  0  0  0  0
 22 24  2  0  0  0  0
 25 27  1  0  0  0  0
 26 27  2  0  0  0  0
 21 22  1  0  0  0  0
 27 28  1  0  0  0  0
  1  3  1  0  0  0  0
  1  7  1  0  0  0  0
  1  2  2  0  0  0  0
 39 40  1  0  0  0  0
 40 48  1  0  0  0  0
 40 41  2  0  0  0  0
  8  9  1  0  0  0  0
  9 17  1  0  0  0  0
  9 10  2  0  0  0  0
 18 19  1  0  0  0  0
 19 38  1  0  0  0  0
 19 20  2  0  0  0  0
 39 42  1  0  0  0  0
  8 11  1  0  0  0  0
 48 49  1  0  0  0  0
 18 21  1  0  0  0  0
 38 39  1  0  0  0  0
  7  8  1  0  0  0  0
 17 18  1  0  0  0  0
 23 33  1  0  0  0  0
 24 34  1  0  0  0  0
 25 35  1  0  0  0  0
 26 36  1  0  0  0  0
  3  4  1  0  0  0  0
  3  5  1  0  0  0  0
  3  6  1  0  0  0  0
 42 45  1  0  0  0  0
 42 46  1  0  0  0  0
 42 47  1  0  0  0  0
 11 14  1  0  0  0  0
 11 15  1  0  0  0  0
 11 16  1  0  0  0  0
 49 51  1  0  0  0  0
 49 52  1  0  0  0  0
 49 53  1  0  0  0  0
 21 31  1  0  0  0  0
 21 32  1  0  0  0  0
 39 44  1  0  0  0  0
  8 13  1  0  0  0  0
 18 30  1  0  0  0  0
 48 50  1  0  0  0  0
  7 12  1  0  0  0  0
 38 43  1  0  0  0  0
 17 29  1  0  0  0  0
 28 37  1  0  0  0  0
M  END
$$$$

  -OEChem-05262214473D

 53 53  0     1  0  0  0  0  0999 V2000
   -1.9298    0.2574    3.9747 C   0  0  0  0  0  0  0  0  0  0  0  0
   -0.9825   -0.3573    3.4990 O   0  0  0  0  0  0  0  0  0  0  0  0
   -2.3617   -0.0250    5.3754 C   0  0  0  0  0  0  0  0  0  0  0  0
   -3.1214   -0.8213    5.4288 H   0  0  0  0  0  0  0  0  0  0  0  0
   -1.5305   -0.3726    6.0097 H   0  0  0  0  0  0  0  0  0  0  0  0
   -2.7997    0.8299    5.9150 H   0  0  0  0  0  0  0  0  0  0  0  0
   -2.6795    1.2298    3.3336 N   0  0  0  0  0  0  0  0  0  0  0  0
   -2.4327    1.6559    1.9812 C   0  0  2  0  0  0  0  0  0  0  0  0
   -1.0977    1.0705    1.5400 C   0  0  0  0  0  0  0  0  0  0  0  0
   -0.2256    0.7177    2.3313 O   0  0  0  0  0  0  0  0  0  0  0  0
   -2.4239    3.1726    1.8718 C   0  0  0  0  0  0  0  0  0  0  0  0
   -3.4446    1.6657    3.8454 H   0  0  0  0  0  0  0  0  0  0  0  0
   -3.2368    1.2374    1.3661 H   0  0  0  0  0  0  0  0  0  0  0  0
   -1.6248    3.6099    2.4815 H   0  0  0  0  0  0  0  0  0  0  0  0
   -2.2644    3.4949    0.8375 H   0  0  0  0  0  0  0  0  0  0  0  0
   -3.3741    3.5939    2.2175 H   0  0  0  0  0  0  0  0  0  0  0  0
   -0.9750    1.0274    0.1566 N   0  0  0  0  0  0  0  0  0  0  0  0
    0.2023    0.5266   -0.5070 C   0  0  2  0  0  0  0  0  0  0  0  0
    1.2842    1.5921   -0.3712 C   0  0  0  0  0  0  0  0  0  0  0  0
    1.7862    2.1628   -1.3372 O   0  0  0  0  0  0  0  0  0  0  0  0
   -0.0553    0.2141   -1.9856 C   0  0  0  0  0  0  0  0  0  0  0  0
   -1.0042   -0.9431   -2.1808 C   0  0  0  0  0  0  0  0  0  0  0  0
   -0.5356   -2.2534   -2.0846 C   0  0  0  0  0  0  0  0  0  0  0  0
   -2.3499   -0.7023   -2.4582 C   0  0  0  0  0  0  0  0  0  0  0  0
   -1.4126   -3.3228   -2.2656 C   0  0  0  0  0  0  0  0  0  0  0  0
   -3.2269   -1.7717   -2.6393 C   0  0  0  0  0  0  0  0  0  0  0  0
   -2.7583   -3.0820   -2.5429 C   0  0  0  0  0  0  0  0  0  0  0  0
   -3.6136   -4.1257   -2.7208 O   0  0  0  0  0  0  0  0  0  0  0  0
   -1.7582    1.3241   -0.4207 H   0  0  0  0  0  0  0  0  0  0  0  0
    0.5118   -0.3711    0.0410 H   0  0  0  0  0  0  0  0  0  0  0  0
    0.8921    0.0060   -2.5011 H   0  0  0  0  0  0  0  0  0  0  0  0
   -0.4739    1.0917   -2.4958 H   0  0  0  0  0  0  0  0  0  0  0  0
    0.5111   -2.4503   -1.8687 H   0  0  0  0  0  0  0  0  0  0  0  0
   -2.7239    0.3154   -2.5349 H   0  0  0  0  0  0  0  0  0  0  0  0
   -1.0415   -4.3414   -2.1896 H   0  0  0  0  0  0  0  0  0  0  0  0
   -4.2737   -1.5776   -2.8554 H   0  0  0  0  0  0  0  0  0  0  0  0
   -4.5088   -3.7992   -2.9051 H   0  0  0  0  0  0  0  0  0  0  0  0
    1.5834    1.8624    0.9569 N   0  0  0  0  0  0  0  0  0  0  0  0
    2.5579    2.8482    1.3660 C   0  0  2  0  0  0  0  0  0  0  0  0
    3.8409    2.5931    0.5861 C   0  0  0  0  0  0  0  0  0  0  0  0
    4.1164    1.5048    0.0854 O   0  0  0  0  0  0  0  0  0  0  0  0
    2.8112    2.7871    2.8643 C   0  0  0  0  0  0  0  0  0  0  0  0
    1.0929    1.3411    1.6776 H   0  0  0  0  0  0  0  0  0  0  0  0
    2.1514    3.8276    1.0913 H   0  0  0  0  0  0  0  0  0  0  0  0
    3.2187    1.8130    3.1585 H   0  0  0  0  0  0  0  0  0  0  0  0
    3.5282    3.5533    3.1770 H   0  0  0  0  0  0  0  0  0  0  0  0
    1.8820    2.9412    3.4233 H   0  0  0  0  0  0  0  0  0  0  0  0
    4.6620    3.7115    0.5520 N   0  0  0  0  0  0  0  0  0  0  0  0
    5.9421    3.7187   -0.1168 C   0  0  0  0  0  0  0  0  0  0  0  0
    4.3448    4.5774    0.9779 H   0  0  0  0  0  0  0  0  0  0  0  0
    6.7327    3.4543    0.6008 H   0  0  0  0  0  0  0  0  0  0  0  0
    5.9314    2.9857   -0.9369 H   0  0  0  0  0  0  0  0  0  0  0  0
    6.1372    4.7218   -0.5240 H   0  0  0  0  0  0  0  0  0  0  0  0
 23 25  2  0  0  0  0
 22 23  1  0  0  0  0
 24 26  1  0  0  0  0
 22 24  2  0  0  0  0
 25 27  1  0  0  0  0
 26 27  2  0  0  0  0
 21 22  1  0  0  0  0
 27 28  1  0  0  0  0
  1  3  1  0  0  0  0
  1  7  1  0  0  0  0
  1  2  2  0  0  0  0
 39 40  1  0  0  0  0
 40 48  1  0  0  0  0
 40 41  2  0  0  0  0
  8  9  1  0  0  0  0
  9 17  1  0  0  0  0
  9 10  2  0  0  0  0
 18 19  1  0  0  0  0
 19 38  1  0  0  0  0
 19 20  2  0  0  0  0
 39 42  1  0  0  0  0
  8 11  1  0  0  0  0
 48 49  1  0  0  0  0
 18 21  1  0  0  0  0
 38 39  1  0  0  0  0
  7  8  1  0  0  0  0
 17 18  1  0  0  0  0
 23 33  1  0  0  0  0
 24 34  1  0  0  0  0
 25 35  1  0  0  0  0
 26 36  1  0  0  0  0
  3  4  1  0  0  0  0
  3  5  1  0  0  0  0
  3  6  1  0  0  0  0
 42 45  1  0  0  0  0
 42 46  1  0  0  0  0
 42 47  1  0  0  0  0
 11 14  1  0  0  0  0
 11 15  1  0  0  0  0
 11 16  1  0  0  0  0
 49 51  1  0  0  0  0
 49 52  1  0  0  0  0
 49 53  1  0  0  0  0
 21 31  1  0  0  0  0
 21 32  1  0  0  0  0
 39 44  1  0  0  0  0
  8 13  1  0  0  0  0
 18 30  1  0  0  0  0
 48 50  1  0  0  0  0
  7 12  1  0  0  0  0
 38 43  1  0  0  0  0
 17 29  1  0  0  0  0
 28 37  1  0  0  0  0
M  END
$$$$

  -OEChem-05262214473D

 53 53  0     1  0  0  0  0  0999 V2000
   -1.9298    0.2574    3.9747 C   0  0  0  0  0  0  0  0  0  0  0  0
   -0.9825   -0.3573    3.4990 O   0  0  0  0  0  0  0  0  0  0  0  0
   -2.3617   -0.0250    5.3754 C   0  0  0  0  0  0  0  0  0  0  0  0
   -3.1214   -0.8213    5.4288 H   0  0  0  0  0  0  0  0  0  0  0  0
   -1.5305   -0.3726    6.0097 H   0  0  0  0  0  0  0  0  0  0  0  0
   -2.7997    0.8299    5.9150 H   0  0  0  0  0  0  0  0  0  0  0  0
   -2.6795    1.2298    3.3336 N   0  0  0  0  0  0  0  0  0  0  0  0
   -2.4327    1.6559    1.9812 C   0  0  2  0  0  0  0  0  0  0  0  0
   -1.0977    1.0705    1.5400 C   0  0  0  0  0  0  0  0  0  0  0  0
   -0.2256    0.7177    2.3313 O   0  0  0  0  0  0  0  0  0  0  0  0
   -2.4239    3.1726    1.8718 C   0  0  0  0  0  0  0  0  0  0  0  0
   -3.4446    1.6657    3.8454 H   0  0  0  0  0  0  0  0  0  0  0  0
   -3.2368    1.2374    1.3661 H   0  0  0  0  0  0  0  0  0  0  0  0
   -1.6248    3.6099    2.4815 H   0  0  0  0  0  0  0  0  0  0  0  0
   -2.2644    3.4949    0.8375 H   0  0  0  0  0  0  0  0  0  0  0  0
   -3.3741    3.5939    2.2175 H   0  0  0  0  0  0  0  0  0  0  0  0
   -0.9750    1.0274    0.1566 N   0  0  0  0  0  0  0  0  0  0  0  0
    0.2023    0.5266   -0.5070 C   0  0  2  0  0  0  0  0  0  0  0  0
    1.2842    1.5921   -0.3712 C   0  0  0  0  0  0  0  0  0  0  0  0
    1.5974    2.3483   -1.2882 O   0  0  0  0  0  0  0  0  0  0  0  0
   -0.0553    0.2141   -1.9856 C   0  0  0  0  0  0  0  0  0  0  0  0
   -1.0042   -0.9431   -2.1808 C   0  0  0  0  0  0  0  0  0  0  0  0
   -0.5356   -2.2534   -2.0846 C   0  0  0  0  0  0  0  0  0  0  0  0
   -2.3499   -0.7023   -2.4582 C   0  0  0  0  0  0  0  0  0  0  0  0
   -1.4126   -3.3228   -2.2656 C   0  0  0  0  0  0  0  0  0  0  0  0
   -3.2269   -1.7717   -2.6393 C   0  0  0  0  0  0  0  0  0  0  0  0
   -2.7583   -3.0820   -2.5429 C   0  0  0  0  0  0  0  0  0  0  0  0
   -3.6136   -4.1257   -2.7208 O   0  0  0  0  0  0  0  0  0  0  0  0
   -1.7582    1.3241   -0.4207 H   0  0  0  0  0  0  0  0  0  0  0  0
    0.5118   -0.3711    0.0410 H   0  0  0  0  0  0  0  0  0  0  0  0
    0.8921    0.0060   -2.5011 H   0  0  0  0  0  0  0  0  0  0  0  0
   -0.4739    1.0917   -2.4958 H   0  0  0  0  0  0  0  0  0  0  0  0
    0.5111   -2.4503   -1.8687 H   0  0  0  0  0  0  0  0  0  0  0  0
   -2.7239    0.3154   -2.5349 H   0  0  0  0  0  0  0  0  0  0  0  0
   -1.0415   -4.3414   -2.1896 H   0  0  0  0  0  0  0  0  0  0  0  0
   -4.2737   -1.5776   -2.8554 H   0  0  0  0  0  0  0  0  0  0  0  0
   -4.5088   -3.7992   -2.9051 H   0  0  0  0  0  0  0  0  0  0  0  0
    1.8198    1.6285    0.9087 N   0  0  0  0  0  0  0  0  0  0  0  0
    2.8466    2.5618    1.3130 C   0  0  2  0  0  0  0  0  0  0  0  0
    3.9667    2.5040    0.2828 C   0  0  0  0  0  0  0  0  0  0  0  0
    4.1526    1.5366   -0.4525 O   0  0  0  0  0  0  0  0  0  0  0  0
    3.3703    2.2399    2.7040 C   0  0  0  0  0  0  0  0  0  0  0  0
    1.4726    0.9658    1.5959 H   0  0  0  0  0  0  0  0  0  0  0  0
    2.3907    3.5578    1.3022 H   0  0  0  0  0  0  0  0  0  0  0  0
    3.8307    1.2456    2.7345 H   0  0  0  0  0  0  0  0  0  0  0  0
    4.1277    2.9646    3.0204 H   0  0  0  0  0  0  0  0  0  0  0  0
    2.5581    2.2526    3.4389 H   0  0  0  0  0  0  0  0  0  0  0  0
    4.7608    3.6419    0.3108 N   0  0  0  0  0  0  0  0  0  0  0  0
    5.8968    3.8216   -0.5628 C   0  0  0  0  0  0  0  0  0  0  0  0
    4.5216    4.4027    0.9399 H   0  0  0  0  0  0  0  0  0  0  0  0
    6.8070    3.4631   -0.0599 H   0  0  0  0  0  0  0  0  0  0  0  0
    5.7406    3.2498   -1.4894 H   0  0  0  0  0  0  0  0  0  0  0  0
    6.0079    4.8889   -0.8048 H   0  0  0  0  0  0  0  0  0  0  0  0
 23 25  2  0  0  0  0
 22 23  1  0  0  0  0
 24 26  1  0  0  0  0
 22 24  2  0  0  0  0
 25 27  1  0  0  0  0
 26 27  2  0  0  0  0
 21 22  1  0  0  0  0
 27 28  1  0  0  0  0
  1  3  1  0  0  0  0
  1  7  1  0  0  0  0
  1  2  2  0  0  0  0
 39 40  1  0  0  0  0
 40 48  1  0  0  0  0
 40 41  2  0  0  0  0
  8  9  1  0  0  0  0
  9 17  1  0  0  0  0
  9 10  2  0  0  0  0
 18 19  1  0  0  0  0
 19 38  1  0  0  0  0
 19 20  2  0  0  0  0
 39 42  1  0  0  0  0
  8 11  1  0  0  0  0
 48 49  1  0  0  0  0
 18 21  1  0  0  0  0
 38 39  1  0  0  0  0
  7  8  1  0  0  0  0
 17 18  1  0  0  0  0
 23 33  1  0  0  0  0
 24 34  1  0  0  0  0
 25 35  1  0  0  0  0
 26 36  1  0  0  0  0
  3  4  1  0  0  0  0
  3  5  1  0  0  0  0
  3  6  1  0  0  0  0
 42 45  1  0  0  0  0
 42 46  1  0  0  0  0
 42 47  1  0  0  0  0
 11 14  1  0  0  0  0
 11 15  1  0  0  0  0
 11 16  1  0  0  0  0
 49 51  1  0  0  0  0
 49 52  1  0  0  0  0
 49 53  1  0  0  0  0
 21 31  1  0  0  0  0
 21 32  1  0  0  0  0
 39 44  1  0  0  0  0
  8 13  1  0  0  0  0
 18 30  1  0  0  0  0
 48 50  1  0  0  0  0
  7 12  1  0  0  0  0
 38 43  1  0  0  0  0
 17 29  1  0  0  0  0
 28 37  1  0  0  0  0
M  END
$$$$

  -OEChem-05262214473D

 53 53  0     1  0  0  0  0  0999 V2000
   -1.9298    0.2574    3.9747 C   0  0  0  0  0  0  0  0  0  0  0  0
   -0.9825   -0.3573    3.4990 O   0  0  0  0  0  0  0  0  0  0  0  0
   -2.3617   -0.0250    5.3754 C   0  0  0  0  0  0  0  0  0  0  0  0
   -3.1214   -0.8213    5.4288 H   0  0  0  0  0  0  0  0  0  0  0  0
   -1.5305   -0.3726    6.0097 H   0  0  0  0  0  0  0  0  0  0  0  0
   -2.7997    0.8299    5.9150 H   0  0  0  0  0  0  0  0  0  0  0  0
   -2.6795    1.2298    3.3336 N   0  0  0  0  0  0  0  0  0  0  0  0
   -2.4327    1.6559    1.9812 C   0  0  2  0  0  0  0  0  0  0  0  0
   -1.0977    1.0705    1.5400 C   0  0  0  0  0  0  0  0  0  0  0  0
   -0.2256    0.7177    2.3313 O   0  0  0  0  0  0  0  0  0  0  0  0
   -2.4239    3.1726    1.8718 C   0  0  0  0  0  0  0  0  0  0  0  0
   -3.4446    1.6657    3.8454 H   0  0  0  0  0  0  0  0  0  0  0  0
   -3.2368    1.2374    1.3661 H   0  0  0  0  0  0  0  0  0  0  0  0
   -1.6248    3.6099    2.4815 H   0  0  0  0  0  0  0  0  0  0  0  0
   -2.2644    3.4949    0.8375 H   0  0  0  0  0  0  0  0  0  0  0  0
   -3.3741    3.5939    2.2175 H   0  0  0  0  0  0  0  0  0  0  0  0
   -0.9750    1.0274    0.1566 N   0  0  0  0  0  0  0  0  0  0  0  0
    0.2023    0.5266   -0.5070 C   0  0  2  0  0  0  0  0  0  0  0  0
    1.2842    1.5921   -0.3712 C   0  0  0  0  0  0  0  0  0  0  0  0
    1.4196    2.5141   -1.1727 O   0  0  0  0  0  0  0  0  0  0  0  0
   -0.0553    0.2141   -1.9856 C   0  0  0  0  0  0  0  0  0  0  0  0
   -1.0042   -0.9431   -2.1808 C   0  0  0  0  0  0  0  0  0  0  0  0
   -0.5356   -2.2534   -2.0846 C   0  0  0  0  0  0  0  0  0  0  0  0
   -2.3499   -0.7023   -2.4582 C   0  0  0  0  0  0  0  0  0  0  0  0
   -1.4126   -3.3228   -2.2656 C   0  0  0  0  0  0  0  0  0  0  0  0
   -3.2269   -1.7717   -2.6393 C   0  0  0  0  0  0  0  0  0  0  0  0
   -2.7583   -3.0820   -2.5429 C   0  0  0  0  0  0  0  0  0  0  0  0
   -3.6136   -4.1257   -2.7208 O   0  0  0  0  0  0  0  0  0  0  0  0
   -1.7582    1.3241   -0.4207 H   0  0  0  0  0  0  0  0  0  0  0  0
    0.5118   -0.3711    0.0410 H   0  0  0  0  0  0  0  0  0  0  0  0
    0.8921    0.0060   -2.5011 H   0  0  0  0  0  0  0  0  0  0  0  0
   -0.4739    1.0917   -2.4958 H   0  0  0  0  0  0  0  0  0  0  0  0
    0.5111   -2.4503   -1.8687 H   0  0  0  0  0  0  0  0  0  0  0  0
   -2.7239    0.3154   -2.5349 H   0  0  0  0  0  0  0  0  0  0  0  0
   -1.0415   -4.3414   -2.1896 H   0  0  0  0  0  0  0  0  0  0  0  0
   -4.2737   -1.5776   -2.8554 H   0  0  0  0  0  0  0  0  0  0  0  0
   -4.5088   -3.7992   -2.9051 H   0  0  0  0  0  0  0  0  0  0  0  0
    2.0448    1.4169    0.7765 N   0  0  0  0  0  0  0  0  0  0  0  0
    3.1225    2.3015    1.1570 C   0  0  2  0  0  0  0  0  0  0  0  0
    4.0354    2.4765   -0.0493 C   0  0  0  0  0  0  0  0  0  0  0  0
    4.0895    1.6669   -0.9727 O   0  0  0  0  0  0  0  0  0  0  0  0
    3.8939    1.7536    2.3476 C   0  0  0  0  0  0  0  0  0  0  0  0
    1.8334    0.6272    1.3793 H   0  0  0  0  0  0  0  0  0  0  0  0
    2.6662    3.2639    1.4131 H   0  0  0  0  0  0  0  0  0  0  0  0
    4.3582    0.7896    2.1099 H   0  0  0  0  0  0  0  0  0  0  0  0
    4.6919    2.4386    2.6525 H   0  0  0  0  0  0  0  0  0  0  0  0
    3.2299    1.6003    3.2051 H   0  0  0  0  0  0  0  0  0  0  0  0
    4.8142    3.6213    0.0472 N   0  0  0  0  0  0  0  0  0  0  0  0
    5.7700    4.0018   -0.9665 C   0  0  0  0  0  0  0  0  0  0  0  0
    4.6896    4.2450    0.8391 H   0  0  0  0  0  0  0  0  0  0  0  0
    6.7591    3.5946   -0.7099 H   0  0  0  0  0  0  0  0  0  0  0  0
    5.4504    3.6020   -1.9401 H   0  0  0  0  0  0  0  0  0  0  0  0
    5.8283    5.0989   -1.0219 H   0  0  0  0  0  0  0  0  0  0  0  0
 23 25  2  0  0  0  0
 22 23  1  0  0  0  0
 24 26  1  0  0  0  0
 22 24  2  0  0  0  0
 25 27  1  0  0  0  0
 26 27  2  0  0  0  0
 21 22  1  0  0  0  0
 27 28  1  0  0  0  0
  1  3  1  0  0  0  0
  1  7  1  0  0  0  0
  1  2  2  0  0  0  0
 39 40  1  0  0  0  0
 40 48  1  0  0  0  0
 40 41  2  0  0  0  0
  8  9  1  0  0  0  0
  9 17  1  0  0  0  0
  9 10  2  0  0  0  0
 18 19  1  0  0  0  0
 19 38  1  0  0  0  0
 19 20  2  0  0  0  0
 39 42  1  0  0  0  0
  8 11  1  0  0  0  0
 48 49  1  0  0  0  0
 18 21  1  0  0  0  0
 38 39  1  0  0  0  0
  7  8  1  0  0  0  0
 17 18  1  0  0  0  0
 23 33  1  0  0  0  0
 24 34  1  0  0  0  0
 25 35  1  0  0  0  0
 26 36  1  0  0  0  0
  3  4  1  0  0  0  0
  3  5  1  0  0  0  0
  3  6  1  0  0  0  0
 42 45  1  0  0  0  0
 42 46  1  0  0  0  0
 42 47  1  0  0  0  0
 11 14  1  0  0  0  0
 11 15  1  0  0  0  0
 11 16  1  0  0  0  0
 49 51  1  0  0  0  0
 49 52  1  0  0  0  0
 49 53  1  0  0  0  0
 21 31  1  0  0  0  0
 21 32  1  0  0  0  0
 39 44  1  0  0  0  0
  8 13  1  0  0  0  0
 18 30  1  0  0  0  0
 48 50  1  0  0  0  0
  7 12  1  0  0  0  0
 38 43  1  0  0  0  0
 17 29  1  0  0  0  0
 28 37  1  0  0  0  0
M  END
$$$$

  -OEChem-05262214473D

 53 53  0     1  0  0  0  0  0999 V2000
   -1.9298    0.2574    3.9747 C   0  0  0  0  0  0  0  0  0  0  0  0
   -0.9825   -0.3573    3.4990 O   0  0  0  0  0  0  0  0  0  0  0  0
   -2.3617   -0.0250    5.3754 C   0  0  0  0  0  0  0  0  0  0  0  0
   -3.1214   -0.8213    5.4288 H   0  0  0  0  0  0  0  0  0  0  0  0
   -1.5305   -0.3726    6.0097 H   0  0  0  0  0  0  0  0  0  0  0  0
   -2.7997    0.8299    5.9150 H   0  0  0  0  0  0  0  0  0  0  0  0
   -2.6795    1.2298    3.3336 N   0  0  0  0  0  0  0  0  0  0  0  0
   -2.4327    1.6559    1.9812 C   0  0  2  0  0  0  0  0  0  0  0  0
   -1.0977    1.0705    1.5400 C   0  0  0  0  0  0  0  0  0  0  0  0
   -0.2256    0.7177    2.3313 O   0  0  0  0  0  0  0  0  0  0  0  0
   -2.4239    3.1726    1.8718 C   0  0  0  0  0  0  0  0  0  0  0  0
   -3.4446    1.6657    3.8454 H   0  0  0  0  0  0  0  0  0  0  0  0
   -3.2368    1.2374    1.3661 H   0  0  0  0  0  0  0  0  0  0  0  0
   -1.6248    3.6099    2.4815 H   0  0  0  0  0  0  0  0  0  0  0  0
   -2.2644    3.4949    0.8375 H   0  0  0  0  0  0  0  0  0  0  0  0
   -3.3741    3.5939    2.2175 H   0  0  0  0  0  0  0  0  0  0  0  0
   -0.9750    1.0274    0.1566 N   0  0  0  0  0  0  0  0  0  0  0  0
    0.2023    0.5266   -0.5070 C   0  0  2  0  0  0  0  0  0  0  0  0
    1.2842    1.5921   -0.3712 C   0  0  0  0  0  0  0  0  0  0  0  0
    1.2649    2.6490   -0.9985 O   0  0  0  0  0  0  0  0  0  0  0  0
   -0.0553    0.2141   -1.9856 C   0  0  0  0  0  0  0  0  0  0  0  0
   -1.0042   -0.9431   -2.1808 C   0  0  0  0  0  0  0  0  0  0  0  0
   -0.5356   -2.2534   -2.0846 C   0  0  0  0  0  0  0  0  0  0  0  0
   -2.3499   -0.7023   -2.4582 C   0  0  0  0  0  0  0  0  0  0  0  0
   -1.4126   -3.3228   -2.2656 C   0  0  0  0  0  0  0  0  0  0  0  0
   -3.2269   -1.7717   -2.6393 C   0  0  0  0  0  0  0  0  0  0  0  0
   -2.7583   -3.0820   -2.5429 C   0  0  0  0  0  0  0  0  0  0  0  0
   -3.6136   -4.1257   -2.7208 O   0  0  0  0  0  0  0  0  0  0  0  0
   -1.7582    1.3241   -0.4207 H   0  0  0  0  0  0  0  0  0  0  0  0
    0.5118   -0.3711    0.0410 H   0  0  0  0  0  0  0  0  0  0  0  0
    0.8921    0.0060   -2.5011 H   0  0  0  0  0  0  0  0  0  0  0  0
   -0.4739    1.0917   -2.4958 H   0  0  0  0  0  0  0  0  0  0  0  0
    0.5111   -2.4503   -1.8687 H   0  0  0  0  0  0  0  0  0  0  0  0
   -2.7239    0.3154   -2.5349 H   0  0  0  0  0  0  0  0  0  0  0  0
   -1.0415   -4.3414   -2.1896 H   0  0  0  0  0  0  0  0  0  0  0  0
   -4.2737   -1.5776   -2.8554 H   0  0  0  0  0  0  0  0  0  0  0  0
   -4.5088   -3.7992   -2.9051 H   0  0  0  0  0  0  0  0  0  0  0  0
    2.2431    1.2420    0.5692 N   0  0  0  0  0  0  0  0  0  0  0  0
    3.3667    2.0852    0.9086 C   0  0  2  0  0  0  0  0  0  0  0  0
    4.0424    2.5126   -0.3876 C   0  0  0  0  0  0  0  0  0  0  0  0
    3.9315    1.8869   -1.4399 O   0  0  0  0  0  0  0  0  0  0  0  0
    4.3464    1.3615    1.8192 C   0  0  0  0  0  0  0  0  0  0  0  0
    2.1504    0.3481    1.0427 H   0  0  0  0  0  0  0  0  0  0  0  0
    2.9591    2.9661    1.4164 H   0  0  0  0  0  0  0  0  0  0  0  0
    4.7653    0.4759    1.3275 H   0  0  0  0  0  0  0  0  0  0  0  0
    5.1825    2.0110    2.0985 H   0  0  0  0  0  0  0  0  0  0  0  0
    3.8515    1.0286    2.7380 H   0  0  0  0  0  0  0  0  0  0  0  0
    4.8186    3.6510   -0.2208 N   0  0  0  0  0  0  0  0  0  0  0  0
    5.5703    4.2471   -1.3004 C   0  0  0  0  0  0  0  0  0  0  0  0
    4.8372    4.1151    0.6825 H   0  0  0  0  0  0  0  0  0  0  0  0
    6.5922    3.8400   -1.3049 H   0  0  0  0  0  0  0  0  0  0  0  0
    5.0804    4.0183   -2.2583 H   0  0  0  0  0  0  0  0  0  0  0  0
    5.6108    5.3374   -1.1605 H   0  0  0  0  0  0  0  0  0  0  0  0
 23 25  2  0  0  0  0
 22 23  1  0  0  0  0
 24 26  1  0  0  0  0
 22 24  2  0  0  0  0
 25 27  1  0  0  0  0
 26 27  2  0  0  0  0
 21 22  1  0  0  0  0
 27 28  1  0  0  0  0
  1  3  1  0  0  0  0
  1  7  1  0  0  0  0
  1  2  2  0  0  0  0
 39 40  1  0  0  0  0
 40 48  1  0  0  0  0
 40 41  2  0  0  0  0
  8  9  1  0  0  0  0
  9 17  1  0  0  0  0
  9 10  2  0  0  0  0
 18 19  1  0  0  0  0
 19 38  1  0  0  0  0
 19 20  2  0  0  0  0
 39 42  1  0  0  0  0
  8 11  1  0  0  0  0
 48 49  1  0  0  0  0
 18 21  1  0  0  0  0
 38 39  1  0  0  0  0
  7  8  1  0  0  0  0
 17 18  1  0  0  0  0
 23 33  1  0  0  0  0
 24 34  1  0  0  0  0
 25 35  1  0  0  0  0
 26 36  1  0  0  0  0
  3  4  1  0  0  0  0
  3  5  1  0  0  0  0
  3  6  1  0  0  0  0
 42 45  1  0  0  0  0
 42 46  1  0  0  0  0
 42 47  1  0  0  0  0
 11 14  1  0  0  0  0
 11 15  1  0  0  0  0
 11 16  1  0  0  0  0
 49 51  1  0  0  0  0
 49 52  1  0  0  0  0
 49 53  1  0  0  0  0
 21 31  1  0  0  0  0
 21 32  1  0  0  0  0
 39 44  1  0  0  0  0
  8 13  1  0  0  0  0
 18 30  1  0  0  0  0
 48 50  1  0  0  0  0
  7 12  1  0  0  0  0
 38 43  1  0  0  0  0
 17 29  1  0  0  0  0
 28 37  1  0  0  0  0
M  END
$$$$

  -OEChem-05262214473D

 53 53  0     1  0  0  0  0  0999 V2000
   -1.9298    0.2574    3.9747 C   0  0  0  0  0  0  0  0  0  0  0  0
   -0.9825   -0.3573    3.4990 O   0  0  0  0  0  0  0  0  0  0  0  0
   -2.3617   -0.0250    5.3754 C   0  0  0  0  0  0  0  0  0  0  0  0
   -3.1214   -0.8213    5.4288 H   0  0  0  0  0  0  0  0  0  0  0  0
   -1.5305   -0.3726    6.0097 H   0  0  0  0  0  0  0  0  0  0  0  0
   -2.7997    0.8299    5.9150 H   0  0  0  0  0  0  0  0  0  0  0  0
   -2.6795    1.2298    3.3336 N   0  0  0  0  0  0  0  0  0  0  0  0
   -2.4327    1.6559    1.9812 C   0  0  2  0  0  0  0  0  0  0  0  0
   -1.0977    1.0705    1.5400 C   0  0  0  0  0  0  0  0  0  0  0  0
   -0.2256    0.7177    2.3313 O   0  0  0  0  0  0  0  0  0  0  0  0
   -2.4239    3.1726    1.8718 C   0  0  0  0  0  0  0  0  0  0  0  0
   -3.4446    1.6657    3.8454 H   0  0  0  0  0  0  0  0  0  0  0  0
   -3.2368    1.2374    1.3661 H   0  0  0  0  0  0  0  0  0  0  0  0
   -1.6248    3.6099    2.4815 H   0  0  0  0  0  0  0  0  0  0  0  0
   -2.2644    3.4949    0.8375 H   0  0  0  0  0  0  0  0  0  0  0  0
   -3.3741    3.5939    2.2175 H   0  0  0  0  0  0  0  0  0  0  0  0
   -0.9750    1.0274    0.1566 N   0  0  0  0  0  0  0  0  0  0  0  0
    0.2023    0.5266   -0.5070 C   0  0  2  0  0  0  0  0  0  0  0  0
    1.2842    1.5921   -0.3712 C   0  0  0  0  0  0  0  0  0  0  0  0
    1.1439    2.7437   -0.7775 O   0  0  0  0  0  0  0  0  0  0  0  0
   -0.0553    0.2141   -1.9856 C   0  0  0  0  0  0  0  0  0  0  0  0
   -1.0042   -0.9431   -2.1808 C   0  0  0  0  0  0  0  0  0  0  0  0
   -0.5356   -2.2534   -2.0846 C   0  0  0  0  0  0  0  0  0  0  0  0
   -2.3499   -0.7023   -2.4582 C   0  0  0  0  0  0  0  0  0  0  0  0
   -1.4126   -3.3228   -2.2656 C   0  0  0  0  0  0  0  0  0  0  0  0
   -3.2269   -1.7717   -2.6393 C   0  0  0  0  0  0  0  0  0  0  0  0
   -2.7583   -3.0820   -2.5429 C   0  0  0  0  0  0  0  0  0  0  0  0
   -3.6136   -4.1257   -2.7208 O   0  0  0  0  0  0  0  0  0  0  0  0
   -1.7582    1.3241   -0.4207 H   0  0  0  0  0  0  0  0  0  0  0  0
    0.5118   -0.3711    0.0410 H   0  0  0  0  0  0  0  0  0  0  0  0
    0.8921    0.0060   -2.5011 H   0  0  0  0  0  0  0  0  0  0  0  0
   -0.4739    1.0917   -2.4958 H   0  0  0  0  0  0  0  0  0  0  0  0
    0.5111   -2.4503   -1.8687 H   0  0  0  0  0  0  0  0  0  0  0  0
   -2.7239    0.3154   -2.5349 H   0  0  0  0  0  0  0  0  0  0  0  0
   -1.0415   -4.3414   -2.1896 H   0  0  0  0  0  0  0  0  0  0  0  0
   -4.2737   -1.5776   -2.8554 H   0  0  0  0  0  0  0  0  0  0  0  0
   -4.5088   -3.7992   -2.9051 H   0  0  0  0  0  0  0  0  0  0  0  0
    2.4011    1.1156    0.3010 N   0  0  0  0  0  0  0  0  0  0  0  0
    3.5627    1.9274    0.5847 C   0  0  2  0  0  0  0  0  0  0  0  0
    3.9870    2.6098   -0.7090 C   0  0  0  0  0  0  0  0  0  0  0  0
    3.6893    2.1816   -1.8222 O   0  0  0  0  0  0  0  0  0  0  0  0
    4.6970    1.0902    1.1550 C   0  0  0  0  0  0  0  0  0  0  0  0
    2.4022    0.1477    0.6090 H   0  0  0  0  0  0  0  0  0  0  0  0
    3.2495    2.6845    1.3119 H   0  0  0  0  0  0  0  0  0  0  0  0
    5.0243    0.3261    0.4405 H   0  0  0  0  0  0  0  0  0  0  0  0
    5.5661    1.7111    1.3961 H   0  0  0  0  0  0  0  0  0  0  0  0
    4.3807    0.5766    2.0693 H   0  0  0  0  0  0  0  0  0  0  0  0
    4.7736    3.7290   -0.4751 N   0  0  0  0  0  0  0  0  0  0  0  0
    5.3114    4.5408   -1.5418 C   0  0  0  0  0  0  0  0  0  0  0  0
    4.9544    4.0218    0.4806 H   0  0  0  0  0  0  0  0  0  0  0  0
    6.3176    4.1824   -1.8044 H   0  0  0  0  0  0  0  0  0  0  0  0
    4.6558    4.4703   -2.4222 H   0  0  0  0  0  0  0  0  0  0  0  0
    5.3701    5.5883   -1.2113 H   0  0  0  0  0  0  0  0  0  0  0  0
 23 25  2  0  0  0  0
 22 23  1  0  0  0  0
 24 26  1  0  0  0  0
 22 24  2  0  0  0  0
 25 27  1  0  0  0  0
 26 27  2  0  0  0  0
 21 22  1  0  0  0  0
 27 28  1  0  0  0  0
  1  3  1  0  0  0  0
  1  7  1  0  0  0  0
  1  2  2  0  0  0  0
 39 40  1  0  0  0  0
 40 48  1  0  0  0  0
 40 41  2  0  0  0  0
  8  9  1  0  0  0  0
  9 17  1  0  0  0  0
  9 10  2  0  0  0  0
 18 19  1  0  0  0  0
 19 38  1  0  0  0  0
 19 20  2  0  0  0  0
 39 42  1  0  0  0  0
  8 11  1  0  0  0  0
 48 49  1  0  0  0  0
 18 21  1  0  0  0  0
 38 39  1  0  0  0  0
  7  8  1  0  0  0  0
 17 18  1  0  0  0  0
 23 33  1  0  0  0  0
 24 34  1  0  0  0  0
 25 35  1  0  0  0  0
 26 36  1  0  0  0  0
  3  4  1  0  0  0  0
  3  5  1  0  0  0  0
  3  6  1  0  0  0  0
 42 45  1  0  0  0  0
 42 46  1  0  0  0  0
 42 47  1  0  0  0  0
 11 14  1  0  0  0  0
 11 15  1  0  0  0  0
 11 16  1  0  0  0  0
 49 51  1  0  0  0  0
 49 52  1  0  0  0  0
 49 53  1  0  0  0  0
 21 31  1  0  0  0  0
 21 32  1  0  0  0  0
 39 44  1  0  0  0  0
  8 13  1  0  0  0  0
 18 30  1  0  0  0  0
 48 50  1  0  0  0  0
  7 12  1  0  0  0  0
 38 43  1  0  0  0  0
 17 29  1  0  0  0  0
 28 37  1  0  0  0  0
M  END
$$$$

  -OEChem-05262214473D

 53 53  0     1  0  0  0  0  0999 V2000
   -1.9298    0.2574    3.9747 C   0  0  0  0  0  0  0  0  0  0  0  0
   -0.9825   -0.3573    3.4990 O   0  0  0  0  0  0  0  0  0  0  0  0
   -2.3617   -0.0250    5.3754 C   0  0  0  0  0  0  0  0  0  0  0  0
   -3.1214   -0.8213    5.4288 H   0  0  0  0  0  0  0  0  0  0  0  0
   -1.5305   -0.3726    6.0097 H   0  0  0  0  0  0  0  0  0  0  0  0
   -2.7997    0.8299    5.9150 H   0  0  0  0  0  0  0  0  0  0  0  0
   -2.6795    1.2298    3.3336 N   0  0  0  0  0  0  0  0  0  0  0  0
   -2.4327    1.6559    1.9812 C   0  0  2  0  0  0  0  0  0  0  0  0
   -1.0977    1.0705    1.5400 C   0  0  0  0  0  0  0  0  0  0  0  0
   -0.2256    0.7177    2.3313 O   0  0  0  0  0  0  0  0  0  0  0  0
   -2.4239    3.1726    1.8718 C   0  0  0  0  0  0  0  0  0  0  0  0
   -3.4446    1.6657    3.8454 H   0  0  0  0  0  0  0  0  0  0  0  0
   -3.2368    1.2374    1.3661 H   0  0  0  0  0  0  0  0  0  0  0  0
   -1.6248    3.6099    2.4815 H   0  0  0  0  0  0  0  0  0  0  0  0
   -2.2644    3.4949    0.8375 H   0  0  0  0  0  0  0  0  0  0  0  0
   -3.3741    3.5939    2.2175 H   0  0  0  0  0  0  0  0  0  0  0  0
   -0.9750    1.0274    0.1566 N   0  0  0  0  0  0  0  0  0  0  0  0
    0.2023    0.5266   -0.5070 C   0  0  2  0  0  0  0  0  0  0  0  0
    1.2842    1.5921   -0.3712 C   0  0  0  0  0  0  0  0  0  0  0  0
    1.0648    2.7918   -0.5247 O   0  0  0  0  0  0  0  0  0  0  0  0
   -0.0553    0.2141   -1.9856 C   0  0  0  0  0  0  0  0  0  0  0  0
   -1.0042   -0.9431   -2.1808 C   0  0  0  0  0  0  0  0  0  0  0  0
   -0.5356   -2.2534   -2.0846 C   0  0  0  0  0  0  0  0  0  0  0  0
   -2.3499   -0.7023   -2.4582 C   0  0  0  0  0  0  0  0  0  0  0  0
   -1.4126   -3.3228   -2.2656 C   0  0  0  0  0  0  0  0  0  0  0  0
   -3.2269   -1.7717   -2.6393 C   0  0  0  0  0  0  0  0  0  0  0  0
   -2.7583   -3.0820   -2.5429 C   0  0  0  0  0  0  0  0  0  0  0  0
   -3.6136   -4.1257   -2.7208 O   0  0  0  0  0  0  0  0  0  0  0  0
   -1.7582    1.3241   -0.4207 H   0  0  0  0  0  0  0  0  0  0  0  0
    0.5118   -0.3711    0.0410 H   0  0  0  0  0  0  0  0  0  0  0  0
    0.8921    0.0060   -2.5011 H   0  0  0  0  0  0  0  0  0  0  0  0
   -0.4739    1.0917   -2.4958 H   0  0  0  0  0  0  0  0  0  0  0  0
    0.5111   -2.4503   -1.8687 H   0  0  0  0  0  0  0  0  0  0  0  0
   -2.7239    0.3154   -2.5349 H   0  0  0  0  0  0  0  0  0  0  0  0
   -1.0415   -4.3414   -2.1896 H   0  0  0  0  0  0  0  0  0  0  0  0
   -4.2737   -1.5776   -2.8554 H   0  0  0  0  0  0  0  0  0  0  0  0
   -4.5088   -3.7992   -2.9051 H   0  0  0  0  0  0  0  0  0  0  0  0
    2.5082    1.0465   -0.0099 N   0  0  0  0  0  0  0  0  0  0  0  0
    3.6971    1.8391    0.2075 C   0  0  2  0  0  0  0  0  0  0  0  0
    3.8732    2.7614   -0.9916 C   0  0  0  0  0  0  0  0  0  0  0  0
    3.3794    2.5308   -2.0935 O   0  0  0  0  0  0  0  0  0  0  0  0
    4.9217    0.9582    0.4002 C   0  0  0  0  0  0  0  0  0  0  0  0
    2.5716    0.0396    0.1076 H   0  0  0  0  0  0  0  0  0  0  0  0
    3.5176    2.4384    1.1067 H   0  0  0  0  0  0  0  0  0  0  0  0
    5.1174    0.3502   -0.4906 H   0  0  0  0  0  0  0  0  0  0  0  0
    5.8164    1.5593    0.5931 H   0  0  0  0  0  0  0  0  0  0  0  0
    4.7813    0.2749    1.2447 H   0  0  0  0  0  0  0  0  0  0  0  0
    4.6824    3.8501   -0.6982 N   0  0  0  0  0  0  0  0  0  0  0  0
    5.0109    4.8628   -1.6741 C   0  0  0  0  0  0  0  0  0  0  0  0
    5.0333    3.9715    0.2473 H   0  0  0  0  0  0  0  0  0  0  0  0
    5.9542    4.5986   -2.1743 H   0  0  0  0  0  0  0  0  0  0  0  0
    4.2056    4.9272   -2.4208 H   0  0  0  0  0  0  0  0  0  0  0  0
    5.1226    5.8345   -1.1707 H   0  0  0  0  0  0  0  0  0  0  0  0
 23 25  2  0  0  0  0
 22 23  1  0  0  0  0
 24 26  1  0  0  0  0
 22 24  2  0  0  0  0
 25 27  1  0  0  0  0
 26 27  2  0  0  0  0
 21 22  1  0  0  0  0
 27 28  1  0  0  0  0
  1  3  1  0  0  0  0
  1  7  1  0  0  0  0
  1  2  2  0  0  0  0
 39 40  1  0  0  0  0
 40 48  1  0  0  0  0
 40 41  2  0  0  0  0
  8  9  1  0  0  0  0
  9 17  1  0  0  0  0
  9 10  2  0  0  0  0
 18 19  1  0  0  0  0
 19 38  1  0  0  0  0
 19 20  2  0  0  0  0
 39 42  1  0  0  0  0
  8 11  1  0  0  0  0
 48 49  1  0  0  0  0
 18 21  1  0  0  0  0
 38 39  1  0  0  0  0
  7  8  1  0  0  0  0
 17 18  1  0  0  0  0
 23 33  1  0  0  0  0
 24 34  1  0  0  0  0
 25 35  1  0  0  0  0
 26 36  1  0  0  0  0
  3  4  1  0  0  0  0
  3  5  1  0  0  0  0
  3  6  1  0  0  0  0
 42 45  1  0  0  0  0
 42 46  1  0  0  0  0
 42 47  1  0  0  0  0
 11 14  1  0  0  0  0
 11 15  1  0  0  0  0
 11 16  1  0  0  0  0
 49 51  1  0  0  0  0
 49 52  1  0  0  0  0
 49 53  1  0  0  0  0
 21 31  1  0  0  0  0
 21 32  1  0  0  0  0
 39 44  1  0  0  0  0
  8 13  1  0  0  0  0
 18 30  1  0  0  0  0
 48 50  1  0  0  0  0
  7 12  1  0  0  0  0
 38 43  1  0  0  0  0
 17 29  1  0  0  0  0
 28 37  1  0  0  0  0
M  END
$$$$

  -OEChem-05262214473D

 53 53  0     1  0  0  0  0  0999 V2000
   -1.9298    0.2574    3.9747 C   0  0  0  0  0  0  0  0  0  0  0  0
   -0.9825   -0.3573    3.4990 O   0  0  0  0  0  0  0  0  0  0  0  0
   -2.3617   -0.0250    5.3754 C   0  0  0  0  0  0  0  0  0  0  0  0
   -3.1214   -0.8213    5.4288 H   0  0  0  0  0  0  0  0  0  0  0  0
   -1.5305   -0.3726    6.0097 H   0  0  0  0  0  0  0  0  0  0  0  0
   -2.7997    0.8299    5.9150 H   0  0  0  0  0  0  0  0  0  0  0  0
   -2.6795    1.2298    3.3336 N   0  0  0  0  0  0  0  0  0  0  0  0
   -2.4327    1.6559    1.9812 C   0  0  2  0  0  0  0  0  0  0  0  0
   -1.0977    1.0705    1.5400 C   0  0  0  0  0  0  0  0  0  0  0  0
   -0.2256    0.7177    2.3313 O   0  0  0  0  0  0  0  0  0  0  0  0
   -2.4239    3.1726    1.8718 C   0  0  0  0  0  0  0  0  0  0  0  0
   -3.4446    1.6657    3.8454 H   0  0  0  0  0  0  0  0  0  0  0  0
   -3.2368    1.2374    1.3661 H   0  0  0  0  0  0  0  0  0  0  0  0
   -1.6248    3.6099    2.4815 H   0  0  0  0  0  0  0  0  0  0  0  0
   -2.2644    3.4949    0.8375 H   0  0  0  0  0  0  0  0  0  0  0  0
   -3.3741    3.5939    2.2175 H   0  0  0  0  0  0  0  0  0  0  0  0
   -0.9750    1.0274    0.1566 N   0  0  0  0  0  0  0  0  0  0  0  0
    0.2023    0.5266   -0.5070 C   0  0  2  0  0  0  0  0  0  0  0  0
    1.2842    1.5921   -0.3712 C   0  0  0  0  0  0  0  0  0  0  0  0
    1.0330    2.7900   -0.2575 O   0  0  0  0  0  0  0  0  0  0  0  0
   -0.0553    0.2141   -1.9856 C   0  0  0  0  0  0  0  0  0  0  0  0
   -1.0042   -0.9431   -2.1808 C   0  0  0  0  0  0  0  0  0  0  0  0
   -0.5356   -2.2534   -2.0846 C   0  0  0  0  0  0  0  0  0  0  0  0
   -2.3499   -0.7023   -2.4582 C   0  0  0  0  0  0  0  0  0  0  0  0
   -1.4126   -3.3228   -2.2656 C   0  0  0  0  0  0  0  0  0  0  0  0
   -3.2269   -1.7717   -2.6393 C   0  0  0  0  0  0  0  0  0  0  0  0
   -2.7583   -3.0820   -2.5429 C   0  0  0  0  0  0  0  0  0  0  0  0
   -3.6136   -4.1257   -2.7208 O   0  0  0  0  0  0  0  0  0  0  0  0
   -1.7582    1.3241   -0.4207 H   0  0  0  0  0  0  0  0  0  0  0  0
    0.5118   -0.3711    0.0410 H   0  0  0  0  0  0  0  0  0  0  0  0
    0.8921    0.0060   -2.5011 H   0  0  0  0  0  0  0  0  0  0  0  0
   -0.4739    1.0917   -2.4958 H   0  0  0  0  0  0  0  0  0  0  0  0
    0.5111   -2.4503   -1.8687 H   0  0  0  0  0  0  0  0  0  0  0  0
   -2.7239    0.3154   -2.5349 H   0  0  0  0  0  0  0  0  0  0  0  0
   -1.0415   -4.3414   -2.1896 H   0  0  0  0  0  0  0  0  0  0  0  0
   -4.2737   -1.5776   -2.8554 H   0  0  0  0  0  0  0  0  0  0  0  0
   -4.5088   -3.7992   -2.9051 H   0  0  0  0  0  0  0  0  0  0  0  0
    2.5570    1.0394   -0.3423 N   0  0  0  0  0  0  0  0  0  0  0  0
    3.7607    1.8261   -0.1975 C   0  0  2  0  0  0  0  0  0  0  0  0
    3.7087    2.9571   -1.2162 C   0  0  0  0  0  0  0  0  0  0  0  0
    3.0229    2.9109   -2.2353 O   0  0  0  0  0  0  0  0  0  0  0  0
    5.0053    0.9746   -0.3938 C   0  0  0  0  0  0  0  0  0  0  0  0
    2.6471    0.0312   -0.4271 H   0  0  0  0  0  0  0  0  0  0  0  0
    3.7451    2.2446    0.8148 H   0  0  0  0  0  0  0  0  0  0  0  0
    5.0383    0.5467   -1.4024 H   0  0  0  0  0  0  0  0  0  0  0  0
    5.9165    1.5659   -0.2556 H   0  0  0  0  0  0  0  0  0  0  0  0
    5.0260    0.1442    0.3203 H   0  0  0  0  0  0  0  0  0  0  0  0
    4.5512    4.0059   -0.8750 N   0  0  0  0  0  0  0  0  0  0  0  0
    4.6892    5.1913   -1.6885 C   0  0  0  0  0  0  0  0  0  0  0  0
    5.0684    3.9675   -0.0017 H   0  0  0  0  0  0  0  0  0  0  0  0
    5.5267    5.0601   -2.3895 H   0  0  0  0  0  0  0  0  0  0  0  0
    3.7605    5.3579   -2.2540 H   0  0  0  0  0  0  0  0  0  0  0  0
    4.8852    6.0590   -1.0415 H   0  0  0  0  0  0  0  0  0  0  0  0
 23 25  2  0  0  0  0
 22 23  1  0  0  0  0
 24 26  1  0  0  0  0
 22 24  2  0  0  0  0
 25 27  1  0  0  0  0
 26 27  2  0  0  0  0
 21 22  1  0  0  0  0
 27 28  1  0  0  0  0
  1  3  1  0  0  0  0
  1  7  1  0  0  0  0
  1  2  2  0  0  0  0
 39 40  1  0  0  0  0
 40 48  1  0  0  0  0
 40 41  2  0  0  0  0
  8  9  1  0  0  0  0
  9 17  1  0  0  0  0
  9 10  2  0  0  0  0
 18 19  1  0  0  0  0
 19 38  1  0  0  0  0
 19 20  2  0  0  0  0
 39 42  1  0  0  0  0
  8 11  1  0  0  0  0
 48 49  1  0  0  0  0
 18 21  1  0  0  0  0
 38 39  1  0  0  0  0
  7  8  1  0  0  0  0
 17 18  1  0  0  0  0
 23 33  1  0  0  0  0
 24 34  1  0  0  0  0
 25 35  1  0  0  0  0
 26 36  1  0  0  0  0
  3  4  1  0  0  0  0
  3  5  1  0  0  0  0
  3  6  1  0  0  0  0
 42 45  1  0  0  0  0
 42 46  1  0  0  0  0
 42 47  1  0  0  0  0
 11 14  1  0  0  0  0
 11 15  1  0  0  0  0
 11 16  1  0  0  0  0
 49 51  1  0  0  0  0
 49 52  1  0  0  0  0
 49 53  1  0  0  0  0
 21 31  1  0  0  0  0
 21 32  1  0  0  0  0
 39 44  1  0  0  0  0
  8 13  1  0  0  0  0
 18 30  1  0  0  0  0
 48 50  1  0  0  0  0
  7 12  1  0  0  0  0
 38 43  1  0  0  0  0
 17 29  1  0  0  0  0
 28 37  1  0  0  0  0
M  END
$$$$

  -OEChem-05262214473D

 53 53  0     1  0  0  0  0  0999 V2000
   -1.9298    0.2574    3.9747 C   0  0  0  0  0  0  0  0  0  0  0  0
   -0.9825   -0.3573    3.4990 O   0  0  0  0  0  0  0  0  0  0  0  0
   -2.3617   -0.0250    5.3754 C   0  0  0  0  0  0  0  0  0  0  0  0
   -3.1214   -0.8213    5.4288 H   0  0  0  0  0  0  0  0  0  0  0  0
   -1.5305   -0.3726    6.0097 H   0  0  0  0  0  0  0  0  0  0  0  0
   -2.7997    0.8299    5.9150 H   0  0  0  0  0  0  0  0  0  0  0  0
   -2.6795    1.2298    3.3336 N   0  0  0  0  0  0  0  0  0  0  0  0
   -2.4327    1.6559    1.9812 C   0  0  2  0  0  0  0  0  0  0  0  0
   -1.0977    1.0705    1.5400 C   0  0  0  0  0  0  0  0  0  0  0  0
   -0.2256    0.7177    2.3313 O   0  0  0  0  0  0  0  0  0  0  0  0
   -2.4239    3.1726    1.8718 C   0  0  0  0  0  0  0  0  0  0  0  0
   -3.4446    1.6657    3.8454 H   0  0  0  0  0  0  0  0  0  0  0  0
   -3.2368    1.2374    1.3661 H   0  0  0  0  0  0  0  0  0  0  0  0
   -1.6248    3.6099    2.4815 H   0  0  0  0  0  0  0  0  0  0  0  0
   -2.2644    3.4949    0.8375 H   0  0  0  0  0  0  0  0  0  0  0  0
   -3.3741    3.5939    2.2175 H   0  0  0  0  0  0  0  0  0  0  0  0
   -0.9750    1.0274    0.1566 N   0  0  0  0  0  0  0  0  0  0  0  0
    0.2023    0.5266   -0.5070 C   0  0  2  0  0  0  0  0  0  0  0  0
    1.2842    1.5921   -0.3712 C   0  0  0  0  0  0  0  0  0  0  0  0
    1.0507    2.7384    0.0061 O   0  0  0  0  0  0  0  0  0  0  0  0
   -0.0553    0.2141   -1.9856 C   0  0  0  0  0  0  0  0  0  0  0  0
   -1.0042   -0.9431   -2.1808 C   0  0  0  0  0  0  0  0  0  0  0  0
   -0.5356   -2.2534   -2.0846 C   0  0  0  0  0  0  0  0  0  0  0  0
   -2.3499   -0.7023   -2.4582 C   0  0  0  0  0  0  0  0  0  0  0  0
   -1.4126   -3.3228   -2.2656 C   0  0  0  0  0  0  0  0  0  0  0  0
   -3.2269   -1.7717   -2.6393 C   0  0  0  0  0  0  0  0  0  0  0  0
   -2.7583   -3.0820   -2.5429 C   0  0  0  0  0  0  0  0  0  0  0  0
   -3.6136   -4.1257   -2.7208 O   0  0  0  0  0  0  0  0  0  0  0  0
   -1.7582    1.3241   -0.4207 H   0  0  0  0  0  0  0  0  0  0  0  0
    0.5118   -0.3711    0.0410 H   0  0  0  0  0  0  0  0  0  0  0  0
    0.8921    0.0060   -2.5011 H   0  0  0  0  0  0  0  0  0  0  0  0
   -0.4739    1.0917   -2.4958 H   0  0  0  0  0  0  0  0  0  0  0  0
    0.5111   -2.4503   -1.8687 H   0  0  0  0  0  0  0  0  0  0  0  0
   -2.7239    0.3154   -2.5349 H   0  0  0  0  0  0  0  0  0  0  0  0
   -1.0415   -4.3414   -2.1896 H   0  0  0  0  0  0  0  0  0  0  0  0
   -4.2737   -1.5776   -2.8554 H   0  0  0  0  0  0  0  0  0  0  0  0
   -4.5088   -3.7992   -2.9051 H   0  0  0  0  0  0  0  0  0  0  0  0
    2.5442    1.0946   -0.6734 N   0  0  0  0  0  0  0  0  0  0  0  0
    3.7491    1.8894   -0.6025 C   0  0  2  0  0  0  0  0  0  0  0  0
    3.5046    3.1836   -1.3673 C   0  0  0  0  0  0  0  0  0  0  0  0
    2.6442    3.2958   -2.2381 O   0  0  0  0  0  0  0  0  0  0  0  0
    4.9420    1.1381   -1.1728 C   0  0  0  0  0  0  0  0  0  0  0  0
    2.6234    0.1230   -0.9588 H   0  0  0  0  0  0  0  0  0  0  0  0
    3.9166    2.1162    0.4561 H   0  0  0  0  0  0  0  0  0  0  0  0
    4.7925    0.9021   -2.2328 H   0  0  0  0  0  0  0  0  0  0  0  0
    5.8594    1.7304   -1.0923 H   0  0  0  0  0  0  0  0  0  0  0  0
    5.0982    0.1934   -0.6409 H   0  0  0  0  0  0  0  0  0  0  0  0
    4.3889    4.1858   -0.9934 N   0  0  0  0  0  0  0  0  0  0  0  0
    4.3683    5.5038   -1.5838 C   0  0  0  0  0  0  0  0  0  0  0  0
    5.0574    4.0102   -0.2492 H   0  0  0  0  0  0  0  0  0  0  0  0
    5.0641    5.5356   -2.4352 H   0  0  0  0  0  0  0  0  0  0  0  0
    3.3508    5.7330   -1.9333 H   0  0  0  0  0  0  0  0  0  0  0  0
    4.6741    6.2467   -0.8325 H   0  0  0  0  0  0  0  0  0  0  0  0
 23 25  2  0  0  0  0
 22 23  1  0  0  0  0
 24 26  1  0  0  0  0
 22 24  2  0  0  0  0
 25 27  1  0  0  0  0
 26 27  2  0  0  0  0
 21 22  1  0  0  0  0
 27 28  1  0  0  0  0
  1  3  1  0  0  0  0
  1  7  1  0  0  0  0
  1  2  2  0  0  0  0
 39 40  1  0  0  0  0
 40 48  1  0  0  0  0
 40 41  2  0  0  0  0
  8  9  1  0  0  0  0
  9 17  1  0  0  0  0
  9 10  2  0  0  0  0
 18 19  1  0  0  0  0
 19 38  1  0  0  0  0
 19 20  2  0  0  0  0
 39 42  1  0  0  0  0
  8 11  1  0  0  0  0
 48 49  1  0  0  0  0
 18 21  1  0  0  0  0
 38 39  1  0  0  0  0
  7  8  1  0  0  0  0
 17 18  1  0  0  0  0
 23 33  1  0  0  0  0
 24 34  1  0  0  0  0
 25 35  1  0  0  0  0
 26 36  1  0  0  0  0
  3  4  1  0  0  0  0
  3  5  1  0  0  0  0
  3  6  1  0  0  0  0
 42 45  1  0  0  0  0
 42 46  1  0  0  0  0
 42 47  1  0  0  0  0
 11 14  1  0  0  0  0
 11 15  1  0  0  0  0
 11 16  1  0  0  0  0
 49 51  1  0  0  0  0
 49 52  1  0  0  0  0
 49 53  1  0  0  0  0
 21 31  1  0  0  0  0
 21 32  1  0  0  0  0
 39 44  1  0  0  0  0
  8 13  1  0  0  0  0
 18 30  1  0  0  0  0
 48 50  1  0  0  0  0
  7 12  1  0  0  0  0
 38 43  1  0  0  0  0
 17 29  1  0  0  0  0
 28 37  1  0  0  0  0
M  END
$$$$

  -OEChem-05262214473D

 53 53  0     1  0  0  0  0  0999 V2000
   -1.9298    0.2574    3.9747 C   0  0  0  0  0  0  0  0  0  0  0  0
   -0.9825   -0.3573    3.4990 O   0  0  0  0  0  0  0  0  0  0  0  0
   -2.3617   -0.0250    5.3754 C   0  0  0  0  0  0  0  0  0  0  0  0
   -3.1214   -0.8213    5.4288 H   0  0  0  0  0  0  0  0  0  0  0  0
   -1.5305   -0.3726    6.0097 H   0  0  0  0  0  0  0  0  0  0  0  0
   -2.7997    0.8299    5.9150 H   0  0  0  0  0  0  0  0  0  0  0  0
   -2.6795    1.2298    3.3336 N   0  0  0  0  0  0  0  0  0  0  0  0
   -2.4327    1.6559    1.9812 C   0  0  2  0  0  0  0  0  0  0  0  0
   -1.0977    1.0705    1.5400 C   0  0  0  0  0  0  0  0  0  0  0  0
   -0.2256    0.7177    2.3313 O   0  0  0  0  0  0  0  0  0  0  0  0
   -2.4239    3.1726    1.8718 C   0  0  0  0  0  0  0  0  0  0  0  0
   -3.4446    1.6657    3.8454 H   0  0  0  0  0  0  0  0  0  0  0  0
   -3.2368    1.2374    1.3661 H   0  0  0  0  0  0  0  0  0  0  0  0
   -1.6248    3.6099    2.4815 H   0  0  0  0  0  0  0  0  0  0  0  0
   -2.2644    3.4949    0.8375 H   0  0  0  0  0  0  0  0  0  0  0  0
   -3.3741    3.5939    2.2175 H   0  0  0  0  0  0  0  0  0  0  0  0
   -0.9750    1.0274    0.1566 N   0  0  0  0  0  0  0  0  0  0  0  0
    0.2023    0.5266   -0.5070 C   0  0  2  0  0  0  0  0  0  0  0  0
    1.3746    1.3928   -0.0604 C   0  0  0  0  0  0  0  0  0  0  0  0
    1.2602    2.3039    0.7568 O   0  0  0  0  0  0  0  0  0  0  0  0
    0.0653    0.5612   -2.0335 C   0  0  0  0  0  0  0  0  0  0  0  0
   -0.9795   -0.3989   -2.5476 C   0  0  0  0  0  0  0  0  0  0  0  0
   -0.6696   -1.7501   -2.7020 C   0  0  0  0  0  0  0  0  0  0  0  0
   -2.2550    0.0653   -2.8691 C   0  0  0  0  0  0  0  0  0  0  0  0
   -1.6352   -2.6372   -3.1777 C   0  0  0  0  0  0  0  0  0  0  0  0
   -3.2206   -0.8218   -3.3449 C   0  0  0  0  0  0  0  0  0  0  0  0
   -2.9107   -2.1731   -3.4992 C   0  0  0  0  0  0  0  0  0  0  0  0
   -3.8523   -3.0387   -3.9646 O   0  0  0  0  0  0  0  0  0  0  0  0
   -1.7582    1.3241   -0.4207 H   0  0  0  0  0  0  0  0  0  0  0  0
    0.3537   -0.4969   -0.1445 H   0  0  0  0  0  0  0  0  0  0  0  0
    1.0321    0.3434   -2.5072 H   0  0  0  0  0  0  0  0  0  0  0  0
   -0.2000    1.5715   -2.3720 H   0  0  0  0  0  0  0  0  0  0  0  0
    0.3215   -2.1204   -2.4539 H   0  0  0  0  0  0  0  0  0  0  0  0
   -2.5055    1.1165   -2.7519 H   0  0  0  0  0  0  0  0  0  0  0  0
   -1.3876   -3.6888   -3.2961 H   0  0  0  0  0  0  0  0  0  0  0  0
   -4.2121   -0.4541   -3.5938 H   0  0  0  0  0  0  0  0  0  0  0  0
   -4.6827   -2.5687   -4.1422 H   0  0  0  0  0  0  0  0  0  0  0  0
    2.5682    0.9934   -0.6453 N   0  0  0  0  0  0  0  0  0  0  0  0
    3.8367    1.6313   -0.3755 C   0  0  2  0  0  0  0  0  0  0  0  0
    3.6528    3.1337   -0.5443 C   0  0  0  0  0  0  0  0  0  0  0  0
    2.7525    3.6276   -1.2199 O   0  0  0  0  0  0  0  0  0  0  0  0
    4.9260    1.1098   -1.2997 C   0  0  0  0  0  0  0  0  0  0  0  0
    2.5493    0.2134   -1.2958 H   0  0  0  0  0  0  0  0  0  0  0  0
    4.0874    1.4084    0.6673 H   0  0  0  0  0  0  0  0  0  0  0  0
    4.6924    1.3240   -2.3490 H   0  0  0  0  0  0  0  0  0  0  0  0
    5.8924    1.5732   -1.0750 H   0  0  0  0  0  0  0  0  0  0  0  0
    5.0364    0.0247   -1.1985 H   0  0  0  0  0  0  0  0  0  0  0  0
    4.6381    3.8572    0.1130 N   0  0  0  0  0  0  0  0  0  0  0  0
    4.6898    5.3004    0.0931 C   0  0  0  0  0  0  0  0  0  0  0  0
    5.3347    3.3655    0.6651 H   0  0  0  0  0  0  0  0  0  0  0  0
    5.3319    5.6335   -0.7356 H   0  0  0  0  0  0  0  0  0  0  0  0
    3.6750    5.7017   -0.0454 H   0  0  0  0  0  0  0  0  0  0  0  0
    5.1017    5.6656    1.0455 H   0  0  0  0  0  0  0  0  0  0  0  0
 23 25  2  0  0  0  0
 22 23  1  0  0  0  0
 24 26  1  0  0  0  0
 22 24  2  0  0  0  0
 25 27  1  0  0  0  0
 26 27  2  0  0  0  0
 21 22  1  0  0  0  0
 27 28  1  0  0  0  0
  1  3  1  0  0  0  0
  1  7  1  0  0  0  0
  1  2  2  0  0  0  0
 39 40  1  0  0  0  0
 40 48  1  0  0  0  0
 40 41  2  0  0  0  0
  8  9  1  0  0  0  0
  9 17  1  0  0  0  0
  9 10  2  0  0  0  0
 18 19  1  0  0  0  0
 19 38  1  0  0  0  0
 19 20  2  0  0  0  0
 39 42  1  0  0  0  0
  8 11  1  0  0  0  0
 48 49  1  0  0  0  0
 18 21  1  0  0  0  0
 38 39  1  0  0  0  0
  7  8  1  0  0  0  0
 17 18  1  0  0  0  0
 23 33  1  0  0  0  0
 24 34  1  0  0  0  0
 25 35  1  0  0  0  0
 26 36  1  0  0  0  0
  3  4  1  0  0  0  0
  3  5  1  0  0  0  0
  3  6  1  0  0  0  0
 42 45  1  0  0  0  0
 42 46  1  0  0  0  0
 42 47  1  0  0  0  0
 11 14  1  0  0  0  0
 11 15  1  0  0  0  0
 11 16  1  0  0  0  0
 49 51  1  0  0  0  0
 49 52  1  0  0  0  0
 49 53  1  0  0  0  0
 21 31  1  0  0  0  0
 21 32  1  0  0  0  0
 39 44  1  0  0  0  0
  8 13  1  0  0  0  0
 18 30  1  0  0  0  0
 48 50  1  0  0  0  0
  7 12  1  0  0  0  0
 38 43  1  0  0  0  0
 17 29  1  0  0  0  0
 28 37  1  0  0  0  0
M  END
$$$$

  -OEChem-05262214473D

 53 53  0     1  0  0  0  0  0999 V2000
   -1.9298    0.2574    3.9747 C   0  0  0  0  0  0  0  0  0  0  0  0
   -0.9825   -0.3573    3.4990 O   0  0  0  0  0  0  0  0  0  0  0  0
   -2.3617   -0.0250    5.3754 C   0  0  0  0  0  0  0  0  0  0  0  0
   -3.1214   -0.8213    5.4288 H   0  0  0  0  0  0  0  0  0  0  0  0
   -1.5305   -0.3726    6.0097 H   0  0  0  0  0  0  0  0  0  0  0  0
   -2.7997    0.8299    5.9150 H   0  0  0  0  0  0  0  0  0  0  0  0
   -2.6795    1.2298    3.3336 N   0  0  0  0  0  0  0  0  0  0  0  0
   -2.4327    1.6559    1.9812 C   0  0  2  0  0  0  0  0  0  0  0  0
   -1.0977    1.0705    1.5400 C   0  0  0  0  0  0  0  0  0  0  0  0
   -0.2256    0.7177    2.3313 O   0  0  0  0  0  0  0  0  0  0  0  0
   -2.4239    3.1726    1.8718 C   0  0  0  0  0  0  0  0  0  0  0  0
   -3.4446    1.6657    3.8454 H   0  0  0  0  0  0  0  0  0  0  0  0
   -3.2368    1.2374    1.3661 H   0  0  0  0  0  0  0  0  0  0  0  0
   -1.6248    3.6099    2.4815 H   0  0  0  0  0  0  0  0  0  0  0  0
   -2.2644    3.4949    0.8375 H   0  0  0  0  0  0  0  0  0  0  0  0
   -3.3741    3.5939    2.2175 H   0  0  0  0  0  0  0  0  0  0  0  0
   -0.9750    1.0274    0.1566 N   0  0  0  0  0  0  0  0  0  0  0  0
    0.2023    0.5266   -0.5070 C   0  0  2  0  0  0  0  0  0  0  0  0
    1.3746    1.3928   -0.0604 C   0  0  0  0  0  0  0  0  0  0  0  0
    1.3327    2.1145    0.9338 O   0  0  0  0  0  0  0  0  0  0  0  0
    0.0653    0.5612   -2.0335 C   0  0  0  0  0  0  0  0  0  0  0  0
   -0.9795   -0.3989   -2.5476 C   0  0  0  0  0  0  0  0  0  0  0  0
   -0.6696   -1.7501   -2.7020 C   0  0  0  0  0  0  0  0  0  0  0  0
   -2.2550    0.0653   -2.8691 C   0  0  0  0  0  0  0  0  0  0  0  0
   -1.6352   -2.6372   -3.1777 C   0  0  0  0  0  0  0  0  0  0  0  0
   -3.2206   -0.8218   -3.3449 C   0  0  0  0  0  0  0  0  0  0  0  0
   -2.9107   -2.1731   -3.4992 C   0  0  0  0  0  0  0  0  0  0  0  0
   -3.8523   -3.0387   -3.9646 O   0  0  0  0  0  0  0  0  0  0  0  0
   -1.7582    1.3241   -0.4207 H   0  0  0  0  0  0  0  0  0  0  0  0
    0.3537   -0.4969   -0.1445 H   0  0  0  0  0  0  0  0  0  0  0  0
    1.0321    0.3434   -2.5072 H   0  0  0  0  0  0  0  0  0  0  0  0
   -0.2000    1.5715   -2.3720 H   0  0  0  0  0  0  0  0  0  0  0  0
    0.3215   -2.1204   -2.4539 H   0  0  0  0  0  0  0  0  0  0  0  0
   -2.5055    1.1165   -2.7519 H   0  0  0  0  0  0  0  0  0  0  0  0
   -1.3876   -3.6888   -3.2961 H   0  0  0  0  0  0  0  0  0  0  0  0
   -4.2121   -0.4541   -3.5938 H   0  0  0  0  0  0  0  0  0  0  0  0
   -4.6827   -2.5687   -4.1422 H   0  0  0  0  0  0  0  0  0  0  0  0
    2.4854    1.2240   -0.8752 N   0  0  0  0  0  0  0  0  0  0  0  0
    3.7391    1.9101   -0.6600 C   0  0  2  0  0  0  0  0  0  0  0  0
    3.4401    3.3938   -0.4904 C   0  0  0  0  0  0  0  0  0  0  0  0
    2.4177    3.9252   -0.9184 O   0  0  0  0  0  0  0  0  0  0  0  0
    4.7021    1.6781   -1.8140 C   0  0  0  0  0  0  0  0  0  0  0  0
    2.4137    0.5861   -1.6625 H   0  0  0  0  0  0  0  0  0  0  0  0
    4.1612    1.5134    0.2698 H   0  0  0  0  0  0  0  0  0  0  0  0
    4.2963    2.0690   -2.7542 H   0  0  0  0  0  0  0  0  0  0  0  0
    5.6615    2.1751   -1.6362 H   0  0  0  0  0  0  0  0  0  0  0  0
    4.8927    0.6086   -1.9535 H   0  0  0  0  0  0  0  0  0  0  0  0
    4.4693    4.0629    0.1572 N   0  0  0  0  0  0  0  0  0  0  0  0
    4.4293    5.4813    0.4262 C   0  0  0  0  0  0  0  0  0  0  0  0
    5.2715    3.5390    0.4944 H   0  0  0  0  0  0  0  0  0  0  0  0
    4.9139    6.0252   -0.3980 H   0  0  0  0  0  0  0  0  0  0  0  0
    3.3827    5.8080    0.5156 H   0  0  0  0  0  0  0  0  0  0  0  0
    4.9605    5.6912    1.3663 H   0  0  0  0  0  0  0  0  0  0  0  0
 23 25  2  0  0  0  0
 22 23  1  0  0  0  0
 24 26  1  0  0  0  0
 22 24  2  0  0  0  0
 25 27  1  0  0  0  0
 26 27  2  0  0  0  0
 21 22  1  0  0  0  0
 27 28  1  0  0  0  0
  1  3  1  0  0  0  0
  1  7  1  0  0  0  0
  1  2  2  0  0  0  0
 39 40  1  0  0  0  0
 40 48  1  0  0  0  0
 40 41  2  0  0  0  0
  8  9  1  0  0  0  0
  9 17  1  0  0  0  0
  9 10  2  0  0  0  0
 18 19  1  0  0  0  0
 19 38  1  0  0  0  0
 19 20  2  0  0  0  0
 39 42  1  0  0  0  0
  8 11  1  0  0  0  0
 48 49  1  0  0  0  0
 18 21  1  0  0  0  0
 38 39  1  0  0  0  0
  7  8  1  0  0  0  0
 17 18  1  0  0  0  0
 23 33  1  0  0  0  0
 24 34  1  0  0  0  0
 25 35  1  0  0  0  0
 26 36  1  0  0  0  0
  3  4  1  0  0  0  0
  3  5  1  0  0  0  0
  3  6  1  0  0  0  0
 42 45  1  0  0  0  0
 42 46  1  0  0  0  0
 42 47  1  0  0  0  0
 11 14  1  0  0  0  0
 11 15  1  0  0  0  0
 11 16  1  0  0  0  0
 49 51  1  0  0  0  0
 49 52  1  0  0  0  0
 49 53  1  0  0  0  0
 21 31  1  0  0  0  0
 21 32  1  0  0  0  0
 39 44  1  0  0  0  0
  8 13  1  0  0  0  0
 18 30  1  0  0  0  0
 48 50  1  0  0  0  0
  7 12  1  0  0  0  0
 38 43  1  0  0  0  0
 17 29  1  0  0  0  0
 28 37  1  0  0  0  0
M  END
$$$$

  -OEChem-05262214473D

 53 53  0     1  0  0  0  0  0999 V2000
   -1.9298    0.2574    3.9747 C   0  0  0  0  0  0  0  0  0  0  0  0
   -0.9825   -0.3573    3.4990 O   0  0  0  0  0  0  0  0  0  0  0  0
   -2.3617   -0.0250    5.3754 C   0  0  0  0  0  0  0  0  0  0  0  0
   -3.1214   -0.8213    5.4288 H   0  0  0  0  0  0  0  0  0  0  0  0
   -1.5305   -0.3726    6.0097 H   0  0  0  0  0  0  0  0  0  0  0  0
   -2.7997    0.8299    5.9150 H   0  0  0  0  0  0  0  0  0  0  0  0
   -2.6795    1.2298    3.3336 N   0  0  0  0  0  0  0  0  0  0  0  0
   -2.4327    1.6559    1.9812 C   0  0  2  0  0  0  0  0  0  0  0  0
   -1.0977    1.0705    1.5400 C   0  0  0  0  0  0  0  0  0  0  0  0
   -0.2256    0.7177    2.3313 O   0  0  0  0  0  0  0  0  0  0  0  0
   -2.4239    3.1726    1.8718 C   0  0  0  0  0  0  0  0  0  0  0  0
   -3.4446    1.6657    3.8454 H   0  0  0  0  0  0  0  0  0  0  0  0
   -3.2368    1.2374    1.3661 H   0  0  0  0  0  0  0  0  0  0  0  0
   -1.6248    3.6099    2.4815 H   0  0  0  0  0  0  0  0  0  0  0  0
   -2.2644    3.4949    0.8375 H   0  0  0  0  0  0  0  0  0  0  0  0
   -3.3741    3.5939    2.2175 H   0  0  0  0  0  0  0  0  0  0  0  0
   -0.9750    1.0274    0.1566 N   0  0  0  0  0  0  0  0  0  0  0  0
    0.2023    0.5266   -0.5070 C   0  0  2  0  0  0  0  0  0  0  0  0
    1.3746    1.3928   -0.0604 C   0  0  0  0  0  0  0  0  0  0  0  0
    1.4432    1.9018    1.0564 O   0  0  0  0  0  0  0  0  0  0  0  0
    0.0653    0.5612   -2.0335 C   0  0  0  0  0  0  0  0  0  0  0  0
   -0.9795   -0.3989   -2.5476 C   0  0  0  0  0  0  0  0  0  0  0  0
   -0.6696   -1.7501   -2.7020 C   0  0  0  0  0  0  0  0  0  0  0  0
   -2.2550    0.0653   -2.8691 C   0  0  0  0  0  0  0  0  0  0  0  0
   -1.6352   -2.6372   -3.1777 C   0  0  0  0  0  0  0  0  0  0  0  0
   -3.2206   -0.8218   -3.3449 C   0  0  0  0  0  0  0  0  0  0  0  0
   -2.9107   -2.1731   -3.4992 C   0  0  0  0  0  0  0  0  0  0  0  0
   -3.8523   -3.0387   -3.9646 O   0  0  0  0  0  0  0  0  0  0  0  0
   -1.7582    1.3241   -0.4207 H   0  0  0  0  0  0  0  0  0  0  0  0
    0.3537   -0.4969   -0.1445 H   0  0  0  0  0  0  0  0  0  0  0  0
    1.0321    0.3434   -2.5072 H   0  0  0  0  0  0  0  0  0  0  0  0
   -0.2000    1.5715   -2.3720 H   0  0  0  0  0  0  0  0  0  0  0  0
    0.3215   -2.1204   -2.4539 H   0  0  0  0  0  0  0  0  0  0  0  0
   -2.5055    1.1165   -2.7519 H   0  0  0  0  0  0  0  0  0  0  0  0
   -1.3876   -3.6888   -3.2961 H   0  0  0  0  0  0  0  0  0  0  0  0
   -4.2121   -0.4541   -3.5938 H   0  0  0  0  0  0  0  0  0  0  0  0
   -4.6827   -2.5687   -4.1422 H   0  0  0  0  0  0  0  0  0  0  0  0
    2.3542    1.4862   -1.0392 N   0  0  0  0  0  0  0  0  0  0  0  0
    3.5819    2.2286   -0.8650 C   0  0  2  0  0  0  0  0  0  0  0  0
    3.2229    3.6182   -0.3553 C   0  0  0  0  0  0  0  0  0  0  0  0
    2.1160    4.1273   -0.5186 O   0  0  0  0  0  0  0  0  0  0  0  0
    4.3670    2.3125   -2.1647 C   0  0  0  0  0  0  0  0  0  0  0  0
    2.2005    1.0088   -1.9225 H   0  0  0  0  0  0  0  0  0  0  0  0
    4.1662    1.6996   -0.1042 H   0  0  0  0  0  0  0  0  0  0  0  0
    3.7976    2.8394   -2.9390 H   0  0  0  0  0  0  0  0  0  0  0  0
    5.3103    2.8506   -2.0244 H   0  0  0  0  0  0  0  0  0  0  0  0
    4.5986    1.3119   -2.5454 H   0  0  0  0  0  0  0  0  0  0  0  0
    4.2971    4.2399    0.2657 N   0  0  0  0  0  0  0  0  0  0  0  0
    4.2129    5.5700    0.8222 C   0  0  0  0  0  0  0  0  0  0  0  0
    5.1723    3.7357    0.3733 H   0  0  0  0  0  0  0  0  0  0  0  0
    4.5301    6.3047    0.0675 H   0  0  0  0  0  0  0  0  0  0  0  0
    3.1748    5.7770    1.1216 H   0  0  0  0  0  0  0  0  0  0  0  0
    4.8693    5.6415    1.7020 H   0  0  0  0  0  0  0  0  0  0  0  0
 23 25  2  0  0  0  0
 22 23  1  0  0  0  0
 24 26  1  0  0  0  0
 22 24  2  0  0  0  0
 25 27  1  0  0  0  0
 26 27  2  0  0  0  0
 21 22  1  0  0  0  0
 27 28  1  0  0  0  0
  1  3  1  0  0  0  0
  1  7  1  0  0  0  0
  1  2  2  0  0  0  0
 39 40  1  0  0  0  0
 40 48  1  0  0  0  0
 40 41  2  0  0  0  0
  8  9  1  0  0  0  0
  9 17  1  0  0  0  0
  9 10  2  0  0  0  0
 18 19  1  0  0  0  0
 19 38  1  0  0  0  0
 19 20  2  0  0  0  0
 39 42  1  0  0  0  0
  8 11  1  0  0  0  0
 48 49  1  0  0  0  0
 18 21  1  0  0  0  0
 38 39  1  0  0  0  0
  7  8  1  0  0  0  0
 17 18  1  0  0  0  0
 23 33  1  0  0  0  0
 24 34  1  0  0  0  0
 25 35  1  0  0  0  0
 26 36  1  0  0  0  0
  3  4  1  0  0  0  0
  3  5  1  0  0  0  0
  3  6  1  0  0  0  0
 42 45  1  0  0  0  0
 42 46  1  0  0  0  0
 42 47  1  0  0  0  0
 11 14  1  0  0  0  0
 11 15  1  0  0  0  0
 11 16  1  0  0  0  0
 49 51  1  0  0  0  0
 49 52  1  0  0  0  0
 49 53  1  0  0  0  0
 21 31  1  0  0  0  0
 21 32  1  0  0  0  0
 39 44  1  0  0  0  0
  8 13  1  0  0  0  0
 18 30  1  0  0  0  0
 48 50  1  0  0  0  0
  7 12  1  0  0  0  0
 38 43  1  0  0  0  0
 17 29  1  0  0  0  0
 28 37  1  0  0  0  0
M  END
$$$$

  -OEChem-05262214473D

 53 53  0     1  0  0  0  0  0999 V2000
   -1.9298    0.2574    3.9747 C   0  0  0  0  0  0  0  0  0  0  0  0
   -0.9825   -0.3573    3.4990 O   0  0  0  0  0  0  0  0  0  0  0  0
   -2.3617   -0.0250    5.3754 C   0  0  0  0  0  0  0  0  0  0  0  0
   -3.1214   -0.8213    5.4288 H   0  0  0  0  0  0  0  0  0  0  0  0
   -1.5305   -0.3726    6.0097 H   0  0  0  0  0  0  0  0  0  0  0  0
   -2.7997    0.8299    5.9150 H   0  0  0  0  0  0  0  0  0  0  0  0
   -2.6795    1.2298    3.3336 N   0  0  0  0  0  0  0  0  0  0  0  0
   -2.4327    1.6559    1.9812 C   0  0  2  0  0  0  0  0  0  0  0  0
   -1.0977    1.0705    1.5400 C   0  0  0  0  0  0  0  0  0  0  0  0
   -0.2256    0.7177    2.3313 O   0  0  0  0  0  0  0  0  0  0  0  0
   -2.4239    3.1726    1.8718 C   0  0  0  0  0  0  0  0  0  0  0  0
   -3.4446    1.6657    3.8454 H   0  0  0  0  0  0  0  0  0  0  0  0
   -3.2368    1.2374    1.3661 H   0  0  0  0  0  0  0  0  0  0  0  0
   -1.6248    3.6099    2.4815 H   0  0  0  0  0  0  0  0  0  0  0  0
   -2.2644    3.4949    0.8375 H   0  0  0  0  0  0  0  0  0  0  0  0
   -3.3741    3.5939    2.2175 H   0  0  0  0  0  0  0  0  0  0  0  0
   -0.9750    1.0274    0.1566 N   0  0  0  0  0  0  0  0  0  0  0  0
    0.2023    0.5266   -0.5070 C   0  0  2  0  0  0  0  0  0  0  0  0
    1.3746    1.3928   -0.0604 C   0  0  0  0  0  0  0  0  0  0  0  0
    1.5840    1.6804    1.1162 O   0  0  0  0  0  0  0  0  0  0  0  0
    0.0653    0.5612   -2.0335 C   0  0  0  0  0  0  0  0  0  0  0  0
   -0.9795   -0.3989   -2.5476 C   0  0  0  0  0  0  0  0  0  0  0  0
   -0.6696   -1.7501   -2.7020 C   0  0  0  0  0  0  0  0  0  0  0  0
   -2.2550    0.0653   -2.8691 C   0  0  0  0  0  0  0  0  0  0  0  0
   -1.6352   -2.6372   -3.1777 C   0  0  0  0  0  0  0  0  0  0  0  0
   -3.2206   -0.8218   -3.3449 C   0  0  0  0  0  0  0  0  0  0  0  0
   -2.9107   -2.1731   -3.4992 C   0  0  0  0  0  0  0  0  0  0  0  0
   -3.8523   -3.0387   -3.9646 O   0  0  0  0  0  0  0  0  0  0  0  0
   -1.7582    1.3241   -0.4207 H   0  0  0  0  0  0  0  0  0  0  0  0
    0.3537   -0.4969   -0.1445 H   0  0  0  0  0  0  0  0  0  0  0  0
    1.0321    0.3434   -2.5072 H   0  0  0  0  0  0  0  0  0  0  0  0
   -0.2000    1.5715   -2.3720 H   0  0  0  0  0  0  0  0  0  0  0  0
    0.3215   -2.1204   -2.4539 H   0  0  0  0  0  0  0  0  0  0  0  0
   -2.5055    1.1165   -2.7519 H   0  0  0  0  0  0  0  0  0  0  0  0
   -1.3876   -3.6888   -3.2961 H   0  0  0  0  0  0  0  0  0  0  0  0
   -4.2121   -0.4541   -3.5938 H   0  0  0  0  0  0  0  0  0  0  0  0
   -4.6827   -2.5687   -4.1422 H   0  0  0  0  0  0  0  0  0  0  0  0
    2.1834    1.7622   -1.1261 N   0  0  0  0  0  0  0  0  0  0  0  0
    3.3757    2.5652   -0.9765 C   0  0  2  0  0  0  0  0  0  0  0  0
    3.0159    3.7915   -0.1481 C   0  0  0  0  0  0  0  0  0  0  0  0
    1.8682    4.2201   -0.0479 O   0  0  0  0  0  0  0  0  0  0  0  0
    3.9437    2.9696   -2.3280 C   0  0  0  0  0  0  0  0  0  0  0  0
    1.9243    1.4526   -2.0582 H   0  0  0  0  0  0  0  0  0  0  0  0
    4.1018    1.9542   -0.4291 H   0  0  0  0  0  0  0  0  0  0  0  0
    3.2302    3.5824   -2.8910 H   0  0  0  0  0  0  0  0  0  0  0  0
    4.8627    3.5538   -2.2134 H   0  0  0  0  0  0  0  0  0  0  0  0
    4.1741    2.0867   -2.9339 H   0  0  0  0  0  0  0  0  0  0  0  0
    4.1334    4.3763    0.4310 N   0  0  0  0  0  0  0  0  0  0  0  0
    4.0553    5.5604    1.2542 C   0  0  0  0  0  0  0  0  0  0  0  0
    5.0438    3.9423    0.3101 H   0  0  0  0  0  0  0  0  0  0  0  0
    4.2066    6.4529    0.6292 H   0  0  0  0  0  0  0  0  0  0  0  0
    3.0654    5.6106    1.7313 H   0  0  0  0  0  0  0  0  0  0  0  0
    4.8344    5.5198    2.0297 H   0  0  0  0  0  0  0  0  0  0  0  0
 23 25  2  0  0  0  0
 22 23  1  0  0  0  0
 24 26  1  0  0  0  0
 22 24  2  0  0  0  0
 25 27  1  0  0  0  0
 26 27  2  0  0  0  0
 21 22  1  0  0  0  0
 27 28  1  0  0  0  0
  1  3  1  0  0  0  0
  1  7  1  0  0  0  0
  1  2  2  0  0  0  0
 39 40  1  0  0  0  0
 40 48  1  0  0  0  0
 40 41  2  0  0  0  0
  8  9  1  0  0  0  0
  9 17  1  0  0  0  0
  9 10  2  0  0  0  0
 18 19  1  0  0  0  0
 19 38  1  0  0  0  0
 19 20  2  0  0  0  0
 39 42  1  0  0  0  0
  8 11  1  0  0  0  0
 48 49  1  0  0  0  0
 18 21  1  0  0  0  0
 38 39  1  0  0  0  0
  7  8  1  0  0  0  0
 17 18  1  0  0  0  0
 23 33  1  0  0  0  0
 24 34  1  0  0  0  0
 25 35  1  0  0  0  0
 26 36  1  0  0  0  0
  3  4  1  0  0  0  0
  3  5  1  0  0  0  0
  3  6  1  0  0  0  0
 42 45  1  0  0  0  0
 42 46  1  0  0  0  0
 42 47  1  0  0  0  0
 11 14  1  0  0  0  0
 11 15  1  0  0  0  0
 11 16  1  0  0  0  0
 49 51  1  0  0  0  0
 49 52  1  0  0  0  0
 49 53  1  0  0  0  0
 21 31  1  0  0  0  0
 21 32  1  0  0  0  0
 39 44  1  0  0  0  0
  8 13  1  0  0  0  0
 18 30  1  0  0  0  0
 48 50  1  0  0  0  0
  7 12  1  0  0  0  0
 38 43  1  0  0  0  0
 17 29  1  0  0  0  0
 28 37  1  0  0  0  0
M  END
$$$$

  -OEChem-05262214473D

 53 53  0     1  0  0  0  0  0999 V2000
   -1.9298    0.2574    3.9747 C   0  0  0  0  0  0  0  0  0  0  0  0
   -0.9825   -0.3573    3.4990 O   0  0  0  0  0  0  0  0  0  0  0  0
   -2.3617   -0.0250    5.3754 C   0  0  0  0  0  0  0  0  0  0  0  0
   -3.1214   -0.8213    5.4288 H   0  0  0  0  0  0  0  0  0  0  0  0
   -1.5305   -0.3726    6.0097 H   0  0  0  0  0  0  0  0  0  0  0  0
   -2.7997    0.8299    5.9150 H   0  0  0  0  0  0  0  0  0  0  0  0
   -2.6795    1.2298    3.3336 N   0  0  0  0  0  0  0  0  0  0  0  0
   -2.4327    1.6559    1.9812 C   0  0  2  0  0  0  0  0  0  0  0  0
   -1.0977    1.0705    1.5400 C   0  0  0  0  0  0  0  0  0  0  0  0
   -0.2256    0.7177    2.3313 O   0  0  0  0  0  0  0  0  0  0  0  0
   -2.4239    3.1726    1.8718 C   0  0  0  0  0  0  0  0  0  0  0  0
   -3.4446    1.6657    3.8454 H   0  0  0  0  0  0  0  0  0  0  0  0
   -3.2368    1.2374    1.3661 H   0  0  0  0  0  0  0  0  0  0  0  0
   -1.6248    3.6099    2.4815 H   0  0  0  0  0  0  0  0  0  0  0  0
   -2.2644    3.4949    0.8375 H   0  0  0  0  0  0  0  0  0  0  0  0
   -3.3741    3.5939    2.2175 H   0  0  0  0  0  0  0  0  0  0  0  0
   -0.9750    1.0274    0.1566 N   0  0  0  0  0  0  0  0  0  0  0  0
    0.2023    0.5266   -0.5070 C   0  0  2  0  0  0  0  0  0  0  0  0
    1.3746    1.3928   -0.0604 C   0  0  0  0  0  0  0  0  0  0  0  0
    1.7456    1.4652    1.1093 O   0  0  0  0  0  0  0  0  0  0  0  0
    0.0653    0.5612   -2.0335 C   0  0  0  0  0  0  0  0  0  0  0  0
   -0.9795   -0.3989   -2.5476 C   0  0  0  0  0  0  0  0  0  0  0  0
   -0.6696   -1.7501   -2.7020 C   0  0  0  0  0  0  0  0  0  0  0  0
   -2.2550    0.0653   -2.8691 C   0  0  0  0  0  0  0  0  0  0  0  0
   -1.6352   -2.6372   -3.1777 C   0  0  0  0  0  0  0  0  0  0  0  0
   -3.2206   -0.8218   -3.3449 C   0  0  0  0  0  0  0  0  0  0  0  0
   -2.9107   -2.1731   -3.4992 C   0  0  0  0  0  0  0  0  0  0  0  0
   -3.8523   -3.0387   -3.9646 O   0  0  0  0  0  0  0  0  0  0  0  0
   -1.7582    1.3241   -0.4207 H   0  0  0  0  0  0  0  0  0  0  0  0
    0.3537   -0.4969   -0.1445 H   0  0  0  0  0  0  0  0  0  0  0  0
    1.0321    0.3434   -2.5072 H   0  0  0  0  0  0  0  0  0  0  0  0
   -0.2000    1.5715   -2.3720 H   0  0  0  0  0  0  0  0  0  0  0  0
    0.3215   -2.1204   -2.4539 H   0  0  0  0  0  0  0  0  0  0  0  0
   -2.5055    1.1165   -2.7519 H   0  0  0  0  0  0  0  0  0  0  0  0
   -1.3876   -3.6888   -3.2961 H   0  0  0  0  0  0  0  0  0  0  0  0
   -4.2121   -0.4541   -3.5938 H   0  0  0  0  0  0  0  0  0  0  0  0
   -4.6827   -2.5687   -4.1422 H   0  0  0  0  0  0  0  0  0  0  0  0
    1.9847    2.0331   -1.1300 N   0  0  0  0  0  0  0  0  0  0  0  0
    3.1347    2.8968   -0.9868 C   0  0  2  0  0  0  0  0  0  0  0  0
    2.8333    3.9020    0.1169 C   0  0  0  0  0  0  0  0  0  0  0  0
    1.6909    4.1972    0.4617 O   0  0  0  0  0  0  0  0  0  0  0  0
    3.4610    3.6047   -2.2926 C   0  0  0  0  0  0  0  0  0  0  0  0
    1.6038    1.8874   -2.0603 H   0  0  0  0  0  0  0  0  0  0  0  0
    3.9726    2.2600   -0.6828 H   0  0  0  0  0  0  0  0  0  0  0  0
    2.6330    4.2475   -2.6132 H   0  0  0  0  0  0  0  0  0  0  0  0
    4.3493    4.2366   -2.1901 H   0  0  0  0  0  0  0  0  0  0  0  0
    3.6482    2.8803   -3.0925 H   0  0  0  0  0  0  0  0  0  0  0  0
    3.9892    4.4627    0.6419 N   0  0  0  0  0  0  0  0  0  0  0  0
    3.9674    5.4533    1.6928 C   0  0  0  0  0  0  0  0  0  0  0  0
    4.8946    4.1447    0.3091 H   0  0  0  0  0  0  0  0  0  0  0  0
    3.9655    6.4597    1.2488 H   0  0  0  0  0  0  0  0  0  0  0  0
    3.0620    5.3202    2.3032 H   0  0  0  0  0  0  0  0  0  0  0  0
    4.8581    5.3343    2.3272 H   0  0  0  0  0  0  0  0  0  0  0  0
 23 25  2  0  0  0  0
 22 23  1  0  0  0  0
 24 26  1  0  0  0  0
 22 24  2  0  0  0  0
 25 27  1  0  0  0  0
 26 27  2  0  0  0  0
 21 22  1  0  0  0  0
 27 28  1  0  0  0  0
  1  3  1  0  0  0  0
  1  7  1  0  0  0  0
  1  2  2  0  0  0  0
 39 40  1  0  0  0  0
 40 48  1  0  0  0  0
 40 41  2  0  0  0  0
  8  9  1  0  0  0  0
  9 17  1  0  0  0  0
  9 10  2  0  0  0  0
 18 19  1  0  0  0  0
 19 38  1  0  0  0  0
 19 20  2  0  0  0  0
 39 42  1  0  0  0  0
  8 11  1  0  0  0  0
 48 49  1  0  0  0  0
 18 21  1  0  0  0  0
 38 39  1  0  0  0  0
  7  8  1  0  0  0  0
 17 18  1  0  0  0  0
 23 33  1  0  0  0  0
 24 34  1  0  0  0  0
 25 35  1  0  0  0  0
 26 36  1  0  0  0  0
  3  4  1  0  0  0  0
  3  5  1  0  0  0  0
  3  6  1  0  0  0  0
 42 45  1  0  0  0  0
 42 46  1  0  0  0  0
 42 47  1  0  0  0  0
 11 14  1  0  0  0  0
 11 15  1  0  0  0  0
 11 16  1  0  0  0  0
 49 51  1  0  0  0  0
 49 52  1  0  0  0  0
 49 53  1  0  0  0  0
 21 31  1  0  0  0  0
 21 32  1  0  0  0  0
 39 44  1  0  0  0  0
  8 13  1  0  0  0  0
 18 30  1  0  0  0  0
 48 50  1  0  0  0  0
  7 12  1  0  0  0  0
 38 43  1  0  0  0  0
 17 29  1  0  0  0  0
 28 37  1  0  0  0  0
M  END
$$$$

  -OEChem-05262214473D

 53 53  0     1  0  0  0  0  0999 V2000
   -1.9298    0.2574    3.9747 C   0  0  0  0  0  0  0  0  0  0  0  0
   -0.9825   -0.3573    3.4990 O   0  0  0  0  0  0  0  0  0  0  0  0
   -2.3617   -0.0250    5.3754 C   0  0  0  0  0  0  0  0  0  0  0  0
   -3.1214   -0.8213    5.4288 H   0  0  0  0  0  0  0  0  0  0  0  0
   -1.5305   -0.3726    6.0097 H   0  0  0  0  0  0  0  0  0  0  0  0
   -2.7997    0.8299    5.9150 H   0  0  0  0  0  0  0  0  0  0  0  0
   -2.6795    1.2298    3.3336 N   0  0  0  0  0  0  0  0  0  0  0  0
   -2.4327    1.6559    1.9812 C   0  0  2  0  0  0  0  0  0  0  0  0
   -1.0977    1.0705    1.5400 C   0  0  0  0  0  0  0  0  0  0  0  0
   -0.2256    0.7177    2.3313 O   0  0  0  0  0  0  0  0  0  0  0  0
   -2.4239    3.1726    1.8718 C   0  0  0  0  0  0  0  0  0  0  0  0
   -3.4446    1.6657    3.8454 H   0  0  0  0  0  0  0  0  0  0  0  0
   -3.2368    1.2374    1.3661 H   0  0  0  0  0  0  0  0  0  0  0  0
   -1.6248    3.6099    2.4815 H   0  0  0  0  0  0  0  0  0  0  0  0
   -2.2644    3.4949    0.8375 H   0  0  0  0  0  0  0  0  0  0  0  0
   -3.3741    3.5939    2.2175 H   0  0  0  0  0  0  0  0  0  0  0  0
   -0.9750    1.0274    0.1566 N   0  0  0  0  0  0  0  0  0  0  0  0
    0.2023    0.5266   -0.5070 C   0  0  2  0  0  0  0  0  0  0  0  0
    1.3746    1.3928   -0.0604 C   0  0  0  0  0  0  0  0  0  0  0  0
    1.9170    1.2710    1.0360 O   0  0  0  0  0  0  0  0  0  0  0  0
    0.0653    0.5612   -2.0335 C   0  0  0  0  0  0  0  0  0  0  0  0
   -0.9795   -0.3989   -2.5476 C   0  0  0  0  0  0  0  0  0  0  0  0
   -0.6696   -1.7501   -2.7020 C   0  0  0  0  0  0  0  0  0  0  0  0
   -2.2550    0.0653   -2.8691 C   0  0  0  0  0  0  0  0  0  0  0  0
   -1.6352   -2.6372   -3.1777 C   0  0  0  0  0  0  0  0  0  0  0  0
   -3.2206   -0.8218   -3.3449 C   0  0  0  0  0  0  0  0  0  0  0  0
   -2.9107   -2.1731   -3.4992 C   0  0  0  0  0  0  0  0  0  0  0  0
   -3.8523   -3.0387   -3.9646 O   0  0  0  0  0  0  0  0  0  0  0  0
   -1.7582    1.3241   -0.4207 H   0  0  0  0  0  0  0  0  0  0  0  0
    0.3537   -0.4969   -0.1445 H   0  0  0  0  0  0  0  0  0  0  0  0
    1.0321    0.3434   -2.5072 H   0  0  0  0  0  0  0  0  0  0  0  0
   -0.2000    1.5715   -2.3720 H   0  0  0  0  0  0  0  0  0  0  0  0
    0.3215   -2.1204   -2.4539 H   0  0  0  0  0  0  0  0  0  0  0  0
   -2.5055    1.1165   -2.7519 H   0  0  0  0  0  0  0  0  0  0  0  0
   -1.3876   -3.6888   -3.2961 H   0  0  0  0  0  0  0  0  0  0  0  0
   -4.2121   -0.4541   -3.5938 H   0  0  0  0  0  0  0  0  0  0  0  0
   -4.6827   -2.5687   -4.1422 H   0  0  0  0  0  0  0  0  0  0  0  0
    1.7717    2.2805   -1.0507 N   0  0  0  0  0  0  0  0  0  0  0  0
    2.8751    3.2009   -0.8954 C   0  0  2  0  0  0  0  0  0  0  0  0
    2.6875    3.9422    0.4217 C   0  0  0  0  0  0  0  0  0  0  0  0
    1.5964    4.0603    0.9754 O   0  0  0  0  0  0  0  0  0  0  0  0
    2.9517    4.1746   -2.0611 C   0  0  0  0  0  0  0  0  0  0  0  0
    1.2611    2.2835   -1.9287 H   0  0  0  0  0  0  0  0  0  0  0  0
    3.7872    2.5960   -0.8480 H   0  0  0  0  0  0  0  0  0  0  0  0
    2.0465    4.7894   -2.1247 H   0  0  0  0  0  0  0  0  0  0  0  0
    3.8051    4.8527   -1.9562 H   0  0  0  0  0  0  0  0  0  0  0  0
    3.0568    3.6385   -3.0105 H   0  0  0  0  0  0  0  0  0  0  0  0
    3.8743    4.4933    0.8841 N   0  0  0  0  0  0  0  0  0  0  0  0
    3.9551    5.2558    2.1080 C   0  0  0  0  0  0  0  0  0  0  0  0
    4.7350    4.3291    0.3703 H   0  0  0  0  0  0  0  0  0  0  0  0
    3.8232    6.3247    1.8841 H   0  0  0  0  0  0  0  0  0  0  0  0
    3.1649    4.9257    2.7984 H   0  0  0  0  0  0  0  0  0  0  0  0
    4.9388    5.0977    2.5741 H   0  0  0  0  0  0  0  0  0  0  0  0
 23 25  2  0  0  0  0
 22 23  1  0  0  0  0
 24 26  1  0  0  0  0
 22 24  2  0  0  0  0
 25 27  1  0  0  0  0
 26 27  2  0  0  0  0
 21 22  1  0  0  0  0
 27 28  1  0  0  0  0
  1  3  1  0  0  0  0
  1  7  1  0  0  0  0
  1  2  2  0  0  0  0
 39 40  1  0  0  0  0
 40 48  1  0  0  0  0
 40 41  2  0  0  0  0
  8  9  1  0  0  0  0
  9 17  1  0  0  0  0
  9 10  2  0  0  0  0
 18 19  1  0  0  0  0
 19 38  1  0  0  0  0
 19 20  2  0  0  0  0
 39 42  1  0  0  0  0
  8 11  1  0  0  0  0
 48 49  1  0  0  0  0
 18 21  1  0  0  0  0
 38 39  1  0  0  0  0
  7  8  1  0  0  0  0
 17 18  1  0  0  0  0
 23 33  1  0  0  0  0
 24 34  1  0  0  0  0
 25 35  1  0  0  0  0
 26 36  1  0  0  0  0
  3  4  1  0  0  0  0
  3  5  1  0  0  0  0
  3  6  1  0  0  0  0
 42 45  1  0  0  0  0
 42 46  1  0  0  0  0
 42 47  1  0  0  0  0
 11 14  1  0  0  0  0
 11 15  1  0  0  0  0
 11 16  1  0  0  0  0
 49 51  1  0  0  0  0
 49 52  1  0  0  0  0
 49 53  1  0  0  0  0
 21 31  1  0  0  0  0
 21 32  1  0  0  0  0
 39 44  1  0  0  0  0
  8 13  1  0  0  0  0
 18 30  1  0  0  0  0
 48 50  1  0  0  0  0
  7 12  1  0  0  0  0
 38 43  1  0  0  0  0
 17 29  1  0  0  0  0
 28 37  1  0  0  0  0
M  END
$$$$

  -OEChem-05262214473D

 53 53  0     1  0  0  0  0  0999 V2000
   -1.9298    0.2574    3.9747 C   0  0  0  0  0  0  0  0  0  0  0  0
   -0.9825   -0.3573    3.4990 O   0  0  0  0  0  0  0  0  0  0  0  0
   -2.3617   -0.0250    5.3754 C   0  0  0  0  0  0  0  0  0  0  0  0
   -3.1214   -0.8213    5.4288 H   0  0  0  0  0  0  0  0  0  0  0  0
   -1.5305   -0.3726    6.0097 H   0  0  0  0  0  0  0  0  0  0  0  0
   -2.7997    0.8299    5.9150 H   0  0  0  0  0  0  0  0  0  0  0  0
   -2.6795    1.2298    3.3336 N   0  0  0  0  0  0  0  0  0  0  0  0
   -2.4327    1.6559    1.9812 C   0  0  2  0  0  0  0  0  0  0  0  0
   -1.0977    1.0705    1.5400 C   0  0  0  0  0  0  0  0  0  0  0  0
   -0.2256    0.7177    2.3313 O   0  0  0  0  0  0  0  0  0  0  0  0
   -2.4239    3.1726    1.8718 C   0  0  0  0  0  0  0  0  0  0  0  0
   -3.4446    1.6657    3.8454 H   0  0  0  0  0  0  0  0  0  0  0  0
   -3.2368    1.2374    1.3661 H   0  0  0  0  0  0  0  0  0  0  0  0
   -1.6248    3.6099    2.4815 H   0  0  0  0  0  0  0  0  0  0  0  0
   -2.2644    3.4949    0.8375 H   0  0  0  0  0  0  0  0  0  0  0  0
   -3.3741    3.5939    2.2175 H   0  0  0  0  0  0  0  0  0  0  0  0
   -0.9750    1.0274    0.1566 N   0  0  0  0  0  0  0  0  0  0  0  0
    0.2023    0.5266   -0.5070 C   0  0  2  0  0  0  0  0  0  0  0  0
    1.3746    1.3928   -0.0604 C   0  0  0  0  0  0  0  0  0  0  0  0
    2.0865    1.1111    0.9013 O   0  0  0  0  0  0  0  0  0  0  0  0
    0.0653    0.5612   -2.0335 C   0  0  0  0  0  0  0  0  0  0  0  0
   -0.9795   -0.3989   -2.5476 C   0  0  0  0  0  0  0  0  0  0  0  0
   -0.6696   -1.7501   -2.7020 C   0  0  0  0  0  0  0  0  0  0  0  0
   -2.2550    0.0653   -2.8691 C   0  0  0  0  0  0  0  0  0  0  0  0
   -1.6352   -2.6372   -3.1777 C   0  0  0  0  0  0  0  0  0  0  0  0
   -3.2206   -0.8218   -3.3449 C   0  0  0  0  0  0  0  0  0  0  0  0
   -2.9107   -2.1731   -3.4992 C   0  0  0  0  0  0  0  0  0  0  0  0
   -3.8523   -3.0387   -3.9646 O   0  0  0  0  0  0  0  0  0  0  0  0
   -1.7582    1.3241   -0.4207 H   0  0  0  0  0  0  0  0  0  0  0  0
    0.3537   -0.4969   -0.1445 H   0  0  0  0  0  0  0  0  0  0  0  0
    1.0321    0.3434   -2.5072 H   0  0  0  0  0  0  0  0  0  0  0  0
   -0.2000    1.5715   -2.3720 H   0  0  0  0  0  0  0  0  0  0  0  0
    0.3215   -2.1204   -2.4539 H   0  0  0  0  0  0  0  0  0  0  0  0
   -2.5055    1.1165   -2.7519 H   0  0  0  0  0  0  0  0  0  0  0  0
   -1.3876   -3.6888   -3.2961 H   0  0  0  0  0  0  0  0  0  0  0  0
   -4.2121   -0.4541   -3.5938 H   0  0  0  0  0  0  0  0  0  0  0  0
   -4.6827   -2.5687   -4.1422 H   0  0  0  0  0  0  0  0  0  0  0  0
    1.5588    2.4875   -0.8934 N   0  0  0  0  0  0  0  0  0  0  0  0
    2.6148    3.4568   -0.7084 C   0  0  2  0  0  0  0  0  0  0  0  0
    2.5884    3.9093    0.7456 C   0  0  0  0  0  0  0  0  0  0  0  0
    1.5910    3.8186    1.4583 O   0  0  0  0  0  0  0  0  0  0  0  0
    2.4507    4.6403   -1.6491 C   0  0  0  0  0  0  0  0  0  0  0  0
    0.9193    2.6139   -1.6724 H   0  0  0  0  0  0  0  0  0  0  0  0
    3.5584    2.9394   -0.9134 H   0  0  0  0  0  0  0  0  0  0  0  0
    1.5107    5.1712   -1.4587 H   0  0  0  0  0  0  0  0  0  0  0  0
    3.2670    5.3599   -1.5277 H   0  0  0  0  0  0  0  0  0  0  0  0
    2.4400    4.3097   -2.6933 H   0  0  0  0  0  0  0  0  0  0  0  0
    3.7967    4.4659    1.1409 N   0  0  0  0  0  0  0  0  0  0  0  0
    4.0193    4.9815    2.4716 C   0  0  0  0  0  0  0  0  0  0  0  0
    4.5759    4.4829    0.4896 H   0  0  0  0  0  0  0  0  0  0  0  0
    3.7894    6.0570    2.4919 H   0  0  0  0  0  0  0  0  0  0  0  0
    3.3670    4.4538    3.1830 H   0  0  0  0  0  0  0  0  0  0  0  0
    5.0711    4.8261    2.7537 H   0  0  0  0  0  0  0  0  0  0  0  0
 23 25  2  0  0  0  0
 22 23  1  0  0  0  0
 24 26  1  0  0  0  0
 22 24  2  0  0  0  0
 25 27  1  0  0  0  0
 26 27  2  0  0  0  0
 21 22  1  0  0  0  0
 27 28  1  0  0  0  0
  1  3  1  0  0  0  0
  1  7  1  0  0  0  0
  1  2  2  0  0  0  0
 39 40  1  0  0  0  0
 40 48  1  0  0  0  0
 40 41  2  0  0  0  0
  8  9  1  0  0  0  0
  9 17  1  0  0  0  0
  9 10  2  0  0  0  0
 18 19  1  0  0  0  0
 19 38  1  0  0  0  0
 19 20  2  0  0  0  0
 39 42  1  0  0  0  0
  8 11  1  0  0  0  0
 48 49  1  0  0  0  0
 18 21  1  0  0  0  0
 38 39  1  0  0  0  0
  7  8  1  0  0  0  0
 17 18  1  0  0  0  0
 23 33  1  0  0  0  0
 24 34  1  0  0  0  0
 25 35  1  0  0  0  0
 26 36  1  0  0  0  0
  3  4  1  0  0  0  0
  3  5  1  0  0  0  0
  3  6  1  0  0  0  0
 42 45  1  0  0  0  0
 42 46  1  0  0  0  0
 42 47  1  0  0  0  0
 11 14  1  0  0  0  0
 11 15  1  0  0  0  0
 11 16  1  0  0  0  0
 49 51  1  0  0  0  0
 49 52  1  0  0  0  0
 49 53  1  0  0  0  0
 21 31  1  0  0  0  0
 21 32  1  0  0  0  0
 39 44  1  0  0  0  0
  8 13  1  0  0  0  0
 18 30  1  0  0  0  0
 48 50  1  0  0  0  0
  7 12  1  0  0  0  0
 38 43  1  0  0  0  0
 17 29  1  0  0  0  0
 28 37  1  0  0  0  0
M  END
$$$$

  -OEChem-05262214473D

 53 53  0     1  0  0  0  0  0999 V2000
   -1.9298    0.2574    3.9747 C   0  0  0  0  0  0  0  0  0  0  0  0
   -0.9825   -0.3573    3.4990 O   0  0  0  0  0  0  0  0  0  0  0  0
   -2.3617   -0.0250    5.3754 C   0  0  0  0  0  0  0  0  0  0  0  0
   -3.1214   -0.8213    5.4288 H   0  0  0  0  0  0  0  0  0  0  0  0
   -1.5305   -0.3726    6.0097 H   0  0  0  0  0  0  0  0  0  0  0  0
   -2.7997    0.8299    5.9150 H   0  0  0  0  0  0  0  0  0  0  0  0
   -2.6795    1.2298    3.3336 N   0  0  0  0  0  0  0  0  0  0  0  0
   -2.4327    1.6559    1.9812 C   0  0  2  0  0  0  0  0  0  0  0  0
   -1.0977    1.0705    1.5400 C   0  0  0  0  0  0  0  0  0  0  0  0
   -0.2256    0.7177    2.3313 O   0  0  0  0  0  0  0  0  0  0  0  0
   -2.4239    3.1726    1.8718 C   0  0  0  0  0  0  0  0  0  0  0  0
   -3.4446    1.6657    3.8454 H   0  0  0  0  0  0  0  0  0  0  0  0
   -3.2368    1.2374    1.3661 H   0  0  0  0  0  0  0  0  0  0  0  0
   -1.6248    3.6099    2.4815 H   0  0  0  0  0  0  0  0  0  0  0  0
   -2.2644    3.4949    0.8375 H   0  0  0  0  0  0  0  0  0  0  0  0
   -3.3741    3.5939    2.2175 H   0  0  0  0  0  0  0  0  0  0  0  0
   -0.9750    1.0274    0.1566 N   0  0  0  0  0  0  0  0  0  0  0  0
    0.2023    0.5266   -0.5070 C   0  0  2  0  0  0  0  0  0  0  0  0
    1.3746    1.3928   -0.0604 C   0  0  0  0  0  0  0  0  0  0  0  0
    2.2425    0.9962    0.7145 O   0  0  0  0  0  0  0  0  0  0  0  0
    0.0653    0.5612   -2.0335 C   0  0  0  0  0  0  0  0  0  0  0  0
   -0.9795   -0.3989   -2.5476 C   0  0  0  0  0  0  0  0  0  0  0  0
   -0.6696   -1.7501   -2.7020 C   0  0  0  0  0  0  0  0  0  0  0  0
   -2.2550    0.0653   -2.8691 C   0  0  0  0  0  0  0  0  0  0  0  0
   -1.6352   -2.6372   -3.1777 C   0  0  0  0  0  0  0  0  0  0  0  0
   -3.2206   -0.8218   -3.3449 C   0  0  0  0  0  0  0  0  0  0  0  0
   -2.9107   -2.1731   -3.4992 C   0  0  0  0  0  0  0  0  0  0  0  0
   -3.8523   -3.0387   -3.9646 O   0  0  0  0  0  0  0  0  0  0  0  0
   -1.7582    1.3241   -0.4207 H   0  0  0  0  0  0  0  0  0  0  0  0
    0.3537   -0.4969   -0.1445 H   0  0  0  0  0  0  0  0  0  0  0  0
    1.0321    0.3434   -2.5072 H   0  0  0  0  0  0  0  0  0  0  0  0
   -0.2000    1.5715   -2.3720 H   0  0  0  0  0  0  0  0  0  0  0  0
    0.3215   -2.1204   -2.4539 H   0  0  0  0  0  0  0  0  0  0  0  0
   -2.5055    1.1165   -2.7519 H   0  0  0  0  0  0  0  0  0  0  0  0
   -1.3876   -3.6888   -3.2961 H   0  0  0  0  0  0  0  0  0  0  0  0
   -4.2121   -0.4541   -3.5938 H   0  0  0  0  0  0  0  0  0  0  0  0
   -4.6827   -2.5687   -4.1422 H   0  0  0  0  0  0  0  0  0  0  0  0
    1.3606    2.6401   -0.6691 N   0  0  0  0  0  0  0  0  0  0  0  0
    2.3715    3.6469   -0.4386 C   0  0  2  0  0  0  0  0  0  0  0  0
    2.5429    3.8055    1.0664 C   0  0  0  0  0  0  0  0  0  0  0  0
    1.6751    3.4886    1.8774 O   0  0  0  0  0  0  0  0  0  0  0  0
    1.9919    4.9702   -1.0848 C   0  0  0  0  0  0  0  0  0  0  0  0
    0.6018    2.8561   -1.3087 H   0  0  0  0  0  0  0  0  0  0  0  0
    3.3018    3.2668   -0.8746 H   0  0  0  0  0  0  0  0  0  0  0  0
    1.0622    5.3667   -0.6607 H   0  0  0  0  0  0  0  0  0  0  0  0
    2.7719    5.7238   -0.9336 H   0  0  0  0  0  0  0  0  0  0  0  0
    1.8400    4.8481   -2.1627 H   0  0  0  0  0  0  0  0  0  0  0  0
    3.7616    4.3824    1.3950 N   0  0  0  0  0  0  0  0  0  0  0  0
    4.1555    4.6490    2.7587 C   0  0  0  0  0  0  0  0  0  0  0  0
    4.4281    4.5957    0.6588 H   0  0  0  0  0  0  0  0  0  0  0  0
    3.8664    5.6750    3.0306 H   0  0  0  0  0  0  0  0  0  0  0  0
    3.6546    3.9368    3.4309 H   0  0  0  0  0  0  0  0  0  0  0  0
    5.2458    4.5381    2.8537 H   0  0  0  0  0  0  0  0  0  0  0  0
 23 25  2  0  0  0  0
 22 23  1  0  0  0  0
 24 26  1  0  0  0  0
 22 24  2  0  0  0  0
 25 27  1  0  0  0  0
 26 27  2  0  0  0  0
 21 22  1  0  0  0  0
 27 28  1  0  0  0  0
  1  3  1  0  0  0  0
  1  7  1  0  0  0  0
  1  2  2  0  0  0  0
 39 40  1  0  0  0  0
 40 48  1  0  0  0  0
 40 41  2  0  0  0  0
  8  9  1  0  0  0  0
  9 17  1  0  0  0  0
  9 10  2  0  0  0  0
 18 19  1  0  0  0  0
 19 38  1  0  0  0  0
 19 20  2  0  0  0  0
 39 42  1  0  0  0  0
  8 11  1  0  0  0  0
 48 49  1  0  0  0  0
 18 21  1  0  0  0  0
 38 39  1  0  0  0  0
  7  8  1  0  0  0  0
 17 18  1  0  0  0  0
 23 33  1  0  0  0  0
 24 34  1  0  0  0  0
 25 35  1  0  0  0  0
 26 36  1  0  0  0  0
  3  4  1  0  0  0  0
  3  5  1  0  0  0  0
  3  6  1  0  0  0  0
 42 45  1  0  0  0  0
 42 46  1  0  0  0  0
 42 47  1  0  0  0  0
 11 14  1  0  0  0  0
 11 15  1  0  0  0  0
 11 16  1  0  0  0  0
 49 51  1  0  0  0  0
 49 52  1  0  0  0  0
 49 53  1  0  0  0  0
 21 31  1  0  0  0  0
 21 32  1  0  0  0  0
 39 44  1  0  0  0  0
  8 13  1  0  0  0  0
 18 30  1  0  0  0  0
 48 50  1  0  0  0  0
  7 12  1  0  0  0  0
 38 43  1  0  0  0  0
 17 29  1  0  0  0  0
 28 37  1  0  0  0  0
M  END
$$$$

  -OEChem-05262214473D

 53 53  0     1  0  0  0  0  0999 V2000
   -1.9298    0.2574    3.9747 C   0  0  0  0  0  0  0  0  0  0  0  0
   -0.9825   -0.3573    3.4990 O   0  0  0  0  0  0  0  0  0  0  0  0
   -2.3617   -0.0250    5.3754 C   0  0  0  0  0  0  0  0  0  0  0  0
   -3.1214   -0.8213    5.4288 H   0  0  0  0  0  0  0  0  0  0  0  0
   -1.5305   -0.3726    6.0097 H   0  0  0  0  0  0  0  0  0  0  0  0
   -2.7997    0.8299    5.9150 H   0  0  0  0  0  0  0  0  0  0  0  0
   -2.6795    1.2298    3.3336 N   0  0  0  0  0  0  0  0  0  0  0  0
   -2.4327    1.6559    1.9812 C   0  0  2  0  0  0  0  0  0  0  0  0
   -1.0977    1.0705    1.5400 C   0  0  0  0  0  0  0  0  0  0  0  0
   -0.2256    0.7177    2.3313 O   0  0  0  0  0  0  0  0  0  0  0  0
   -2.4239    3.1726    1.8718 C   0  0  0  0  0  0  0  0  0  0  0  0
   -3.4446    1.6657    3.8454 H   0  0  0  0  0  0  0  0  0  0  0  0
   -3.2368    1.2374    1.3661 H   0  0  0  0  0  0  0  0  0  0  0  0
   -1.6248    3.6099    2.4815 H   0  0  0  0  0  0  0  0  0  0  0  0
   -2.2644    3.4949    0.8375 H   0  0  0  0  0  0  0  0  0  0  0  0
   -3.3741    3.5939    2.2175 H   0  0  0  0  0  0  0  0  0  0  0  0
   -0.9750    1.0274    0.1566 N   0  0  0  0  0  0  0  0  0  0  0  0
    0.2023    0.5266   -0.5070 C   0  0  2  0  0  0  0  0  0  0  0  0
    1.3746    1.3928   -0.0604 C   0  0  0  0  0  0  0  0  0  0  0  0
    2.3745    0.9343    0.4882 O   0  0  0  0  0  0  0  0  0  0  0  0
    0.0653    0.5612   -2.0335 C   0  0  0  0  0  0  0  0  0  0  0  0
   -0.9795   -0.3989   -2.5476 C   0  0  0  0  0  0  0  0  0  0  0  0
   -0.6696   -1.7501   -2.7020 C   0  0  0  0  0  0  0  0  0  0  0  0
   -2.2550    0.0653   -2.8691 C   0  0  0  0  0  0  0  0  0  0  0  0
   -1.6352   -2.6372   -3.1777 C   0  0  0  0  0  0  0  0  0  0  0  0
   -3.2206   -0.8218   -3.3449 C   0  0  0  0  0  0  0  0  0  0  0  0
   -2.9107   -2.1731   -3.4992 C   0  0  0  0  0  0  0  0  0  0  0  0
   -3.8523   -3.0387   -3.9646 O   0  0  0  0  0  0  0  0  0  0  0  0
   -1.7582    1.3241   -0.4207 H   0  0  0  0  0  0  0  0  0  0  0  0
    0.3537   -0.4969   -0.1445 H   0  0  0  0  0  0  0  0  0  0  0  0
    1.0321    0.3434   -2.5072 H   0  0  0  0  0  0  0  0  0  0  0  0
   -0.2000    1.5715   -2.3720 H   0  0  0  0  0  0  0  0  0  0  0  0
    0.3215   -2.1204   -2.4539 H   0  0  0  0  0  0  0  0  0  0  0  0
   -2.5055    1.1165   -2.7519 H   0  0  0  0  0  0  0  0  0  0  0  0
   -1.3876   -3.6888   -3.2961 H   0  0  0  0  0  0  0  0  0  0  0  0
   -4.2121   -0.4541   -3.5938 H   0  0  0  0  0  0  0  0  0  0  0  0
   -4.6827   -2.5687   -4.1422 H   0  0  0  0  0  0  0  0  0  0  0  0
    1.1906    2.7277   -0.3928 N   0  0  0  0  0  0  0  0  0  0  0  0
    2.1617    3.7585   -0.1043 C   0  0  2  0  0  0  0  0  0  0  0  0
    2.5539    3.6379    1.3624 C   0  0  0  0  0  0  0  0  0  0  0  0
    1.8430    3.0928    2.2042 O   0  0  0  0  0  0  0  0  0  0  0  0
    1.6068    5.1417   -0.4066 C   0  0  0  0  0  0  0  0  0  0  0  0
    0.3302    2.9936   -0.8626 H   0  0  0  0  0  0  0  0  0  0  0  0
    3.0347    3.5558   -0.7342 H   0  0  0  0  0  0  0  0  0  0  0  0
    0.7315    5.3628    0.2150 H   0  0  0  0  0  0  0  0  0  0  0  0
    2.3534    5.9194   -0.2146 H   0  0  0  0  0  0  0  0  0  0  0  0
    1.2977    5.2171   -1.4547 H   0  0  0  0  0  0  0  0  0  0  0  0
    3.7713    4.2486    1.6290 N   0  0  0  0  0  0  0  0  0  0  0  0
    4.3545    4.2811    2.9499 C   0  0  0  0  0  0  0  0  0  0  0  0
    4.3017    4.6597    0.8665 H   0  0  0  0  0  0  0  0  0  0  0  0
    4.0490    5.2045    3.4636 H   0  0  0  0  0  0  0  0  0  0  0  0
    4.0080    3.4099    3.5251 H   0  0  0  0  0  0  0  0  0  0  0  0
    5.4511    4.2533    2.8672 H   0  0  0  0  0  0  0  0  0  0  0  0
 23 25  2  0  0  0  0
 22 23  1  0  0  0  0
 24 26  1  0  0  0  0
 22 24  2  0  0  0  0
 25 27  1  0  0  0  0
 26 27  2  0  0  0  0
 21 22  1  0  0  0  0
 27 28  1  0  0  0  0
  1  3  1  0  0  0  0
  1  7  1  0  0  0  0
  1  2  2  0  0  0  0
 39 40  1  0  0  0  0
 40 48  1  0  0  0  0
 40 41  2  0  0  0  0
  8  9  1  0  0  0  0
  9 17  1  0  0  0  0
  9 10  2  0  0  0  0
 18 19  1  0  0  0  0
 19 38  1  0  0  0  0
 19 20  2  0  0  0  0
 39 42  1  0  0  0  0
  8 11  1  0  0  0  0
 48 49  1  0  0  0  0
 18 21  1  0  0  0  0
 38 39  1  0  0  0  0
  7  8  1  0  0  0  0
 17 18  1  0  0  0  0
 23 33  1  0  0  0  0
 24 34  1  0  0  0  0
 25 35  1  0  0  0  0
 26 36  1  0  0  0  0
  3  4  1  0  0  0  0
  3  5  1  0  0  0  0
  3  6  1  0  0  0  0
 42 45  1  0  0  0  0
 42 46  1  0  0  0  0
 42 47  1  0  0  0  0
 11 14  1  0  0  0  0
 11 15  1  0  0  0  0
 11 16  1  0  0  0  0
 49 51  1  0  0  0  0
 49 52  1  0  0  0  0
 49 53  1  0  0  0  0
 21 31  1  0  0  0  0
 21 32  1  0  0  0  0
 39 44  1  0  0  0  0
  8 13  1  0  0  0  0
 18 30  1  0  0  0  0
 48 50  1  0  0  0  0
  7 12  1  0  0  0  0
 38 43  1  0  0  0  0
 17 29  1  0  0  0  0
 28 37  1  0  0  0  0
M  END
$$$$

  -OEChem-05262214473D

 53 53  0     1  0  0  0  0  0999 V2000
   -1.9298    0.2574    3.9747 C   0  0  0  0  0  0  0  0  0  0  0  0
   -0.9825   -0.3573    3.4990 O   0  0  0  0  0  0  0  0  0  0  0  0
   -2.3617   -0.0250    5.3754 C   0  0  0  0  0  0  0  0  0  0  0  0
   -3.1214   -0.8213    5.4288 H   0  0  0  0  0  0  0  0  0  0  0  0
   -1.5305   -0.3726    6.0097 H   0  0  0  0  0  0  0  0  0  0  0  0
   -2.7997    0.8299    5.9150 H   0  0  0  0  0  0  0  0  0  0  0  0
   -2.6795    1.2298    3.3336 N   0  0  0  0  0  0  0  0  0  0  0  0
   -2.4327    1.6559    1.9812 C   0  0  2  0  0  0  0  0  0  0  0  0
   -1.0977    1.0705    1.5400 C   0  0  0  0  0  0  0  0  0  0  0  0
   -0.2256    0.7177    2.3313 O   0  0  0  0  0  0  0  0  0  0  0  0
   -2.4239    3.1726    1.8718 C   0  0  0  0  0  0  0  0  0  0  0  0
   -3.4446    1.6657    3.8454 H   0  0  0  0  0  0  0  0  0  0  0  0
   -3.2368    1.2374    1.3661 H   0  0  0  0  0  0  0  0  0  0  0  0
   -1.6248    3.6099    2.4815 H   0  0  0  0  0  0  0  0  0  0  0  0
   -2.2644    3.4949    0.8375 H   0  0  0  0  0  0  0  0  0  0  0  0
   -3.3741    3.5939    2.2175 H   0  0  0  0  0  0  0  0  0  0  0  0
   -0.9750    1.0274    0.1566 N   0  0  0  0  0  0  0  0  0  0  0  0
    0.2023    0.5266   -0.5070 C   0  0  2  0  0  0  0  0  0  0  0  0
    1.3746    1.3928   -0.0604 C   0  0  0  0  0  0  0  0  0  0  0  0
    2.4734    0.9295    0.2379 O   0  0  0  0  0  0  0  0  0  0  0  0
    0.0653    0.5612   -2.0335 C   0  0  0  0  0  0  0  0  0  0  0  0
   -0.9795   -0.3989   -2.5476 C   0  0  0  0  0  0  0  0  0  0  0  0
   -0.6696   -1.7501   -2.7020 C   0  0  0  0  0  0  0  0  0  0  0  0
   -2.2550    0.0653   -2.8691 C   0  0  0  0  0  0  0  0  0  0  0  0
   -1.6352   -2.6372   -3.1777 C   0  0  0  0  0  0  0  0  0  0  0  0
   -3.2206   -0.8218   -3.3449 C   0  0  0  0  0  0  0  0  0  0  0  0
   -2.9107   -2.1731   -3.4992 C   0  0  0  0  0  0  0  0  0  0  0  0
   -3.8523   -3.0387   -3.9646 O   0  0  0  0  0  0  0  0  0  0  0  0
   -1.7582    1.3241   -0.4207 H   0  0  0  0  0  0  0  0  0  0  0  0
    0.3537   -0.4969   -0.1445 H   0  0  0  0  0  0  0  0  0  0  0  0
    1.0321    0.3434   -2.5072 H   0  0  0  0  0  0  0  0  0  0  0  0
   -0.2000    1.5715   -2.3720 H   0  0  0  0  0  0  0  0  0  0  0  0
    0.3215   -2.1204   -2.4539 H   0  0  0  0  0  0  0  0  0  0  0  0
   -2.5055    1.1165   -2.7519 H   0  0  0  0  0  0  0  0  0  0  0  0
   -1.3876   -3.6888   -3.2961 H   0  0  0  0  0  0  0  0  0  0  0  0
   -4.2121   -0.4541   -3.5938 H   0  0  0  0  0  0  0  0  0  0  0  0
   -4.6827   -2.5687   -4.1422 H   0  0  0  0  0  0  0  0  0  0  0  0
    1.0604    2.7445   -0.0836 N   0  0  0  0  0  0  0  0  0  0  0  0
    1.9998    3.7838    0.2716 C   0  0  2  0  0  0  0  0  0  0  0  0
    2.6208    3.4180    1.6133 C   0  0  0  0  0  0  0  0  0  0  0  0
    2.0833    2.6582    2.4163 O   0  0  0  0  0  0  0  0  0  0  0  0
    1.3215    5.1433    0.3392 C   0  0  0  0  0  0  0  0  0  0  0  0
    0.1230    3.0170   -0.3643 H   0  0  0  0  0  0  0  0  0  0  0  0
    2.7755    3.7868   -0.5018 H   0  0  0  0  0  0  0  0  0  0  0  0
    0.5411    5.1596    1.1087 H   0  0  0  0  0  0  0  0  0  0  0  0
    2.0400    5.9336    0.5804 H   0  0  0  0  0  0  0  0  0  0  0  0
    0.8499    5.3915   -0.6177 H   0  0  0  0  0  0  0  0  0  0  0  0
    3.8253    4.0735    1.8269 N   0  0  0  0  0  0  0  0  0  0  0  0
    4.6028    3.9027    3.0321 C   0  0  0  0  0  0  0  0  0  0  0  0
    4.2053    4.6707    1.0984 H   0  0  0  0  0  0  0  0  0  0  0  0
    4.3247    4.6778    3.7613 H   0  0  0  0  0  0  0  0  0  0  0  0
    4.4031    2.9089    3.4593 H   0  0  0  0  0  0  0  0  0  0  0  0
    5.6730    3.9910    2.7934 H   0  0  0  0  0  0  0  0  0  0  0  0
 23 25  2  0  0  0  0
 22 23  1  0  0  0  0
 24 26  1  0  0  0  0
 22 24  2  0  0  0  0
 25 27  1  0  0  0  0
 26 27  2  0  0  0  0
 21 22  1  0  0  0  0
 27 28  1  0  0  0  0
  1  3  1  0  0  0  0
  1  7  1  0  0  0  0
  1  2  2  0  0  0  0
 39 40  1  0  0  0  0
 40 48  1  0  0  0  0
 40 41  2  0  0  0  0
  8  9  1  0  0  0  0
  9 17  1  0  0  0  0
  9 10  2  0  0  0  0
 18 19  1  0  0  0  0
 19 38  1  0  0  0  0
 19 20  2  0  0  0  0
 39 42  1  0  0  0  0
  8 11  1  0  0  0  0
 48 49  1  0  0  0  0
 18 21  1  0  0  0  0
 38 39  1  0  0  0  0
  7  8  1  0  0  0  0
 17 18  1  0  0  0  0
 23 33  1  0  0  0  0
 24 34  1  0  0  0  0
 25 35  1  0  0  0  0
 26 36  1  0  0  0  0
  3  4  1  0  0  0  0
  3  5  1  0  0  0  0
  3  6  1  0  0  0  0
 42 45  1  0  0  0  0
 42 46  1  0  0  0  0
 42 47  1  0  0  0  0
 11 14  1  0  0  0  0
 11 15  1  0  0  0  0
 11 16  1  0  0  0  0
 49 51  1  0  0  0  0
 49 52  1  0  0  0  0
 49 53  1  0  0  0  0
 21 31  1  0  0  0  0
 21 32  1  0  0  0  0
 39 44  1  0  0  0  0
  8 13  1  0  0  0  0
 18 30  1  0  0  0  0
 48 50  1  0  0  0  0
  7 12  1  0  0  0  0
 38 43  1  0  0  0  0
 17 29  1  0  0  0  0
 28 37  1  0  0  0  0
M  END
$$$$

  -OEChem-05262214473D

 53 53  0     1  0  0  0  0  0999 V2000
   -1.9298    0.2574    3.9747 C   0  0  0  0  0  0  0  0  0  0  0  0
   -0.9825   -0.3573    3.4990 O   0  0  0  0  0  0  0  0  0  0  0  0
   -2.3617   -0.0250    5.3754 C   0  0  0  0  0  0  0  0  0  0  0  0
   -3.1214   -0.8213    5.4288 H   0  0  0  0  0  0  0  0  0  0  0  0
   -1.5305   -0.3726    6.0097 H   0  0  0  0  0  0  0  0  0  0  0  0
   -2.7997    0.8299    5.9150 H   0  0  0  0  0  0  0  0  0  0  0  0
   -2.6795    1.2298    3.3336 N   0  0  0  0  0  0  0  0  0  0  0  0
   -2.4327    1.6559    1.9812 C   0  0  2  0  0  0  0  0  0  0  0  0
   -1.0977    1.0705    1.5400 C   0  0  0  0  0  0  0  0  0  0  0  0
   -0.2256    0.7177    2.3313 O   0  0  0  0  0  0  0  0  0  0  0  0
   -2.4239    3.1726    1.8718 C   0  0  0  0  0  0  0  0  0  0  0  0
   -3.4446    1.6657    3.8454 H   0  0  0  0  0  0  0  0  0  0  0  0
   -3.2368    1.2374    1.3661 H   0  0  0  0  0  0  0  0  0  0  0  0
   -1.6248    3.6099    2.4815 H   0  0  0  0  0  0  0  0  0  0  0  0
   -2.2644    3.4949    0.8375 H   0  0  0  0  0  0  0  0  0  0  0  0
   -3.3741    3.5939    2.2175 H   0  0  0  0  0  0  0  0  0  0  0  0
   -0.9750    1.0274    0.1566 N   0  0  0  0  0  0  0  0  0  0  0  0
    0.2023    0.5266   -0.5070 C   0  0  2  0  0  0  0  0  0  0  0  0
    1.3746    1.3928   -0.0604 C   0  0  0  0  0  0  0  0  0  0  0  0
    2.5325    0.9822   -0.0194 O   0  0  0  0  0  0  0  0  0  0  0  0
    0.0653    0.5612   -2.0335 C   0  0  0  0  0  0  0  0  0  0  0  0
   -0.9795   -0.3989   -2.5476 C   0  0  0  0  0  0  0  0  0  0  0  0
   -0.6696   -1.7501   -2.7020 C   0  0  0  0  0  0  0  0  0  0  0  0
   -2.2550    0.0653   -2.8691 C   0  0  0  0  0  0  0  0  0  0  0  0
   -1.6352   -2.6372   -3.1777 C   0  0  0  0  0  0  0  0  0  0  0  0
   -3.2206   -0.8218   -3.3449 C   0  0  0  0  0  0  0  0  0  0  0  0
   -2.9107   -2.1731   -3.4992 C   0  0  0  0  0  0  0  0  0  0  0  0
   -3.8523   -3.0387   -3.9646 O   0  0  0  0  0  0  0  0  0  0  0  0
   -1.7582    1.3241   -0.4207 H   0  0  0  0  0  0  0  0  0  0  0  0
    0.3537   -0.4969   -0.1445 H   0  0  0  0  0  0  0  0  0  0  0  0
    1.0321    0.3434   -2.5072 H   0  0  0  0  0  0  0  0  0  0  0  0
   -0.2000    1.5715   -2.3720 H   0  0  0  0  0  0  0  0  0  0  0  0
    0.3215   -2.1204   -2.4539 H   0  0  0  0  0  0  0  0  0  0  0  0
   -2.5055    1.1165   -2.7519 H   0  0  0  0  0  0  0  0  0  0  0  0
   -1.3876   -3.6888   -3.2961 H   0  0  0  0  0  0  0  0  0  0  0  0
   -4.2121   -0.4541   -3.5938 H   0  0  0  0  0  0  0  0  0  0  0  0
   -4.6827   -2.5687   -4.1422 H   0  0  0  0  0  0  0  0  0  0  0  0
    0.9788    2.6893    0.2376 N   0  0  0  0  0  0  0  0  0  0  0  0
    1.8967    3.7212    0.6636 C   0  0  2  0  0  0  0  0  0  0  0  0
    2.7390    3.1607    1.8020 C   0  0  0  0  0  0  0  0  0  0  0  0
    2.3795    2.2144    2.4994 O   0  0  0  0  0  0  0  0  0  0  0  0
    1.1555    4.9746    1.1019 C   0  0  0  0  0  0  0  0  0  0  0  0
   -0.0056    2.9248    0.1521 H   0  0  0  0  0  0  0  0  0  0  0  0
    2.5418    3.9440   -0.1933 H   0  0  0  0  0  0  0  0  0  0  0  0
    0.5040    4.7710    1.9596 H   0  0  0  0  0  0  0  0  0  0  0  0
    1.8532    5.7653    1.3972 H   0  0  0  0  0  0  0  0  0  0  0  0
    0.5273    5.3594    0.2913 H   0  0  0  0  0  0  0  0  0  0  0  0
    3.9198    3.8690    1.9753 N   0  0  0  0  0  0  0  0  0  0  0  0
    4.8834    3.5397    2.9996 C   0  0  0  0  0  0  0  0  0  0  0  0
    4.1454    4.6278    1.3388 H   0  0  0  0  0  0  0  0  0  0  0  0
    4.6748    4.1307    3.9036 H   0  0  0  0  0  0  0  0  0  0  0  0
    4.8132    2.4681    3.2379 H   0  0  0  0  0  0  0  0  0  0  0  0
    5.8963    3.7692    2.6373 H   0  0  0  0  0  0  0  0  0  0  0  0
 23 25  2  0  0  0  0
 22 23  1  0  0  0  0
 24 26  1  0  0  0  0
 22 24  2  0  0  0  0
 25 27  1  0  0  0  0
 26 27  2  0  0  0  0
 21 22  1  0  0  0  0
 27 28  1  0  0  0  0
  1  3  1  0  0  0  0
  1  7  1  0  0  0  0
  1  2  2  0  0  0  0
 39 40  1  0  0  0  0
 40 48  1  0  0  0  0
 40 41  2  0  0  0  0
  8  9  1  0  0  0  0
  9 17  1  0  0  0  0
  9 10  2  0  0  0  0
 18 19  1  0  0  0  0
 19 38  1  0  0  0  0
 19 20  2  0  0  0  0
 39 42  1  0  0  0  0
  8 11  1  0  0  0  0
 48 49  1  0  0  0  0
 18 21  1  0  0  0  0
 38 39  1  0  0  0  0
  7  8  1  0  0  0  0
 17 18  1  0  0  0  0
 23 33  1  0  0  0  0
 24 34  1  0  0  0  0
 25 35  1  0  0  0  0
 26 36  1  0  0  0  0
  3  4  1  0  0  0  0
  3  5  1  0  0  0  0
  3  6  1  0  0  0  0
 42 45  1  0  0  0  0
 42 46  1  0  0  0  0
 42 47  1  0  0  0  0
 11 14  1  0  0  0  0
 11 15  1  0  0  0  0
 11 16  1  0  0  0  0
 49 51  1  0  0  0  0
 49 52  1  0  0  0  0
 49 53  1  0  0  0  0
 21 31  1  0  0  0  0
 21 32  1  0  0  0  0
 39 44  1  0  0  0  0
  8 13  1  0  0  0  0
 18 30  1  0  0  0  0
 48 50  1  0  0  0  0
  7 12  1  0  0  0  0
 38 43  1  0  0  0  0
 17 29  1  0  0  0  0
 28 37  1  0  0  0  0
M  END
$$$$

  -OEChem-05262214473D

 53 53  0     1  0  0  0  0  0999 V2000
   -1.9298    0.2574    3.9747 C   0  0  0  0  0  0  0  0  0  0  0  0
   -0.9825   -0.3573    3.4990 O   0  0  0  0  0  0  0  0  0  0  0  0
   -2.3617   -0.0250    5.3754 C   0  0  0  0  0  0  0  0  0  0  0  0
   -3.1214   -0.8213    5.4288 H   0  0  0  0  0  0  0  0  0  0  0  0
   -1.5305   -0.3726    6.0097 H   0  0  0  0  0  0  0  0  0  0  0  0
   -2.7997    0.8299    5.9150 H   0  0  0  0  0  0  0  0  0  0  0  0
   -2.6795    1.2298    3.3336 N   0  0  0  0  0  0  0  0  0  0  0  0
   -2.4327    1.6559    1.9812 C   0  0  2  0  0  0  0  0  0  0  0  0
   -1.0977    1.0705    1.5400 C   0  0  0  0  0  0  0  0  0  0  0  0
   -0.2256    0.7177    2.3313 O   0  0  0  0  0  0  0  0  0  0  0  0
   -2.4239    3.1726    1.8718 C   0  0  0  0  0  0  0  0  0  0  0  0
   -3.4446    1.6657    3.8454 H   0  0  0  0  0  0  0  0  0  0  0  0
   -3.2368    1.2374    1.3661 H   0  0  0  0  0  0  0  0  0  0  0  0
   -1.6248    3.6099    2.4815 H   0  0  0  0  0  0  0  0  0  0  0  0
   -2.2644    3.4949    0.8375 H   0  0  0  0  0  0  0  0  0  0  0  0
   -3.3741    3.5939    2.2175 H   0  0  0  0  0  0  0  0  0  0  0  0
   -0.9750    1.0274    0.1566 N   0  0  0  0  0  0  0  0  0  0  0  0
    0.2023    0.5266   -0.5070 C   0  0  2  0  0  0  0  0  0  0  0  0
    1.3746    1.3928   -0.0604 C   0  0  0  0  0  0  0  0  0  0  0  0
    2.5477    1.0888   -0.2661 O   0  0  0  0  0  0  0  0  0  0  0  0
    0.0653    0.5612   -2.0335 C   0  0  0  0  0  0  0  0  0  0  0  0
   -0.9795   -0.3989   -2.5476 C   0  0  0  0  0  0  0  0  0  0  0  0
   -0.6696   -1.7501   -2.7020 C   0  0  0  0  0  0  0  0  0  0  0  0
   -2.2550    0.0653   -2.8691 C   0  0  0  0  0  0  0  0  0  0  0  0
   -1.6352   -2.6372   -3.1777 C   0  0  0  0  0  0  0  0  0  0  0  0
   -3.2206   -0.8218   -3.3449 C   0  0  0  0  0  0  0  0  0  0  0  0
   -2.9107   -2.1731   -3.4992 C   0  0  0  0  0  0  0  0  0  0  0  0
   -3.8523   -3.0387   -3.9646 O   0  0  0  0  0  0  0  0  0  0  0  0
   -1.7582    1.3241   -0.4207 H   0  0  0  0  0  0  0  0  0  0  0  0
    0.3537   -0.4969   -0.1445 H   0  0  0  0  0  0  0  0  0  0  0  0
    1.0321    0.3434   -2.5072 H   0  0  0  0  0  0  0  0  0  0  0  0
   -0.2000    1.5715   -2.3720 H   0  0  0  0  0  0  0  0  0  0  0  0
    0.3215   -2.1204   -2.4539 H   0  0  0  0  0  0  0  0  0  0  0  0
   -2.5055    1.1165   -2.7519 H   0  0  0  0  0  0  0  0  0  0  0  0
   -1.3876   -3.6888   -3.2961 H   0  0  0  0  0  0  0  0  0  0  0  0
   -4.2121   -0.4541   -3.5938 H   0  0  0  0  0  0  0  0  0  0  0  0
   -4.6827   -2.5687   -4.1422 H   0  0  0  0  0  0  0  0  0  0  0  0
    0.9514    2.5659    0.5489 N   0  0  0  0  0  0  0  0  0  0  0  0
    1.8596    3.5748    1.0449 C   0  0  2  0  0  0  0  0  0  0  0  0
    2.9004    2.8836    1.9157 C   0  0  0  0  0  0  0  0  0  0  0  0
    2.7115    1.7917    2.4478 O   0  0  0  0  0  0  0  0  0  0  0  0
    1.1201    4.6474    1.8294 C   0  0  0  0  0  0  0  0  0  0  0  0
   -0.0468    2.7232    0.6514 H   0  0  0  0  0  0  0  0  0  0  0  0
    2.3495    4.0167    0.1704 H   0  0  0  0  0  0  0  0  0  0  0  0
    0.6228    4.2235    2.7095 H   0  0  0  0  0  0  0  0  0  0  0  0
    1.8056    5.4260    2.1802 H   0  0  0  0  0  0  0  0  0  0  0  0
    0.3518    5.1230    1.2104 H   0  0  0  0  0  0  0  0  0  0  0  0
    4.0485    3.6492    2.0640 N   0  0  0  0  0  0  0  0  0  0  0  0
    5.1771    3.2168    2.8547 C   0  0  0  0  0  0  0  0  0  0  0  0
    4.1261    4.5340    1.5713 H   0  0  0  0  0  0  0  0  0  0  0  0
    5.0753    3.6004    3.8806 H   0  0  0  0  0  0  0  0  0  0  0  0
    5.2101    2.1175    2.8761 H   0  0  0  0  0  0  0  0  0  0  0  0
    6.1059    3.6029    2.4095 H   0  0  0  0  0  0  0  0  0  0  0  0
 23 25  2  0  0  0  0
 22 23  1  0  0  0  0
 24 26  1  0  0  0  0
 22 24  2  0  0  0  0
 25 27  1  0  0  0  0
 26 27  2  0  0  0  0
 21 22  1  0  0  0  0
 27 28  1  0  0  0  0
  1  3  1  0  0  0  0
  1  7  1  0  0  0  0
  1  2  2  0  0  0  0
 39 40  1  0  0  0  0
 40 48  1  0  0  0  0
 40 41  2  0  0  0  0
  8  9  1  0  0  0  0
  9 17  1  0  0  0  0
  9 10  2  0  0  0  0
 18 19  1  0  0  0  0
 19 38  1  0  0  0  0
 19 20  2  0  0  0  0
 39 42  1  0  0  0  0
  8 11  1  0  0  0  0
 48 49  1  0  0  0  0
 18 21  1  0  0  0  0
 38 39  1  0  0  0  0
  7  8  1  0  0  0  0
 17 18  1  0  0  0  0
 23 33  1  0  0  0  0
 24 34  1  0  0  0  0
 25 35  1  0  0  0  0
 26 36  1  0  0  0  0
  3  4  1  0  0  0  0
  3  5  1  0  0  0  0
  3  6  1  0  0  0  0
 42 45  1  0  0  0  0
 42 46  1  0  0  0  0
 42 47  1  0  0  0  0
 11 14  1  0  0  0  0
 11 15  1  0  0  0  0
 11 16  1  0  0  0  0
 49 51  1  0  0  0  0
 49 52  1  0  0  0  0
 49 53  1  0  0  0  0
 21 31  1  0  0  0  0
 21 32  1  0  0  0  0
 39 44  1  0  0  0  0
  8 13  1  0  0  0  0
 18 30  1  0  0  0  0
 48 50  1  0  0  0  0
  7 12  1  0  0  0  0
 38 43  1  0  0  0  0
 17 29  1  0  0  0  0
 28 37  1  0  0  0  0
M  END
$$$$

  -OEChem-05262214473D

 53 53  0     1  0  0  0  0  0999 V2000
   -1.9298    0.2574    3.9747 C   0  0  0  0  0  0  0  0  0  0  0  0
   -0.9825   -0.3573    3.4990 O   0  0  0  0  0  0  0  0  0  0  0  0
   -2.3617   -0.0250    5.3754 C   0  0  0  0  0  0  0  0  0  0  0  0
   -3.1214   -0.8213    5.4288 H   0  0  0  0  0  0  0  0  0  0  0  0
   -1.5305   -0.3726    6.0097 H   0  0  0  0  0  0  0  0  0  0  0  0
   -2.7997    0.8299    5.9150 H   0  0  0  0  0  0  0  0  0  0  0  0
   -2.6795    1.2298    3.3336 N   0  0  0  0  0  0  0  0  0  0  0  0
   -2.4327    1.6559    1.9812 C   0  0  2  0  0  0  0  0  0  0  0  0
   -1.0977    1.0705    1.5400 C   0  0  0  0  0  0  0  0  0  0  0  0
   -0.2256    0.7177    2.3313 O   0  0  0  0  0  0  0  0  0  0  0  0
   -2.4239    3.1726    1.8718 C   0  0  0  0  0  0  0  0  0  0  0  0
   -3.4446    1.6657    3.8454 H   0  0  0  0  0  0  0  0  0  0  0  0
   -3.2368    1.2374    1.3661 H   0  0  0  0  0  0  0  0  0  0  0  0
   -1.6248    3.6099    2.4815 H   0  0  0  0  0  0  0  0  0  0  0  0
   -2.2644    3.4949    0.8375 H   0  0  0  0  0  0  0  0  0  0  0  0
   -3.3741    3.5939    2.2175 H   0  0  0  0  0  0  0  0  0  0  0  0
   -0.9750    1.0274    0.1566 N   0  0  0  0  0  0  0  0  0  0  0  0
    0.2023    0.5266   -0.5070 C   0  0  2  0  0  0  0  0  0  0  0  0
    1.3746    1.3928   -0.0604 C   0  0  0  0  0  0  0  0  0  0  0  0
    2.5181    1.2420   -0.4854 O   0  0  0  0  0  0  0  0  0  0  0  0
    0.0653    0.5612   -2.0335 C   0  0  0  0  0  0  0  0  0  0  0  0
   -0.9795   -0.3989   -2.5476 C   0  0  0  0  0  0  0  0  0  0  0  0
   -0.6696   -1.7501   -2.7020 C   0  0  0  0  0  0  0  0  0  0  0  0
   -2.2550    0.0653   -2.8691 C   0  0  0  0  0  0  0  0  0  0  0  0
   -1.6352   -2.6372   -3.1777 C   0  0  0  0  0  0  0  0  0  0  0  0
   -3.2206   -0.8218   -3.3449 C   0  0  0  0  0  0  0  0  0  0  0  0
   -2.9107   -2.1731   -3.4992 C   0  0  0  0  0  0  0  0  0  0  0  0
   -3.8523   -3.0387   -3.9646 O   0  0  0  0  0  0  0  0  0  0  0  0
   -1.7582    1.3241   -0.4207 H   0  0  0  0  0  0  0  0  0  0  0  0
    0.3537   -0.4969   -0.1445 H   0  0  0  0  0  0  0  0  0  0  0  0
    1.0321    0.3434   -2.5072 H   0  0  0  0  0  0  0  0  0  0  0  0
   -0.2000    1.5715   -2.3720 H   0  0  0  0  0  0  0  0  0  0  0  0
    0.3215   -2.1204   -2.4539 H   0  0  0  0  0  0  0  0  0  0  0  0
   -2.5055    1.1165   -2.7519 H   0  0  0  0  0  0  0  0  0  0  0  0
   -1.3876   -3.6888   -3.2961 H   0  0  0  0  0  0  0  0  0  0  0  0
   -4.2121   -0.4541   -3.5938 H   0  0  0  0  0  0  0  0  0  0  0  0
   -4.6827   -2.5687   -4.1422 H   0  0  0  0  0  0  0  0  0  0  0  0
    0.9801    2.3826    0.8291 N   0  0  0  0  0  0  0  0  0  0  0  0
    1.8909    3.3548    1.3895 C   0  0  2  0  0  0  0  0  0  0  0  0
    3.0941    2.6055    1.9467 C   0  0  0  0  0  0  0  0  0  0  0  0
    3.0567    1.4187    2.2650 O   0  0  0  0  0  0  0  0  0  0  0  0
    1.2177    4.1838    2.4723 C   0  0  0  0  0  0  0  0  0  0  0  0
    0.0020    2.4259    1.0997 H   0  0  0  0  0  0  0  0  0  0  0  0
    2.2118    4.0000    0.5645 H   0  0  0  0  0  0  0  0  0  0  0  0
    0.8894    3.5544    3.3074 H   0  0  0  0  0  0  0  0  0  0  0  0
    1.9004    4.9388    2.8759 H   0  0  0  0  0  0  0  0  0  0  0  0
    0.3353    4.6984    2.0770 H   0  0  0  0  0  0  0  0  0  0  0  0
    4.2024    3.4289    2.0871 N   0  0  0  0  0  0  0  0  0  0  0  0
    5.4641    2.9560    2.6073 C   0  0  0  0  0  0  0  0  0  0  0  0
    4.1488    4.3956    1.7799 H   0  0  0  0  0  0  0  0  0  0  0  0
    5.4990    3.1232    3.6940 H   0  0  0  0  0  0  0  0  0  0  0  0
    5.5669    1.8809    2.3984 H   0  0  0  0  0  0  0  0  0  0  0  0
    6.2875    3.5036    2.1256 H   0  0  0  0  0  0  0  0  0  0  0  0
 23 25  2  0  0  0  0
 22 23  1  0  0  0  0
 24 26  1  0  0  0  0
 22 24  2  0  0  0  0
 25 27  1  0  0  0  0
 26 27  2  0  0  0  0
 21 22  1  0  0  0  0
 27 28  1  0  0  0  0
  1  3  1  0  0  0  0
  1  7  1  0  0  0  0
  1  2  2  0  0  0  0
 39 40  1  0  0  0  0
 40 48  1  0  0  0  0
 40 41  2  0  0  0  0
  8  9  1  0  0  0  0
  9 17  1  0  0  0  0
  9 10  2  0  0  0  0
 18 19  1  0  0  0  0
 19 38  1  0  0  0  0
 19 20  2  0  0  0  0
 39 42  1  0  0  0  0
  8 11  1  0  0  0  0
 48 49  1  0  0  0  0
 18 21  1  0  0  0  0
 38 39  1  0  0  0  0
  7  8  1  0  0  0  0
 17 18  1  0  0  0  0
 23 33  1  0  0  0  0
 24 34  1  0  0  0  0
 25 35  1  0  0  0  0
 26 36  1  0  0  0  0
  3  4  1  0  0  0  0
  3  5  1  0  0  0  0
  3  6  1  0  0  0  0
 42 45  1  0  0  0  0
 42 46  1  0  0  0  0
 42 47  1  0  0  0  0
 11 14  1  0  0  0  0
 11 15  1  0  0  0  0
 11 16  1  0  0  0  0
 49 51  1  0  0  0  0
 49 52  1  0  0  0  0
 49 53  1  0  0  0  0
 21 31  1  0  0  0  0
 21 32  1  0  0  0  0
 39 44  1  0  0  0  0
  8 13  1  0  0  0  0
 18 30  1  0  0  0  0
 48 50  1  0  0  0  0
  7 12  1  0  0  0  0
 38 43  1  0  0  0  0
 17 29  1  0  0  0  0
 28 37  1  0  0  0  0
M  END
$$$$

  -OEChem-05262214473D

 53 53  0     1  0  0  0  0  0999 V2000
   -1.9298    0.2574    3.9747 C   0  0  0  0  0  0  0  0  0  0  0  0
   -0.9825   -0.3573    3.4990 O   0  0  0  0  0  0  0  0  0  0  0  0
   -2.3617   -0.0250    5.3754 C   0  0  0  0  0  0  0  0  0  0  0  0
   -3.1214   -0.8213    5.4288 H   0  0  0  0  0  0  0  0  0  0  0  0
   -1.5305   -0.3726    6.0097 H   0  0  0  0  0  0  0  0  0  0  0  0
   -2.7997    0.8299    5.9150 H   0  0  0  0  0  0  0  0  0  0  0  0
   -2.6795    1.2298    3.3336 N   0  0  0  0  0  0  0  0  0  0  0  0
   -2.4327    1.6559    1.9812 C   0  0  2  0  0  0  0  0  0  0  0  0
   -1.0977    1.0705    1.5400 C   0  0  0  0  0  0  0  0  0  0  0  0
   -0.2256    0.7177    2.3313 O   0  0  0  0  0  0  0  0  0  0  0  0
   -2.4239    3.1726    1.8718 C   0  0  0  0  0  0  0  0  0  0  0  0
   -3.4446    1.6657    3.8454 H   0  0  0  0  0  0  0  0  0  0  0  0
   -3.2368    1.2374    1.3661 H   0  0  0  0  0  0  0  0  0  0  0  0
   -1.6248    3.6099    2.4815 H   0  0  0  0  0  0  0  0  0  0  0  0
   -2.2644    3.4949    0.8375 H   0  0  0  0  0  0  0  0  0  0  0  0
   -3.3741    3.5939    2.2175 H   0  0  0  0  0  0  0  0  0  0  0  0
   -0.9750    1.0274    0.1566 N   0  0  0  0  0  0  0  0  0  0  0  0
    0.2023    0.5266   -0.5070 C   0  0  2  0  0  0  0  0  0  0  0  0
    1.3746    1.3928   -0.0604 C   0  0  0  0  0  0  0  0  0  0  0  0
    2.4456    1.4314   -0.6624 O   0  0  0  0  0  0  0  0  0  0  0  0
    0.0653    0.5612   -2.0335 C   0  0  0  0  0  0  0  0  0  0  0  0
   -0.9795   -0.3989   -2.5476 C   0  0  0  0  0  0  0  0  0  0  0  0
   -0.6696   -1.7501   -2.7020 C   0  0  0  0  0  0  0  0  0  0  0  0
   -2.2550    0.0653   -2.8691 C   0  0  0  0  0  0  0  0  0  0  0  0
   -1.6352   -2.6372   -3.1777 C   0  0  0  0  0  0  0  0  0  0  0  0
   -3.2206   -0.8218   -3.3449 C   0  0  0  0  0  0  0  0  0  0  0  0
   -2.9107   -2.1731   -3.4992 C   0  0  0  0  0  0  0  0  0  0  0  0
   -3.8523   -3.0387   -3.9646 O   0  0  0  0  0  0  0  0  0  0  0  0
   -1.7582    1.3241   -0.4207 H   0  0  0  0  0  0  0  0  0  0  0  0
    0.3537   -0.4969   -0.1445 H   0  0  0  0  0  0  0  0  0  0  0  0
    1.0321    0.3434   -2.5072 H   0  0  0  0  0  0  0  0  0  0  0  0
   -0.2000    1.5715   -2.3720 H   0  0  0  0  0  0  0  0  0  0  0  0
    0.3215   -2.1204   -2.4539 H   0  0  0  0  0  0  0  0  0  0  0  0
   -2.5055    1.1165   -2.7519 H   0  0  0  0  0  0  0  0  0  0  0  0
   -1.3876   -3.6888   -3.2961 H   0  0  0  0  0  0  0  0  0  0  0  0
   -4.2121   -0.4541   -3.5938 H   0  0  0  0  0  0  0  0  0  0  0  0
   -4.6827   -2.5687   -4.1422 H   0  0  0  0  0  0  0  0  0  0  0  0
    1.0629    2.1520    1.0590 N   0  0  0  0  0  0  0  0  0  0  0  0
    1.9885    3.0760    1.6740 C   0  0  2  0  0  0  0  0  0  0  0  0
    3.3068    2.3454    1.8928 C   0  0  0  0  0  0  0  0  0  0  0  0
    3.3915    1.1211    1.9635 O   0  0  0  0  0  0  0  0  0  0  0  0
    1.4417    3.6154    2.9866 C   0  0  0  0  0  0  0  0  0  0  0  0
    0.1376    2.0532    1.4663 H   0  0  0  0  0  0  0  0  0  0  0  0
    2.1379    3.8950    0.9620 H   0  0  0  0  0  0  0  0  0  0  0  0
    1.2855    2.8093    3.7127 H   0  0  0  0  0  0  0  0  0  0  0  0
    2.1313    4.3369    3.4370 H   0  0  0  0  0  0  0  0  0  0  0  0
    0.4790    4.1146    2.8319 H   0  0  0  0  0  0  0  0  0  0  0  0
    4.3712    3.2232    2.0429 N   0  0  0  0  0  0  0  0  0  0  0  0
    5.7246    2.7751    2.2743 C   0  0  0  0  0  0  0  0  0  0  0  0
    4.2120    4.2221    1.9506 H   0  0  0  0  0  0  0  0  0  0  0  0
    5.9170    2.7315    3.3564 H   0  0  0  0  0  0  0  0  0  0  0  0
    5.8592    1.7746    1.8374 H   0  0  0  0  0  0  0  0  0  0  0  0
    6.4287    3.4779    1.8048 H   0  0  0  0  0  0  0  0  0  0  0  0
 23 25  2  0  0  0  0
 22 23  1  0  0  0  0
 24 26  1  0  0  0  0
 22 24  2  0  0  0  0
 25 27  1  0  0  0  0
 26 27  2  0  0  0  0
 21 22  1  0  0  0  0
 27 28  1  0  0  0  0
  1  3  1  0  0  0  0
  1  7  1  0  0  0  0
  1  2  2  0  0  0  0
 39 40  1  0  0  0  0
 40 48  1  0  0  0  0
 40 41  2  0  0  0  0
  8  9  1  0  0  0  0
  9 17  1  0  0  0  0
  9 10  2  0  0  0  0
 18 19  1  0  0  0  0
 19 38  1  0  0  0  0
 19 20  2  0  0  0  0
 39 42  1  0  0  0  0
  8 11  1  0  0  0  0
 48 49  1  0  0  0  0
 18 21  1  0  0  0  0
 38 39  1  0  0  0  0
  7  8  1  0  0  0  0
 17 18  1  0  0  0  0
 23 33  1  0  0  0  0
 24 34  1  0  0  0  0
 25 35  1  0  0  0  0
 26 36  1  0  0  0  0
  3  4  1  0  0  0  0
  3  5  1  0  0  0  0
  3  6  1  0  0  0  0
 42 45  1  0  0  0  0
 42 46  1  0  0  0  0
 42 47  1  0  0  0  0
 11 14  1  0  0  0  0
 11 15  1  0  0  0  0
 11 16  1  0  0  0  0
 49 51  1  0  0  0  0
 49 52  1  0  0  0  0
 49 53  1  0  0  0  0
 21 31  1  0  0  0  0
 21 32  1  0  0  0  0
 39 44  1  0  0  0  0
  8 13  1  0  0  0  0
 18 30  1  0  0  0  0
 48 50  1  0  0  0  0
  7 12  1  0  0  0  0
 38 43  1  0  0  0  0
 17 29  1  0  0  0  0
 28 37  1  0  0  0  0
M  END
$$$$

  -OEChem-05262214473D

 53 53  0     1  0  0  0  0  0999 V2000
   -1.9298    0.2574    3.9747 C   0  0  0  0  0  0  0  0  0  0  0  0
   -0.9825   -0.3573    3.4990 O   0  0  0  0  0  0  0  0  0  0  0  0
   -2.3617   -0.0250    5.3754 C   0  0  0  0  0  0  0  0  0  0  0  0
   -3.1214   -0.8213    5.4288 H   0  0  0  0  0  0  0  0  0  0  0  0
   -1.5305   -0.3726    6.0097 H   0  0  0  0  0  0  0  0  0  0  0  0
   -2.7997    0.8299    5.9150 H   0  0  0  0  0  0  0  0  0  0  0  0
   -2.6795    1.2298    3.3336 N   0  0  0  0  0  0  0  0  0  0  0  0
   -2.4327    1.6559    1.9812 C   0  0  2  0  0  0  0  0  0  0  0  0
   -1.0977    1.0705    1.5400 C   0  0  0  0  0  0  0  0  0  0  0  0
   -0.2256    0.7177    2.3313 O   0  0  0  0  0  0  0  0  0  0  0  0
   -2.4239    3.1726    1.8718 C   0  0  0  0  0  0  0  0  0  0  0  0
   -3.4446    1.6657    3.8454 H   0  0  0  0  0  0  0  0  0  0  0  0
   -3.2368    1.2374    1.3661 H   0  0  0  0  0  0  0  0  0  0  0  0
   -1.6248    3.6099    2.4815 H   0  0  0  0  0  0  0  0  0  0  0  0
   -2.2644    3.4949    0.8375 H   0  0  0  0  0  0  0  0  0  0  0  0
   -3.3741    3.5939    2.2175 H   0  0  0  0  0  0  0  0  0  0  0  0
   -0.9750    1.0274    0.1566 N   0  0  0  0  0  0  0  0  0  0  0  0
    0.2023    0.5266   -0.5070 C   0  0  2  0  0  0  0  0  0  0  0  0
    1.3746    1.3928   -0.0604 C   0  0  0  0  0  0  0  0  0  0  0  0
    2.3352    1.6441   -0.7850 O   0  0  0  0  0  0  0  0  0  0  0  0
    0.0653    0.5612   -2.0335 C   0  0  0  0  0  0  0  0  0  0  0  0
   -0.9795   -0.3989   -2.5476 C   0  0  0  0  0  0  0  0  0  0  0  0
   -0.6696   -1.7501   -2.7020 C   0  0  0  0  0  0  0  0  0  0  0  0
   -2.2550    0.0653   -2.8691 C   0  0  0  0  0  0  0  0  0  0  0  0
   -1.6352   -2.6372   -3.1777 C   0  0  0  0  0  0  0  0  0  0  0  0
   -3.2206   -0.8218   -3.3449 C   0  0  0  0  0  0  0  0  0  0  0  0
   -2.9107   -2.1731   -3.4992 C   0  0  0  0  0  0  0  0  0  0  0  0
   -3.8523   -3.0387   -3.9646 O   0  0  0  0  0  0  0  0  0  0  0  0
   -1.7582    1.3241   -0.4207 H   0  0  0  0  0  0  0  0  0  0  0  0
    0.3537   -0.4969   -0.1445 H   0  0  0  0  0  0  0  0  0  0  0  0
    1.0321    0.3434   -2.5072 H   0  0  0  0  0  0  0  0  0  0  0  0
   -0.2000    1.5715   -2.3720 H   0  0  0  0  0  0  0  0  0  0  0  0
    0.3215   -2.1204   -2.4539 H   0  0  0  0  0  0  0  0  0  0  0  0
   -2.5055    1.1165   -2.7519 H   0  0  0  0  0  0  0  0  0  0  0  0
   -1.3876   -3.6888   -3.2961 H   0  0  0  0  0  0  0  0  0  0  0  0
   -4.2121   -0.4541   -3.5938 H   0  0  0  0  0  0  0  0  0  0  0  0
   -4.6827   -2.5687   -4.1422 H   0  0  0  0  0  0  0  0  0  0  0  0
    1.1941    1.8898    1.2230 N   0  0  0  0  0  0  0  0  0  0  0  0
    2.1457    2.7575    1.8790 C   0  0  2  0  0  0  0  0  0  0  0  0
    3.5240    2.1210    1.7577 C   0  0  0  0  0  0  0  0  0  0  0  0
    3.6931    0.9190    1.5637 O   0  0  0  0  0  0  0  0  0  0  0  0
    1.7768    2.9811    3.3373 C   0  0  0  0  0  0  0  0  0  0  0  0
    0.3508    1.6306    1.7264 H   0  0  0  0  0  0  0  0  0  0  0  0
    2.1330    3.7088    1.3360 H   0  0  0  0  0  0  0  0  0  0  0  0
    1.7842    2.0390    3.8975 H   0  0  0  0  0  0  0  0  0  0  0  0
    2.4825    3.6614    3.8253 H   0  0  0  0  0  0  0  0  0  0  0  0
    0.7731    3.4113    3.4238 H   0  0  0  0  0  0  0  0  0  0  0  0
    4.5434    3.0461    1.9344 N   0  0  0  0  0  0  0  0  0  0  0  0
    5.9410    2.6864    1.8782 C   0  0  0  0  0  0  0  0  0  0  0  0
    4.3112    4.0254    2.0717 H   0  0  0  0  0  0  0  0  0  0  0  0
    6.3008    2.4520    2.8909 H   0  0  0  0  0  0  0  0  0  0  0  0
    6.0671    1.8056    1.2314 H   0  0  0  0  0  0  0  0  0  0  0  0
    6.5199    3.5276    1.4691 H   0  0  0  0  0  0  0  0  0  0  0  0
 23 25  2  0  0  0  0
 22 23  1  0  0  0  0
 24 26  1  0  0  0  0
 22 24  2  0  0  0  0
 25 27  1  0  0  0  0
 26 27  2  0  0  0  0
 21 22  1  0  0  0  0
 27 28  1  0  0  0  0
  1  3  1  0  0  0  0
  1  7  1  0  0  0  0
  1  2  2  0  0  0  0
 39 40  1  0  0  0  0
 40 48  1  0  0  0  0
 40 41  2  0  0  0  0
  8  9  1  0  0  0  0
  9 17  1  0  0  0  0
  9 10  2  0  0  0  0
 18 19  1  0  0  0  0
 19 38  1  0  0  0  0
 19 20  2  0  0  0  0
 39 42  1  0  0  0  0
  8 11  1  0  0  0  0
 48 49  1  0  0  0  0
 18 21  1  0  0  0  0
 38 39  1  0  0  0  0
  7  8  1  0  0  0  0
 17 18  1  0  0  0  0
 23 33  1  0  0  0  0
 24 34  1  0  0  0  0
 25 35  1  0  0  0  0
 26 36  1  0  0  0  0
  3  4  1  0  0  0  0
  3  5  1  0  0  0  0
  3  6  1  0  0  0  0
 42 45  1  0  0  0  0
 42 46  1  0  0  0  0
 42 47  1  0  0  0  0
 11 14  1  0  0  0  0
 11 15  1  0  0  0  0
 11 16  1  0  0  0  0
 49 51  1  0  0  0  0
 49 52  1  0  0  0  0
 49 53  1  0  0  0  0
 21 31  1  0  0  0  0
 21 32  1  0  0  0  0
 39 44  1  0  0  0  0
  8 13  1  0  0  0  0
 18 30  1  0  0  0  0
 48 50  1  0  0  0  0
  7 12  1  0  0  0  0
 38 43  1  0  0  0  0
 17 29  1  0  0  0  0
 28 37  1  0  0  0  0
M  END
$$$$

  -OEChem-05262214473D

 53 53  0     1  0  0  0  0  0999 V2000
   -1.9298    0.2574    3.9747 C   0  0  0  0  0  0  0  0  0  0  0  0
   -0.9825   -0.3573    3.4990 O   0  0  0  0  0  0  0  0  0  0  0  0
   -2.3617   -0.0250    5.3754 C   0  0  0  0  0  0  0  0  0  0  0  0
   -3.1214   -0.8213    5.4288 H   0  0  0  0  0  0  0  0  0  0  0  0
   -1.5305   -0.3726    6.0097 H   0  0  0  0  0  0  0  0  0  0  0  0
   -2.7997    0.8299    5.9150 H   0  0  0  0  0  0  0  0  0  0  0  0
   -2.6795    1.2298    3.3336 N   0  0  0  0  0  0  0  0  0  0  0  0
   -2.4327    1.6559    1.9812 C   0  0  2  0  0  0  0  0  0  0  0  0
   -1.0977    1.0705    1.5400 C   0  0  0  0  0  0  0  0  0  0  0  0
   -0.2256    0.7177    2.3313 O   0  0  0  0  0  0  0  0  0  0  0  0
   -2.4239    3.1726    1.8718 C   0  0  0  0  0  0  0  0  0  0  0  0
   -3.4446    1.6657    3.8454 H   0  0  0  0  0  0  0  0  0  0  0  0
   -3.2368    1.2374    1.3661 H   0  0  0  0  0  0  0  0  0  0  0  0
   -1.6248    3.6099    2.4815 H   0  0  0  0  0  0  0  0  0  0  0  0
   -2.2644    3.4949    0.8375 H   0  0  0  0  0  0  0  0  0  0  0  0
   -3.3741    3.5939    2.2175 H   0  0  0  0  0  0  0  0  0  0  0  0
   -0.9750    1.0274    0.1566 N   0  0  0  0  0  0  0  0  0  0  0  0
    0.2023    0.5266   -0.5070 C   0  0  2  0  0  0  0  0  0  0  0  0
    1.3746    1.3928   -0.0604 C   0  0  0  0  0  0  0  0  0  0  0  0
    2.1943    1.8655   -0.8449 O   0  0  0  0  0  0  0  0  0  0  0  0
    0.0653    0.5612   -2.0335 C   0  0  0  0  0  0  0  0  0  0  0  0
   -0.9795   -0.3989   -2.5476 C   0  0  0  0  0  0  0  0  0  0  0  0
   -0.6696   -1.7501   -2.7020 C   0  0  0  0  0  0  0  0  0  0  0  0
   -2.2550    0.0653   -2.8691 C   0  0  0  0  0  0  0  0  0  0  0  0
   -1.6352   -2.6372   -3.1777 C   0  0  0  0  0  0  0  0  0  0  0  0
   -3.2206   -0.8218   -3.3449 C   0  0  0  0  0  0  0  0  0  0  0  0
   -2.9107   -2.1731   -3.4992 C   0  0  0  0  0  0  0  0  0  0  0  0
   -3.8523   -3.0387   -3.9646 O   0  0  0  0  0  0  0  0  0  0  0  0
   -1.7582    1.3241   -0.4207 H   0  0  0  0  0  0  0  0  0  0  0  0
    0.3537   -0.4969   -0.1445 H   0  0  0  0  0  0  0  0  0  0  0  0
    1.0321    0.3434   -2.5072 H   0  0  0  0  0  0  0  0  0  0  0  0
   -0.2000    1.5715   -2.3720 H   0  0  0  0  0  0  0  0  0  0  0  0
    0.3215   -2.1204   -2.4539 H   0  0  0  0  0  0  0  0  0  0  0  0
   -2.5055    1.1165   -2.7519 H   0  0  0  0  0  0  0  0  0  0  0  0
   -1.3876   -3.6888   -3.2961 H   0  0  0  0  0  0  0  0  0  0  0  0
   -4.2121   -0.4541   -3.5938 H   0  0  0  0  0  0  0  0  0  0  0  0
   -4.6827   -2.5687   -4.1422 H   0  0  0  0  0  0  0  0  0  0  0  0
    1.3649    1.6138    1.3099 N   0  0  0  0  0  0  0  0  0  0  0  0
    2.3519    2.4209    1.9905 C   0  0  2  0  0  0  0  0  0  0  0  0
    3.7310    1.9477    1.5505 C   0  0  0  0  0  0  0  0  0  0  0  0
    3.9410    0.8262    1.0930 O   0  0  0  0  0  0  0  0  0  0  0  0
    2.2001    2.3240    3.5005 C   0  0  0  0  0  0  0  0  0  0  0  0
    0.6271    1.1867    1.8621 H   0  0  0  0  0  0  0  0  0  0  0  0
    2.1973    3.4541    1.6609 H   0  0  0  0  0  0  0  0  0  0  0  0
    2.3515    1.2959    3.8494 H   0  0  0  0  0  0  0  0  0  0  0  0
    2.9301    2.9582    4.0142 H   0  0  0  0  0  0  0  0  0  0  0  0
    1.1976    2.6365    3.8123 H   0  0  0  0  0  0  0  0  0  0  0  0
    4.7071    2.9097    1.7691 N   0  0  0  0  0  0  0  0  0  0  0  0
    6.0986    2.6960    1.4462 C   0  0  0  0  0  0  0  0  0  0  0  0
    4.4397    3.8188    2.1349 H   0  0  0  0  0  0  0  0  0  0  0  0
    6.6243    2.3038    2.3292 H   0  0  0  0  0  0  0  0  0  0  0  0
    6.1765    1.9720    0.6217 H   0  0  0  0  0  0  0  0  0  0  0  0
    6.5548    3.6494    1.1414 H   0  0  0  0  0  0  0  0  0  0  0  0
 23 25  2  0  0  0  0
 22 23  1  0  0  0  0
 24 26  1  0  0  0  0
 22 24  2  0  0  0  0
 25 27  1  0  0  0  0
 26 27  2  0  0  0  0
 21 22  1  0  0  0  0
 27 28  1  0  0  0  0
  1  3  1  0  0  0  0
  1  7  1  0  0  0  0
  1  2  2  0  0  0  0
 39 40  1  0  0  0  0
 40 48  1  0  0  0  0
 40 41  2  0  0  0  0
  8  9  1  0  0  0  0
  9 17  1  0  0  0  0
  9 10  2  0  0  0  0
 18 19  1  0  0  0  0
 19 38  1  0  0  0  0
 19 20  2  0  0  0  0
 39 42  1  0  0  0  0
  8 11  1  0  0  0  0
 48 49  1  0  0  0  0
 18 21  1  0  0  0  0
 38 39  1  0  0  0  0
  7  8  1  0  0  0  0
 17 18  1  0  0  0  0
 23 33  1  0  0  0  0
 24 34  1  0  0  0  0
 25 35  1  0  0  0  0
 26 36  1  0  0  0  0
  3  4  1  0  0  0  0
  3  5  1  0  0  0  0
  3  6  1  0  0  0  0
 42 45  1  0  0  0  0
 42 46  1  0  0  0  0
 42 47  1  0  0  0  0
 11 14  1  0  0  0  0
 11 15  1  0  0  0  0
 11 16  1  0  0  0  0
 49 51  1  0  0  0  0
 49 52  1  0  0  0  0
 49 53  1  0  0  0  0
 21 31  1  0  0  0  0
 21 32  1  0  0  0  0
 39 44  1  0  0  0  0
  8 13  1  0  0  0  0
 18 30  1  0  0  0  0
 48 50  1  0  0  0  0
  7 12  1  0  0  0  0
 38 43  1  0  0  0  0
 17 29  1  0  0  0  0
 28 37  1  0  0  0  0
M  END
$$$$

  -OEChem-05262214473D

 53 53  0     1  0  0  0  0  0999 V2000
   -1.9298    0.2574    3.9747 C   0  0  0  0  0  0  0  0  0  0  0  0
   -0.9825   -0.3573    3.4990 O   0  0  0  0  0  0  0  0  0  0  0  0
   -2.3617   -0.0250    5.3754 C   0  0  0  0  0  0  0  0  0  0  0  0
   -3.1214   -0.8213    5.4288 H   0  0  0  0  0  0  0  0  0  0  0  0
   -1.5305   -0.3726    6.0097 H   0  0  0  0  0  0  0  0  0  0  0  0
   -2.7997    0.8299    5.9150 H   0  0  0  0  0  0  0  0  0  0  0  0
   -2.6795    1.2298    3.3336 N   0  0  0  0  0  0  0  0  0  0  0  0
   -2.4327    1.6559    1.9812 C   0  0  2  0  0  0  0  0  0  0  0  0
   -1.0977    1.0705    1.5400 C   0  0  0  0  0  0  0  0  0  0  0  0
   -0.2256    0.7177    2.3313 O   0  0  0  0  0  0  0  0  0  0  0  0
   -2.4239    3.1726    1.8718 C   0  0  0  0  0  0  0  0  0  0  0  0
   -3.4446    1.6657    3.8454 H   0  0  0  0  0  0  0  0  0  0  0  0
   -3.2368    1.2374    1.3661 H   0  0  0  0  0  0  0  0  0  0  0  0
   -1.6248    3.6099    2.4815 H   0  0  0  0  0  0  0  0  0  0  0  0
   -2.2644    3.4949    0.8375 H   0  0  0  0  0  0  0  0  0  0  0  0
   -3.3741    3.5939    2.2175 H   0  0  0  0  0  0  0  0  0  0  0  0
   -0.9750    1.0274    0.1566 N   0  0  0  0  0  0  0  0  0  0  0  0
    0.2023    0.5266   -0.5070 C   0  0  2  0  0  0  0  0  0  0  0  0
    1.3746    1.3928   -0.0604 C   0  0  0  0  0  0  0  0  0  0  0  0
    2.0327    2.0807   -0.8379 O   0  0  0  0  0  0  0  0  0  0  0  0
    0.0653    0.5612   -2.0335 C   0  0  0  0  0  0  0  0  0  0  0  0
   -0.9795   -0.3989   -2.5476 C   0  0  0  0  0  0  0  0  0  0  0  0
   -0.6696   -1.7501   -2.7020 C   0  0  0  0  0  0  0  0  0  0  0  0
   -2.2550    0.0653   -2.8691 C   0  0  0  0  0  0  0  0  0  0  0  0
   -1.6352   -2.6372   -3.1777 C   0  0  0  0  0  0  0  0  0  0  0  0
   -3.2206   -0.8218   -3.3449 C   0  0  0  0  0  0  0  0  0  0  0  0
   -2.9107   -2.1731   -3.4992 C   0  0  0  0  0  0  0  0  0  0  0  0
   -3.8523   -3.0387   -3.9646 O   0  0  0  0  0  0  0  0  0  0  0  0
   -1.7582    1.3241   -0.4207 H   0  0  0  0  0  0  0  0  0  0  0  0
    0.3537   -0.4969   -0.1445 H   0  0  0  0  0  0  0  0  0  0  0  0
    1.0321    0.3434   -2.5072 H   0  0  0  0  0  0  0  0  0  0  0  0
   -0.2000    1.5715   -2.3720 H   0  0  0  0  0  0  0  0  0  0  0  0
    0.3215   -2.1204   -2.4539 H   0  0  0  0  0  0  0  0  0  0  0  0
   -2.5055    1.1165   -2.7519 H   0  0  0  0  0  0  0  0  0  0  0  0
   -1.3876   -3.6888   -3.2961 H   0  0  0  0  0  0  0  0  0  0  0  0
   -4.2121   -0.4541   -3.5938 H   0  0  0  0  0  0  0  0  0  0  0  0
   -4.6827   -2.5687   -4.1422 H   0  0  0  0  0  0  0  0  0  0  0  0
    1.5636    1.3429    1.3138 N   0  0  0  0  0  0  0  0  0  0  0  0
    2.5929    2.0893    2.0009 C   0  0  2  0  0  0  0  0  0  0  0  0
    3.9136    1.8372    1.2855 C   0  0  0  0  0  0  0  0  0  0  0  0
    4.1182    0.8491    0.5834 O   0  0  0  0  0  0  0  0  0  0  0  0
    2.6828    1.6888    3.4652 C   0  0  0  0  0  0  0  0  0  0  0  0
    0.9475    0.7520    1.8642 H   0  0  0  0  0  0  0  0  0  0  0  0
    2.3266    3.1484    1.9146 H   0  0  0  0  0  0  0  0  0  0  0  0
    2.9488    0.6308    3.5717 H   0  0  0  0  0  0  0  0  0  0  0  0
    3.4435    2.2753    3.9910 H   0  0  0  0  0  0  0  0  0  0  0  0
    1.7235    1.8429    3.9710 H   0  0  0  0  0  0  0  0  0  0  0  0
    4.8514    2.8233    1.5581 N   0  0  0  0  0  0  0  0  0  0  0  0
    6.1865    2.8031    1.0076 C   0  0  0  0  0  0  0  0  0  0  0  0
    4.5889    3.6164    2.1360 H   0  0  0  0  0  0  0  0  0  0  0  0
    6.8655    2.2970    1.7096 H   0  0  0  0  0  0  0  0  0  0  0  0
    6.1799    2.2624    0.0498 H   0  0  0  0  0  0  0  0  0  0  0  0
    6.5311    3.8349    0.8439 H   0  0  0  0  0  0  0  0  0  0  0  0
 23 25  2  0  0  0  0
 22 23  1  0  0  0  0
 24 26  1  0  0  0  0
 22 24  2  0  0  0  0
 25 27  1  0  0  0  0
 26 27  2  0  0  0  0
 21 22  1  0  0  0  0
 27 28  1  0  0  0  0
  1  3  1  0  0  0  0
  1  7  1  0  0  0  0
  1  2  2  0  0  0  0
 39 40  1  0  0  0  0
 40 48  1  0  0  0  0
 40 41  2  0  0  0  0
  8  9  1  0  0  0  0
  9 17  1  0  0  0  0
  9 10  2  0  0  0  0
 18 19  1  0  0  0  0
 19 38  1  0  0  0  0
 19 20  2  0  0  0  0
 39 42  1  0  0  0  0
  8 11  1  0  0  0  0
 48 49  1  0  0  0  0
 18 21  1  0  0  0  0
 38 39  1  0  0  0  0
  7  8  1  0  0  0  0
 17 18  1  0  0  0  0
 23 33  1  0  0  0  0
 24 34  1  0  0  0  0
 25 35  1  0  0  0  0
 26 36  1  0  0  0  0
  3  4  1  0  0  0  0
  3  5  1  0  0  0  0
  3  6  1  0  0  0  0
 42 45  1  0  0  0  0
 42 46  1  0  0  0  0
 42 47  1  0  0  0  0
 11 14  1  0  0  0  0
 11 15  1  0  0  0  0
 11 16  1  0  0  0  0
 49 51  1  0  0  0  0
 49 52  1  0  0  0  0
 49 53  1  0  0  0  0
 21 31  1  0  0  0  0
 21 32  1  0  0  0  0
 39 44  1  0  0  0  0
  8 13  1  0  0  0  0
 18 30  1  0  0  0  0
 48 50  1  0  0  0  0
  7 12  1  0  0  0  0
 38 43  1  0  0  0  0
 17 29  1  0  0  0  0
 28 37  1  0  0  0  0
M  END
$$$$

  -OEChem-05262214473D

 53 53  0     1  0  0  0  0  0999 V2000
   -1.9298    0.2574    3.9747 C   0  0  0  0  0  0  0  0  0  0  0  0
   -0.9825   -0.3573    3.4990 O   0  0  0  0  0  0  0  0  0  0  0  0
   -2.3617   -0.0250    5.3754 C   0  0  0  0  0  0  0  0  0  0  0  0
   -3.1214   -0.8213    5.4288 H   0  0  0  0  0  0  0  0  0  0  0  0
   -1.5305   -0.3726    6.0097 H   0  0  0  0  0  0  0  0  0  0  0  0
   -2.7997    0.8299    5.9150 H   0  0  0  0  0  0  0  0  0  0  0  0
   -2.6795    1.2298    3.3336 N   0  0  0  0  0  0  0  0  0  0  0  0
   -2.4327    1.6559    1.9812 C   0  0  2  0  0  0  0  0  0  0  0  0
   -1.0977    1.0705    1.5400 C   0  0  0  0  0  0  0  0  0  0  0  0
   -0.2256    0.7177    2.3313 O   0  0  0  0  0  0  0  0  0  0  0  0
   -2.4239    3.1726    1.8718 C   0  0  0  0  0  0  0  0  0  0  0  0
   -3.4446    1.6657    3.8454 H   0  0  0  0  0  0  0  0  0  0  0  0
   -3.2368    1.2374    1.3661 H   0  0  0  0  0  0  0  0  0  0  0  0
   -1.6248    3.6099    2.4815 H   0  0  0  0  0  0  0  0  0  0  0  0
   -2.2644    3.4949    0.8375 H   0  0  0  0  0  0  0  0  0  0  0  0
   -3.3741    3.5939    2.2175 H   0  0  0  0  0  0  0  0  0  0  0  0
   -0.9750    1.0274    0.1566 N   0  0  0  0  0  0  0  0  0  0  0  0
    0.2023    0.5266   -0.5070 C   0  0  2  0  0  0  0  0  0  0  0  0
    1.3746    1.3928   -0.0604 C   0  0  0  0  0  0  0  0  0  0  0  0
    1.8613    2.2748   -0.7646 O   0  0  0  0  0  0  0  0  0  0  0  0
    0.0653    0.5612   -2.0335 C   0  0  0  0  0  0  0  0  0  0  0  0
   -0.9795   -0.3989   -2.5476 C   0  0  0  0  0  0  0  0  0  0  0  0
   -0.6696   -1.7501   -2.7020 C   0  0  0  0  0  0  0  0  0  0  0  0
   -2.2550    0.0653   -2.8691 C   0  0  0  0  0  0  0  0  0  0  0  0
   -1.6352   -2.6372   -3.1777 C   0  0  0  0  0  0  0  0  0  0  0  0
   -3.2206   -0.8218   -3.3449 C   0  0  0  0  0  0  0  0  0  0  0  0
   -2.9107   -2.1731   -3.4992 C   0  0  0  0  0  0  0  0  0  0  0  0
   -3.8523   -3.0387   -3.9646 O   0  0  0  0  0  0  0  0  0  0  0  0
   -1.7582    1.3241   -0.4207 H   0  0  0  0  0  0  0  0  0  0  0  0
    0.3537   -0.4969   -0.1445 H   0  0  0  0  0  0  0  0  0  0  0  0
    1.0321    0.3434   -2.5072 H   0  0  0  0  0  0  0  0  0  0  0  0
   -0.2000    1.5715   -2.3720 H   0  0  0  0  0  0  0  0  0  0  0  0
    0.3215   -2.1204   -2.4539 H   0  0  0  0  0  0  0  0  0  0  0  0
   -2.5055    1.1165   -2.7519 H   0  0  0  0  0  0  0  0  0  0  0  0
   -1.3876   -3.6888   -3.2961 H   0  0  0  0  0  0  0  0  0  0  0  0
   -4.2121   -0.4541   -3.5938 H   0  0  0  0  0  0  0  0  0  0  0  0
   -4.6827   -2.5687   -4.1422 H   0  0  0  0  0  0  0  0  0  0  0  0
    1.7766    1.0955    1.2344 N   0  0  0  0  0  0  0  0  0  0  0  0
    2.8524    1.7852    1.9094 C   0  0  2  0  0  0  0  0  0  0  0  0
    4.0594    1.7970    0.9807 C   0  0  0  0  0  0  0  0  0  0  0  0
    4.2128    0.9861    0.0697 O   0  0  0  0  0  0  0  0  0  0  0  0
    3.1920    1.1190    3.2337 C   0  0  0  0  0  0  0  0  0  0  0  0
    1.2903    0.3559    1.7326 H   0  0  0  0  0  0  0  0  0  0  0  0
    2.5119    2.8124    2.0798 H   0  0  0  0  0  0  0  0  0  0  0  0
    3.5352    0.0889    3.0832 H   0  0  0  0  0  0  0  0  0  0  0  0
    3.9877    1.6593    3.7571 H   0  0  0  0  0  0  0  0  0  0  0  0
    2.3150    1.0847    3.8889 H   0  0  0  0  0  0  0  0  0  0  0  0
    4.9662    2.7928    1.3160 N   0  0  0  0  0  0  0  0  0  0  0  0
    6.1988    3.0006    0.5924 C   0  0  0  0  0  0  0  0  0  0  0  0
    4.7485    3.4320    2.0747 H   0  0  0  0  0  0  0  0  0  0  0  0
    7.0078    2.4320    1.0743 H   0  0  0  0  0  0  0  0  0  0  0  0
    6.0770    2.6570   -0.4454 H   0  0  0  0  0  0  0  0  0  0  0  0
    6.4504    4.0714    0.5970 H   0  0  0  0  0  0  0  0  0  0  0  0
 23 25  2  0  0  0  0
 22 23  1  0  0  0  0
 24 26  1  0  0  0  0
 22 24  2  0  0  0  0
 25 27  1  0  0  0  0
 26 27  2  0  0  0  0
 21 22  1  0  0  0  0
 27 28  1  0  0  0  0
  1  3  1  0  0  0  0
  1  7  1  0  0  0  0
  1  2  2  0  0  0  0
 39 40  1  0  0  0  0
 40 48  1  0  0  0  0
 40 41  2  0  0  0  0
  8  9  1  0  0  0  0
  9 17  1  0  0  0  0
  9 10  2  0  0  0  0
 18 19  1  0  0  0  0
 19 38  1  0  0  0  0
 19 20  2  0  0  0  0
 39 42  1  0  0  0  0
  8 11  1  0  0  0  0
 48 49  1  0  0  0  0
 18 21  1  0  0  0  0
 38 39  1  0  0  0  0
  7  8  1  0  0  0  0
 17 18  1  0  0  0  0
 23 33  1  0  0  0  0
 24 34  1  0  0  0  0
 25 35  1  0  0  0  0
 26 36  1  0  0  0  0
  3  4  1  0  0  0  0
  3  5  1  0  0  0  0
  3  6  1  0  0  0  0
 42 45  1  0  0  0  0
 42 46  1  0  0  0  0
 42 47  1  0  0  0  0
 11 14  1  0  0  0  0
 11 15  1  0  0  0  0
 11 16  1  0  0  0  0
 49 51  1  0  0  0  0
 49 52  1  0  0  0  0
 49 53  1  0  0  0  0
 21 31  1  0  0  0  0
 21 32  1  0  0  0  0
 39 44  1  0  0  0  0
  8 13  1  0  0  0  0
 18 30  1  0  0  0  0
 48 50  1  0  0  0  0
  7 12  1  0  0  0  0
 38 43  1  0  0  0  0
 17 29  1  0  0  0  0
 28 37  1  0  0  0  0
M  END
$$$$

  -OEChem-05262214473D

 53 53  0     1  0  0  0  0  0999 V2000
   -1.9298    0.2574    3.9747 C   0  0  0  0  0  0  0  0  0  0  0  0
   -0.9825   -0.3573    3.4990 O   0  0  0  0  0  0  0  0  0  0  0  0
   -2.3617   -0.0250    5.3754 C   0  0  0  0  0  0  0  0  0  0  0  0
   -3.1214   -0.8213    5.4288 H   0  0  0  0  0  0  0  0  0  0  0  0
   -1.5305   -0.3726    6.0097 H   0  0  0  0  0  0  0  0  0  0  0  0
   -2.7997    0.8299    5.9150 H   0  0  0  0  0  0  0  0  0  0  0  0
   -2.6795    1.2298    3.3336 N   0  0  0  0  0  0  0  0  0  0  0  0
   -2.4327    1.6559    1.9812 C   0  0  2  0  0  0  0  0  0  0  0  0
   -1.0977    1.0705    1.5400 C   0  0  0  0  0  0  0  0  0  0  0  0
   -0.2256    0.7177    2.3313 O   0  0  0  0  0  0  0  0  0  0  0  0
   -2.4239    3.1726    1.8718 C   0  0  0  0  0  0  0  0  0  0  0  0
   -3.4446    1.6657    3.8454 H   0  0  0  0  0  0  0  0  0  0  0  0
   -3.2368    1.2374    1.3661 H   0  0  0  0  0  0  0  0  0  0  0  0
   -1.6248    3.6099    2.4815 H   0  0  0  0  0  0  0  0  0  0  0  0
   -2.2644    3.4949    0.8375 H   0  0  0  0  0  0  0  0  0  0  0  0
   -3.3741    3.5939    2.2175 H   0  0  0  0  0  0  0  0  0  0  0  0
   -0.9750    1.0274    0.1566 N   0  0  0  0  0  0  0  0  0  0  0  0
    0.2023    0.5266   -0.5070 C   0  0  2  0  0  0  0  0  0  0  0  0
    1.3746    1.3928   -0.0604 C   0  0  0  0  0  0  0  0  0  0  0  0
    1.6918    2.4348   -0.6299 O   0  0  0  0  0  0  0  0  0  0  0  0
    0.0653    0.5612   -2.0335 C   0  0  0  0  0  0  0  0  0  0  0  0
   -0.9795   -0.3989   -2.5476 C   0  0  0  0  0  0  0  0  0  0  0  0
   -0.6696   -1.7501   -2.7020 C   0  0  0  0  0  0  0  0  0  0  0  0
   -2.2550    0.0653   -2.8691 C   0  0  0  0  0  0  0  0  0  0  0  0
   -1.6352   -2.6372   -3.1777 C   0  0  0  0  0  0  0  0  0  0  0  0
   -3.2206   -0.8218   -3.3449 C   0  0  0  0  0  0  0  0  0  0  0  0
   -2.9107   -2.1731   -3.4992 C   0  0  0  0  0  0  0  0  0  0  0  0
   -3.8523   -3.0387   -3.9646 O   0  0  0  0  0  0  0  0  0  0  0  0
   -1.7582    1.3241   -0.4207 H   0  0  0  0  0  0  0  0  0  0  0  0
    0.3537   -0.4969   -0.1445 H   0  0  0  0  0  0  0  0  0  0  0  0
    1.0321    0.3434   -2.5072 H   0  0  0  0  0  0  0  0  0  0  0  0
   -0.2000    1.5715   -2.3720 H   0  0  0  0  0  0  0  0  0  0  0  0
    0.3215   -2.1204   -2.4539 H   0  0  0  0  0  0  0  0  0  0  0  0
   -2.5055    1.1165   -2.7519 H   0  0  0  0  0  0  0  0  0  0  0  0
   -1.3876   -3.6888   -3.2961 H   0  0  0  0  0  0  0  0  0  0  0  0
   -4.2121   -0.4541   -3.5938 H   0  0  0  0  0  0  0  0  0  0  0  0
   -4.6827   -2.5687   -4.1422 H   0  0  0  0  0  0  0  0  0  0  0  0
    1.9895    0.8884    1.0772 N   0  0  0  0  0  0  0  0  0  0  0  0
    3.1127    1.5293    1.7224 C   0  0  2  0  0  0  0  0  0  0  0  0
    4.1585    1.8300    0.6568 C   0  0  0  0  0  0  0  0  0  0  0  0
    4.2182    1.2278   -0.4132 O   0  0  0  0  0  0  0  0  0  0  0  0
    3.6931    0.6533    2.8217 C   0  0  0  0  0  0  0  0  0  0  0  0
    1.6321    0.0255    1.4763 H   0  0  0  0  0  0  0  0  0  0  0  0
    2.7407    2.4690    2.1452 H   0  0  0  0  0  0  0  0  0  0  0  0
    4.0710   -0.2928    2.4172 H   0  0  0  0  0  0  0  0  0  0  0  0
    4.5258    1.1521    3.3285 H   0  0  0  0  0  0  0  0  0  0  0  0
    2.9317    0.4135    3.5718 H   0  0  0  0  0  0  0  0  0  0  0  0
    5.0438    2.8202    1.0591 N   0  0  0  0  0  0  0  0  0  0  0  0
    6.1346    3.2749    0.2289 C   0  0  0  0  0  0  0  0  0  0  0  0
    4.9076    3.2782    1.9554 H   0  0  0  0  0  0  0  0  0  0  0  0
    7.0416    2.6996    0.4666 H   0  0  0  0  0  0  0  0  0  0  0  0
    5.8749    3.1288   -0.8300 H   0  0  0  0  0  0  0  0  0  0  0  0
    6.3181    4.3430    0.4174 H   0  0  0  0  0  0  0  0  0  0  0  0
 23 25  2  0  0  0  0
 22 23  1  0  0  0  0
 24 26  1  0  0  0  0
 22 24  2  0  0  0  0
 25 27  1  0  0  0  0
 26 27  2  0  0  0  0
 21 22  1  0  0  0  0
 27 28  1  0  0  0  0
  1  3  1  0  0  0  0
  1  7  1  0  0  0  0
  1  2  2  0  0  0  0
 39 40  1  0  0  0  0
 40 48  1  0  0  0  0
 40 41  2  0  0  0  0
  8  9  1  0  0  0  0
  9 17  1  0  0  0  0
  9 10  2  0  0  0  0
 18 19  1  0  0  0  0
 19 38  1  0  0  0  0
 19 20  2  0  0  0  0
 39 42  1  0  0  0  0
  8 11  1  0  0  0  0
 48 49  1  0  0  0  0
 18 21  1  0  0  0  0
 38 39  1  0  0  0  0
  7  8  1  0  0  0  0
 17 18  1  0  0  0  0
 23 33  1  0  0  0  0
 24 34  1  0  0  0  0
 25 35  1  0  0  0  0
 26 36  1  0  0  0  0
  3  4  1  0  0  0  0
  3  5  1  0  0  0  0
  3  6  1  0  0  0  0
 42 45  1  0  0  0  0
 42 46  1  0  0  0  0
 42 47  1  0  0  0  0
 11 14  1  0  0  0  0
 11 15  1  0  0  0  0
 11 16  1  0  0  0  0
 49 51  1  0  0  0  0
 49 52  1  0  0  0  0
 49 53  1  0  0  0  0
 21 31  1  0  0  0  0
 21 32  1  0  0  0  0
 39 44  1  0  0  0  0
  8 13  1  0  0  0  0
 18 30  1  0  0  0  0
 48 50  1  0  0  0  0
  7 12  1  0  0  0  0
 38 43  1  0  0  0  0
 17 29  1  0  0  0  0
 28 37  1  0  0  0  0
M  END
$$$$

  -OEChem-05262214473D

 53 53  0     1  0  0  0  0  0999 V2000
   -1.9298    0.2574    3.9747 C   0  0  0  0  0  0  0  0  0  0  0  0
   -0.9825   -0.3573    3.4990 O   0  0  0  0  0  0  0  0  0  0  0  0
   -2.3617   -0.0250    5.3754 C   0  0  0  0  0  0  0  0  0  0  0  0
   -3.1214   -0.8213    5.4288 H   0  0  0  0  0  0  0  0  0  0  0  0
   -1.5305   -0.3726    6.0097 H   0  0  0  0  0  0  0  0  0  0  0  0
   -2.7997    0.8299    5.9150 H   0  0  0  0  0  0  0  0  0  0  0  0
   -2.6795    1.2298    3.3336 N   0  0  0  0  0  0  0  0  0  0  0  0
   -2.4327    1.6559    1.9812 C   0  0  2  0  0  0  0  0  0  0  0  0
   -1.0977    1.0705    1.5400 C   0  0  0  0  0  0  0  0  0  0  0  0
   -0.2256    0.7177    2.3313 O   0  0  0  0  0  0  0  0  0  0  0  0
   -2.4239    3.1726    1.8718 C   0  0  0  0  0  0  0  0  0  0  0  0
   -3.4446    1.6657    3.8454 H   0  0  0  0  0  0  0  0  0  0  0  0
   -3.2368    1.2374    1.3661 H   0  0  0  0  0  0  0  0  0  0  0  0
   -1.6248    3.6099    2.4815 H   0  0  0  0  0  0  0  0  0  0  0  0
   -2.2644    3.4949    0.8375 H   0  0  0  0  0  0  0  0  0  0  0  0
   -3.3741    3.5939    2.2175 H   0  0  0  0  0  0  0  0  0  0  0  0
   -0.9750    1.0274    0.1566 N   0  0  0  0  0  0  0  0  0  0  0  0
    0.2023    0.5266   -0.5070 C   0  0  2  0  0  0  0  0  0  0  0  0
    1.3746    1.3928   -0.0604 C   0  0  0  0  0  0  0  0  0  0  0  0
    1.5358    2.5497   -0.4431 O   0  0  0  0  0  0  0  0  0  0  0  0
    0.0653    0.5612   -2.0335 C   0  0  0  0  0  0  0  0  0  0  0  0
   -0.9795   -0.3989   -2.5476 C   0  0  0  0  0  0  0  0  0  0  0  0
   -0.6696   -1.7501   -2.7020 C   0  0  0  0  0  0  0  0  0  0  0  0
   -2.2550    0.0653   -2.8691 C   0  0  0  0  0  0  0  0  0  0  0  0
   -1.6352   -2.6372   -3.1777 C   0  0  0  0  0  0  0  0  0  0  0  0
   -3.2206   -0.8218   -3.3449 C   0  0  0  0  0  0  0  0  0  0  0  0
   -2.9107   -2.1731   -3.4992 C   0  0  0  0  0  0  0  0  0  0  0  0
   -3.8523   -3.0387   -3.9646 O   0  0  0  0  0  0  0  0  0  0  0  0
   -1.7582    1.3241   -0.4207 H   0  0  0  0  0  0  0  0  0  0  0  0
    0.3537   -0.4969   -0.1445 H   0  0  0  0  0  0  0  0  0  0  0  0
    1.0321    0.3434   -2.5072 H   0  0  0  0  0  0  0  0  0  0  0  0
   -0.2000    1.5715   -2.3720 H   0  0  0  0  0  0  0  0  0  0  0  0
    0.3215   -2.1204   -2.4539 H   0  0  0  0  0  0  0  0  0  0  0  0
   -2.5055    1.1165   -2.7519 H   0  0  0  0  0  0  0  0  0  0  0  0
   -1.3876   -3.6888   -3.2961 H   0  0  0  0  0  0  0  0  0  0  0  0
   -4.2121   -0.4541   -3.5938 H   0  0  0  0  0  0  0  0  0  0  0  0
   -4.6827   -2.5687   -4.1422 H   0  0  0  0  0  0  0  0  0  0  0  0
    2.1877    0.7359    0.8528 N   0  0  0  0  0  0  0  0  0  0  0  0
    3.3561    1.3392    1.4526 C   0  0  2  0  0  0  0  0  0  0  0  0
    4.2041    1.9337    0.3360 C   0  0  0  0  0  0  0  0  0  0  0  0
    4.1340    1.5578   -0.8323 O   0  0  0  0  0  0  0  0  0  0  0  0
    4.1518    0.3234    2.2574 C   0  0  0  0  0  0  0  0  0  0  0  0
    1.9496   -0.2168    1.1126 H   0  0  0  0  0  0  0  0  0  0  0  0
    2.9973    2.1416    2.1064 H   0  0  0  0  0  0  0  0  0  0  0  0
    4.5195   -0.4884    1.6192 H   0  0  0  0  0  0  0  0  0  0  0  0
    5.0209    0.7882    2.7345 H   0  0  0  0  0  0  0  0  0  0  0  0
    3.5317   -0.1250    3.0411 H   0  0  0  0  0  0  0  0  0  0  0  0
    5.0790    2.9036    0.8050 N   0  0  0  0  0  0  0  0  0  0  0  0
    5.9984    3.6074   -0.0583 C   0  0  0  0  0  0  0  0  0  0  0  0
    5.0554    3.1654    1.7862 H   0  0  0  0  0  0  0  0  0  0  0  0
    6.9645    3.0817   -0.0722 H   0  0  0  0  0  0  0  0  0  0  0  0
    5.5873    3.6458   -1.0779 H   0  0  0  0  0  0  0  0  0  0  0  0
    6.1434    4.6310    0.3174 H   0  0  0  0  0  0  0  0  0  0  0  0
 23 25  2  0  0  0  0
 22 23  1  0  0  0  0
 24 26  1  0  0  0  0
 22 24  2  0  0  0  0
 25 27  1  0  0  0  0
 26 27  2  0  0  0  0
 21 22  1  0  0  0  0
 27 28  1  0  0  0  0
  1  3  1  0  0  0  0
  1  7  1  0  0  0  0
  1  2  2  0  0  0  0
 39 40  1  0  0  0  0
 40 48  1  0  0  0  0
 40 41  2  0  0  0  0
  8  9  1  0  0  0  0
  9 17  1  0  0  0  0
  9 10  2  0  0  0  0
 18 19  1  0  0  0  0
 19 38  1  0  0  0  0
 19 20  2  0  0  0  0
 39 42  1  0  0  0  0
  8 11  1  0  0  0  0
 48 49  1  0  0  0  0
 18 21  1  0  0  0  0
 38 39  1  0  0  0  0
  7  8  1  0  0  0  0
 17 18  1  0  0  0  0
 23 33  1  0  0  0  0
 24 34  1  0  0  0  0
 25 35  1  0  0  0  0
 26 36  1  0  0  0  0
  3  4  1  0  0  0  0
  3  5  1  0  0  0  0
  3  6  1  0  0  0  0
 42 45  1  0  0  0  0
 42 46  1  0  0  0  0
 42 47  1  0  0  0  0
 11 14  1  0  0  0  0
 11 15  1  0  0  0  0
 11 16  1  0  0  0  0
 49 51  1  0  0  0  0
 49 52  1  0  0  0  0
 49 53  1  0  0  0  0
 21 31  1  0  0  0  0
 21 32  1  0  0  0  0
 39 44  1  0  0  0  0
  8 13  1  0  0  0  0
 18 30  1  0  0  0  0
 48 50  1  0  0  0  0
  7 12  1  0  0  0  0
 38 43  1  0  0  0  0
 17 29  1  0  0  0  0
 28 37  1  0  0  0  0
M  END
$$$$

  -OEChem-05262214473D

 53 53  0     1  0  0  0  0  0999 V2000
   -1.9298    0.2574    3.9747 C   0  0  0  0  0  0  0  0  0  0  0  0
   -0.9825   -0.3573    3.4990 O   0  0  0  0  0  0  0  0  0  0  0  0
   -2.3617   -0.0250    5.3754 C   0  0  0  0  0  0  0  0  0  0  0  0
   -3.1214   -0.8213    5.4288 H   0  0  0  0  0  0  0  0  0  0  0  0
   -1.5305   -0.3726    6.0097 H   0  0  0  0  0  0  0  0  0  0  0  0
   -2.7997    0.8299    5.9150 H   0  0  0  0  0  0  0  0  0  0  0  0
   -2.6795    1.2298    3.3336 N   0  0  0  0  0  0  0  0  0  0  0  0
   -2.4327    1.6559    1.9812 C   0  0  2  0  0  0  0  0  0  0  0  0
   -1.0977    1.0705    1.5400 C   0  0  0  0  0  0  0  0  0  0  0  0
   -0.2256    0.7177    2.3313 O   0  0  0  0  0  0  0  0  0  0  0  0
   -2.4239    3.1726    1.8718 C   0  0  0  0  0  0  0  0  0  0  0  0
   -3.4446    1.6657    3.8454 H   0  0  0  0  0  0  0  0  0  0  0  0
   -3.2368    1.2374    1.3661 H   0  0  0  0  0  0  0  0  0  0  0  0
   -1.6248    3.6099    2.4815 H   0  0  0  0  0  0  0  0  0  0  0  0
   -2.2644    3.4949    0.8375 H   0  0  0  0  0  0  0  0  0  0  0  0
   -3.3741    3.5939    2.2175 H   0  0  0  0  0  0  0  0  0  0  0  0
   -0.9750    1.0274    0.1566 N   0  0  0  0  0  0  0  0  0  0  0  0
    0.2023    0.5266   -0.5070 C   0  0  2  0  0  0  0  0  0  0  0  0
    1.3746    1.3928   -0.0604 C   0  0  0  0  0  0  0  0  0  0  0  0
    1.4038    2.6116   -0.2168 O   0  0  0  0  0  0  0  0  0  0  0  0
    0.0653    0.5612   -2.0335 C   0  0  0  0  0  0  0  0  0  0  0  0
   -0.9795   -0.3989   -2.5476 C   0  0  0  0  0  0  0  0  0  0  0  0
   -0.6696   -1.7501   -2.7020 C   0  0  0  0  0  0  0  0  0  0  0  0
   -2.2550    0.0653   -2.8691 C   0  0  0  0  0  0  0  0  0  0  0  0
   -1.6352   -2.6372   -3.1777 C   0  0  0  0  0  0  0  0  0  0  0  0
   -3.2206   -0.8218   -3.3449 C   0  0  0  0  0  0  0  0  0  0  0  0
   -2.9107   -2.1731   -3.4992 C   0  0  0  0  0  0  0  0  0  0  0  0
   -3.8523   -3.0387   -3.9646 O   0  0  0  0  0  0  0  0  0  0  0  0
   -1.7582    1.3241   -0.4207 H   0  0  0  0  0  0  0  0  0  0  0  0
    0.3537   -0.4969   -0.1445 H   0  0  0  0  0  0  0  0  0  0  0  0
    1.0321    0.3434   -2.5072 H   0  0  0  0  0  0  0  0  0  0  0  0
   -0.2000    1.5715   -2.3720 H   0  0  0  0  0  0  0  0  0  0  0  0
    0.3215   -2.1204   -2.4539 H   0  0  0  0  0  0  0  0  0  0  0  0
   -2.5055    1.1165   -2.7519 H   0  0  0  0  0  0  0  0  0  0  0  0
   -1.3876   -3.6888   -3.2961 H   0  0  0  0  0  0  0  0  0  0  0  0
   -4.2121   -0.4541   -3.5938 H   0  0  0  0  0  0  0  0  0  0  0  0
   -4.6827   -2.5687   -4.1422 H   0  0  0  0  0  0  0  0  0  0  0  0
    2.3577    0.6483    0.5766 N   0  0  0  0  0  0  0  0  0  0  0  0
    3.5658    1.2276    1.1183 C   0  0  2  0  0  0  0  0  0  0  0  0
    4.1930    2.1013    0.0400 C   0  0  0  0  0  0  0  0  0  0  0  0
    3.9661    1.9536   -1.1590 O   0  0  0  0  0  0  0  0  0  0  0  0
    4.5369    0.1518    1.5792 C   0  0  0  0  0  0  0  0  0  0  0  0
    2.2211   -0.3543    0.6665 H   0  0  0  0  0  0  0  0  0  0  0  0
    3.2644    1.8526    1.9660 H   0  0  0  0  0  0  0  0  0  0  0  0
    4.8503   -0.4844    0.7435 H   0  0  0  0  0  0  0  0  0  0  0  0
    5.4394    0.5925    2.0155 H   0  0  0  0  0  0  0  0  0  0  0  0
    4.0741   -0.4940    2.3332 H   0  0  0  0  0  0  0  0  0  0  0  0
    5.0692    3.0375    0.5711 N   0  0  0  0  0  0  0  0  0  0  0  0
    5.7994    3.9753   -0.2495 C   0  0  0  0  0  0  0  0  0  0  0  0
    5.1818    3.1014    1.5785 H   0  0  0  0  0  0  0  0  0  0  0  0
    6.7819    3.5521   -0.5052 H   0  0  0  0  0  0  0  0  0  0  0  0
    5.2339    4.1728   -1.1721 H   0  0  0  0  0  0  0  0  0  0  0  0
    5.9381    4.9159    0.3039 H   0  0  0  0  0  0  0  0  0  0  0  0
 23 25  2  0  0  0  0
 22 23  1  0  0  0  0
 24 26  1  0  0  0  0
 22 24  2  0  0  0  0
 25 27  1  0  0  0  0
 26 27  2  0  0  0  0
 21 22  1  0  0  0  0
 27 28  1  0  0  0  0
  1  3  1  0  0  0  0
  1  7  1  0  0  0  0
  1  2  2  0  0  0  0
 39 40  1  0  0  0  0
 40 48  1  0  0  0  0
 40 41  2  0  0  0  0
  8  9  1  0  0  0  0
  9 17  1  0  0  0  0
  9 10  2  0  0  0  0
 18 19  1  0  0  0  0
 19 38  1  0  0  0  0
 19 20  2  0  0  0  0
 39 42  1  0  0  0  0
  8 11  1  0  0  0  0
 48 49  1  0  0  0  0
 18 21  1  0  0  0  0
 38 39  1  0  0  0  0
  7  8  1  0  0  0  0
 17 18  1  0  0  0  0
 23 33  1  0  0  0  0
 24 34  1  0  0  0  0
 25 35  1  0  0  0  0
 26 36  1  0  0  0  0
  3  4  1  0  0  0  0
  3  5  1  0  0  0  0
  3  6  1  0  0  0  0
 42 45  1  0  0  0  0
 42 46  1  0  0  0  0
 42 47  1  0  0  0  0
 11 14  1  0  0  0  0
 11 15  1  0  0  0  0
 11 16  1  0  0  0  0
 49 51  1  0  0  0  0
 49 52  1  0  0  0  0
 49 53  1  0  0  0  0
 21 31  1  0  0  0  0
 21 32  1  0  0  0  0
 39 44  1  0  0  0  0
  8 13  1  0  0  0  0
 18 30  1  0  0  0  0
 48 50  1  0  0  0  0
  7 12  1  0  0  0  0
 38 43  1  0  0  0  0
 17 29  1  0  0  0  0
 28 37  1  0  0  0  0
M  END
$$$$

  -OEChem-05262214473D

 53 53  0     1  0  0  0  0  0999 V2000
   -1.9298    0.2574    3.9747 C   0  0  0  0  0  0  0  0  0  0  0  0
   -0.9825   -0.3573    3.4990 O   0  0  0  0  0  0  0  0  0  0  0  0
   -2.3617   -0.0250    5.3754 C   0  0  0  0  0  0  0  0  0  0  0  0
   -3.1214   -0.8213    5.4288 H   0  0  0  0  0  0  0  0  0  0  0  0
   -1.5305   -0.3726    6.0097 H   0  0  0  0  0  0  0  0  0  0  0  0
   -2.7997    0.8299    5.9150 H   0  0  0  0  0  0  0  0  0  0  0  0
   -2.6795    1.2298    3.3336 N   0  0  0  0  0  0  0  0  0  0  0  0
   -2.4327    1.6559    1.9812 C   0  0  2  0  0  0  0  0  0  0  0  0
   -1.0977    1.0705    1.5400 C   0  0  0  0  0  0  0  0  0  0  0  0
   -0.2256    0.7177    2.3313 O   0  0  0  0  0  0  0  0  0  0  0  0
   -2.4239    3.1726    1.8718 C   0  0  0  0  0  0  0  0  0  0  0  0
   -3.4446    1.6657    3.8454 H   0  0  0  0  0  0  0  0  0  0  0  0
   -3.2368    1.2374    1.3661 H   0  0  0  0  0  0  0  0  0  0  0  0
   -1.6248    3.6099    2.4815 H   0  0  0  0  0  0  0  0  0  0  0  0
   -2.2644    3.4949    0.8375 H   0  0  0  0  0  0  0  0  0  0  0  0
   -3.3741    3.5939    2.2175 H   0  0  0  0  0  0  0  0  0  0  0  0
   -0.9750    1.0274    0.1566 N   0  0  0  0  0  0  0  0  0  0  0  0
    0.2023    0.5266   -0.5070 C   0  0  2  0  0  0  0  0  0  0  0  0
    1.3746    1.3928   -0.0604 C   0  0  0  0  0  0  0  0  0  0  0  0
    1.3049    2.6164    0.0335 O   0  0  0  0  0  0  0  0  0  0  0  0
    0.0653    0.5612   -2.0335 C   0  0  0  0  0  0  0  0  0  0  0  0
   -0.9795   -0.3989   -2.5476 C   0  0  0  0  0  0  0  0  0  0  0  0
   -0.6696   -1.7501   -2.7020 C   0  0  0  0  0  0  0  0  0  0  0  0
   -2.2550    0.0653   -2.8691 C   0  0  0  0  0  0  0  0  0  0  0  0
   -1.6352   -2.6372   -3.1777 C   0  0  0  0  0  0  0  0  0  0  0  0
   -3.2206   -0.8218   -3.3449 C   0  0  0  0  0  0  0  0  0  0  0  0
   -2.9107   -2.1731   -3.4992 C   0  0  0  0  0  0  0  0  0  0  0  0
   -3.8523   -3.0387   -3.9646 O   0  0  0  0  0  0  0  0  0  0  0  0
   -1.7582    1.3241   -0.4207 H   0  0  0  0  0  0  0  0  0  0  0  0
    0.3537   -0.4969   -0.1445 H   0  0  0  0  0  0  0  0  0  0  0  0
    1.0321    0.3434   -2.5072 H   0  0  0  0  0  0  0  0  0  0  0  0
   -0.2000    1.5715   -2.3720 H   0  0  0  0  0  0  0  0  0  0  0  0
    0.3215   -2.1204   -2.4539 H   0  0  0  0  0  0  0  0  0  0  0  0
   -2.5055    1.1165   -2.7519 H   0  0  0  0  0  0  0  0  0  0  0  0
   -1.3876   -3.6888   -3.2961 H   0  0  0  0  0  0  0  0  0  0  0  0
   -4.2121   -0.4541   -3.5938 H   0  0  0  0  0  0  0  0  0  0  0  0
   -4.6827   -2.5687   -4.1422 H   0  0  0  0  0  0  0  0  0  0  0  0
    2.4879    0.6315    0.2673 N   0  0  0  0  0  0  0  0  0  0  0  0
    3.7278    1.2023    0.7424 C   0  0  2  0  0  0  0  0  0  0  0  0
    4.1261    2.3212   -0.2109 C   0  0  0  0  0  0  0  0  0  0  0  0
    3.7259    2.3881   -1.3712 O   0  0  0  0  0  0  0  0  0  0  0  0
    4.8222    0.1503    0.8334 C   0  0  0  0  0  0  0  0  0  0  0  0
    2.4283   -0.3777    0.1682 H   0  0  0  0  0  0  0  0  0  0  0  0
    3.5236    1.6216    1.7336 H   0  0  0  0  0  0  0  0  0  0  0  0
    5.0406   -0.2812   -0.1503 H   0  0  0  0  0  0  0  0  0  0  0  0
    5.7528    0.5784    1.2205 H   0  0  0  0  0  0  0  0  0  0  0  0
    4.5218   -0.6684    1.4962 H   0  0  0  0  0  0  0  0  0  0  0  0
    5.0152    3.2126    0.3731 N   0  0  0  0  0  0  0  0  0  0  0  0
    5.5511    4.3537   -0.3316 C   0  0  0  0  0  0  0  0  0  0  0  0
    5.2782    3.0904    1.3466 H   0  0  0  0  0  0  0  0  0  0  0  0
    6.5062    4.0788   -0.8029 H   0  0  0  0  0  0  0  0  0  0  0  0
    4.8388    4.6737   -1.1063 H   0  0  0  0  0  0  0  0  0  0  0  0
    5.7162    5.1781    0.3777 H   0  0  0  0  0  0  0  0  0  0  0  0
 23 25  2  0  0  0  0
 22 23  1  0  0  0  0
 24 26  1  0  0  0  0
 22 24  2  0  0  0  0
 25 27  1  0  0  0  0
 26 27  2  0  0  0  0
 21 22  1  0  0  0  0
 27 28  1  0  0  0  0
  1  3  1  0  0  0  0
  1  7  1  0  0  0  0
  1  2  2  0  0  0  0
 39 40  1  0  0  0  0
 40 48  1  0  0  0  0
 40 41  2  0  0  0  0
  8  9  1  0  0  0  0
  9 17  1  0  0  0  0
  9 10  2  0  0  0  0
 18 19  1  0  0  0  0
 19 38  1  0  0  0  0
 19 20  2  0  0  0  0
 39 42  1  0  0  0  0
  8 11  1  0  0  0  0
 48 49  1  0  0  0  0
 18 21  1  0  0  0  0
 38 39  1  0  0  0  0
  7  8  1  0  0  0  0
 17 18  1  0  0  0  0
 23 33  1  0  0  0  0
 24 34  1  0  0  0  0
 25 35  1  0  0  0  0
 26 36  1  0  0  0  0
  3  4  1  0  0  0  0
  3  5  1  0  0  0  0
  3  6  1  0  0  0  0
 42 45  1  0  0  0  0
 42 46  1  0  0  0  0
 42 47  1  0  0  0  0
 11 14  1  0  0  0  0
 11 15  1  0  0  0  0
 11 16  1  0  0  0  0
 49 51  1  0  0  0  0
 49 52  1  0  0  0  0
 49 53  1  0  0  0  0
 21 31  1  0  0  0  0
 21 32  1  0  0  0  0
 39 44  1  0  0  0  0
  8 13  1  0  0  0  0
 18 30  1  0  0  0  0
 48 50  1  0  0  0  0
  7 12  1  0  0  0  0
 38 43  1  0  0  0  0
 17 29  1  0  0  0  0
 28 37  1  0  0  0  0
M  END
$$$$

  -OEChem-05262214473D

 53 53  0     1  0  0  0  0  0999 V2000
   -1.9298    0.2574    3.9747 C   0  0  0  0  0  0  0  0  0  0  0  0
   -0.9825   -0.3573    3.4990 O   0  0  0  0  0  0  0  0  0  0  0  0
   -2.3617   -0.0250    5.3754 C   0  0  0  0  0  0  0  0  0  0  0  0
   -3.1214   -0.8213    5.4288 H   0  0  0  0  0  0  0  0  0  0  0  0
   -1.5305   -0.3726    6.0097 H   0  0  0  0  0  0  0  0  0  0  0  0
   -2.7997    0.8299    5.9150 H   0  0  0  0  0  0  0  0  0  0  0  0
   -2.6795    1.2298    3.3336 N   0  0  0  0  0  0  0  0  0  0  0  0
   -2.4327    1.6559    1.9812 C   0  0  2  0  0  0  0  0  0  0  0  0
   -1.0977    1.0705    1.5400 C   0  0  0  0  0  0  0  0  0  0  0  0
   -0.2256    0.7177    2.3313 O   0  0  0  0  0  0  0  0  0  0  0  0
   -2.4239    3.1726    1.8718 C   0  0  0  0  0  0  0  0  0  0  0  0
   -3.4446    1.6657    3.8454 H   0  0  0  0  0  0  0  0  0  0  0  0
   -3.2368    1.2374    1.3661 H   0  0  0  0  0  0  0  0  0  0  0  0
   -1.6248    3.6099    2.4815 H   0  0  0  0  0  0  0  0  0  0  0  0
   -2.2644    3.4949    0.8375 H   0  0  0  0  0  0  0  0  0  0  0  0
   -3.3741    3.5939    2.2175 H   0  0  0  0  0  0  0  0  0  0  0  0
   -0.9750    1.0274    0.1566 N   0  0  0  0  0  0  0  0  0  0  0  0
    0.2023    0.5266   -0.5070 C   0  0  2  0  0  0  0  0  0  0  0  0
    1.3746    1.3928   -0.0604 C   0  0  0  0  0  0  0  0  0  0  0  0
    1.2458    2.5637    0.2907 O   0  0  0  0  0  0  0  0  0  0  0  0
    0.0653    0.5612   -2.0335 C   0  0  0  0  0  0  0  0  0  0  0  0
   -0.9795   -0.3989   -2.5476 C   0  0  0  0  0  0  0  0  0  0  0  0
   -0.6696   -1.7501   -2.7020 C   0  0  0  0  0  0  0  0  0  0  0  0
   -2.2550    0.0653   -2.8691 C   0  0  0  0  0  0  0  0  0  0  0  0
   -1.6352   -2.6372   -3.1777 C   0  0  0  0  0  0  0  0  0  0  0  0
   -3.2206   -0.8218   -3.3449 C   0  0  0  0  0  0  0  0  0  0  0  0
   -2.9107   -2.1731   -3.4992 C   0  0  0  0  0  0  0  0  0  0  0  0
   -3.8523   -3.0387   -3.9646 O   0  0  0  0  0  0  0  0  0  0  0  0
   -1.7582    1.3241   -0.4207 H   0  0  0  0  0  0  0  0  0  0  0  0
    0.3537   -0.4969   -0.1445 H   0  0  0  0  0  0  0  0  0  0  0  0
    1.0321    0.3434   -2.5072 H   0  0  0  0  0  0  0  0  0  0  0  0
   -0.2000    1.5715   -2.3720 H   0  0  0  0  0  0  0  0  0  0  0  0
    0.3215   -2.1204   -2.4539 H   0  0  0  0  0  0  0  0  0  0  0  0
   -2.5055    1.1165   -2.7519 H   0  0  0  0  0  0  0  0  0  0  0  0
   -1.3876   -3.6888   -3.2961 H   0  0  0  0  0  0  0  0  0  0  0  0
   -4.2121   -0.4541   -3.5938 H   0  0  0  0  0  0  0  0  0  0  0  0
   -4.6827   -2.5687   -4.1422 H   0  0  0  0  0  0  0  0  0  0  0  0
    2.5695    0.6867   -0.0539 N   0  0  0  0  0  0  0  0  0  0  0  0
    3.8308    1.2649    0.3504 C   0  0  2  0  0  0  0  0  0  0  0  0
    4.0079    2.5785   -0.3996 C   0  0  0  0  0  0  0  0  0  0  0  0
    3.4296    2.8319   -1.4543 O   0  0  0  0  0  0  0  0  0  0  0  0
    4.9882    0.3189    0.0707 C   0  0  0  0  0  0  0  0  0  0  0  0
    2.5569   -0.2855   -0.3482 H   0  0  0  0  0  0  0  0  0  0  0  0
    3.7573    1.4644    1.4251 H   0  0  0  0  0  0  0  0  0  0  0  0
    5.0777    0.1074   -1.0011 H   0  0  0  0  0  0  0  0  0  0  0  0
    5.9396    0.7467    0.4037 H   0  0  0  0  0  0  0  0  0  0  0  0
    4.8444   -0.6363    0.5871 H   0  0  0  0  0  0  0  0  0  0  0  0
    4.9207    3.4171    0.2248 N   0  0  0  0  0  0  0  0  0  0  0  0
    5.2705    4.7167   -0.2991 C   0  0  0  0  0  0  0  0  0  0  0  0
    5.3381    3.1333    1.1062 H   0  0  0  0  0  0  0  0  0  0  0  0
    6.1562    4.6260   -0.9452 H   0  0  0  0  0  0  0  0  0  0  0  0
    4.4287    5.1145   -0.8849 H   0  0  0  0  0  0  0  0  0  0  0  0
    5.4929    5.4000    0.5338 H   0  0  0  0  0  0  0  0  0  0  0  0
 23 25  2  0  0  0  0
 22 23  1  0  0  0  0
 24 26  1  0  0  0  0
 22 24  2  0  0  0  0
 25 27  1  0  0  0  0
 26 27  2  0  0  0  0
 21 22  1  0  0  0  0
 27 28  1  0  0  0  0
  1  3  1  0  0  0  0
  1  7  1  0  0  0  0
  1  2  2  0  0  0  0
 39 40  1  0  0  0  0
 40 48  1  0  0  0  0
 40 41  2  0  0  0  0
  8  9  1  0  0  0  0
  9 17  1  0  0  0  0
  9 10  2  0  0  0  0
 18 19  1  0  0  0  0
 19 38  1  0  0  0  0
 19 20  2  0  0  0  0
 39 42  1  0  0  0  0
  8 11  1  0  0  0  0
 48 49  1  0  0  0  0
 18 21  1  0  0  0  0
 38 39  1  0  0  0  0
  7  8  1  0  0  0  0
 17 18  1  0  0  0  0
 23 33  1  0  0  0  0
 24 34  1  0  0  0  0
 25 35  1  0  0  0  0
 26 36  1  0  0  0  0
  3  4  1  0  0  0  0
  3  5  1  0  0  0  0
  3  6  1  0  0  0  0
 42 45  1  0  0  0  0
 42 46  1  0  0  0  0
 42 47  1  0  0  0  0
 11 14  1  0  0  0  0
 11 15  1  0  0  0  0
 11 16  1  0  0  0  0
 49 51  1  0  0  0  0
 49 52  1  0  0  0  0
 49 53  1  0  0  0  0
 21 31  1  0  0  0  0
 21 32  1  0  0  0  0
 39 44  1  0  0  0  0
  8 13  1  0  0  0  0
 18 30  1  0  0  0  0
 48 50  1  0  0  0  0
  7 12  1  0  0  0  0
 38 43  1  0  0  0  0
 17 29  1  0  0  0  0
 28 37  1  0  0  0  0
M  END
$$$$

  -OEChem-05262214473D

 53 53  0     1  0  0  0  0  0999 V2000
   -1.9298    0.2574    3.9747 C   0  0  0  0  0  0  0  0  0  0  0  0
   -0.9825   -0.3573    3.4990 O   0  0  0  0  0  0  0  0  0  0  0  0
   -2.3617   -0.0250    5.3754 C   0  0  0  0  0  0  0  0  0  0  0  0
   -3.1214   -0.8213    5.4288 H   0  0  0  0  0  0  0  0  0  0  0  0
   -1.5305   -0.3726    6.0097 H   0  0  0  0  0  0  0  0  0  0  0  0
   -2.7997    0.8299    5.9150 H   0  0  0  0  0  0  0  0  0  0  0  0
   -2.6795    1.2298    3.3336 N   0  0  0  0  0  0  0  0  0  0  0  0
   -2.4327    1.6559    1.9812 C   0  0  2  0  0  0  0  0  0  0  0  0
   -1.0977    1.0705    1.5400 C   0  0  0  0  0  0  0  0  0  0  0  0
   -0.2256    0.7177    2.3313 O   0  0  0  0  0  0  0  0  0  0  0  0
   -2.4239    3.1726    1.8718 C   0  0  0  0  0  0  0  0  0  0  0  0
   -3.4446    1.6657    3.8454 H   0  0  0  0  0  0  0  0  0  0  0  0
   -3.2368    1.2374    1.3661 H   0  0  0  0  0  0  0  0  0  0  0  0
   -1.6248    3.6099    2.4815 H   0  0  0  0  0  0  0  0  0  0  0  0
   -2.2644    3.4949    0.8375 H   0  0  0  0  0  0  0  0  0  0  0  0
   -3.3741    3.5939    2.2175 H   0  0  0  0  0  0  0  0  0  0  0  0
   -0.9750    1.0274    0.1566 N   0  0  0  0  0  0  0  0  0  0  0  0
    0.2023    0.5266   -0.5070 C   0  0  2  0  0  0  0  0  0  0  0  0
    1.3746    1.3928   -0.0604 C   0  0  0  0  0  0  0  0  0  0  0  0
    1.2306    2.4571    0.5374 O   0  0  0  0  0  0  0  0  0  0  0  0
    0.0653    0.5612   -2.0335 C   0  0  0  0  0  0  0  0  0  0  0  0
   -0.9795   -0.3989   -2.5476 C   0  0  0  0  0  0  0  0  0  0  0  0
   -0.6696   -1.7501   -2.7020 C   0  0  0  0  0  0  0  0  0  0  0  0
   -2.2550    0.0653   -2.8691 C   0  0  0  0  0  0  0  0  0  0  0  0
   -1.6352   -2.6372   -3.1777 C   0  0  0  0  0  0  0  0  0  0  0  0
   -3.2206   -0.8218   -3.3449 C   0  0  0  0  0  0  0  0  0  0  0  0
   -2.9107   -2.1731   -3.4992 C   0  0  0  0  0  0  0  0  0  0  0  0
   -3.8523   -3.0387   -3.9646 O   0  0  0  0  0  0  0  0  0  0  0  0
   -1.7582    1.3241   -0.4207 H   0  0  0  0  0  0  0  0  0  0  0  0
    0.3537   -0.4969   -0.1445 H   0  0  0  0  0  0  0  0  0  0  0  0
    1.0321    0.3434   -2.5072 H   0  0  0  0  0  0  0  0  0  0  0  0
   -0.2000    1.5715   -2.3720 H   0  0  0  0  0  0  0  0  0  0  0  0
    0.3215   -2.1204   -2.4539 H   0  0  0  0  0  0  0  0  0  0  0  0
   -2.5055    1.1165   -2.7519 H   0  0  0  0  0  0  0  0  0  0  0  0
   -1.3876   -3.6888   -3.2961 H   0  0  0  0  0  0  0  0  0  0  0  0
   -4.2121   -0.4541   -3.5938 H   0  0  0  0  0  0  0  0  0  0  0  0
   -4.6827   -2.5687   -4.1422 H   0  0  0  0  0  0  0  0  0  0  0  0
    2.5969    0.8101   -0.3652 N   0  0  0  0  0  0  0  0  0  0  0  0
    3.8680    1.4113   -0.0309 C   0  0  2  0  0  0  0  0  0  0  0  0
    3.8465    2.8556   -0.5134 C   0  0  0  0  0  0  0  0  0  0  0  0
    3.0976    3.2547   -1.4027 O   0  0  0  0  0  0  0  0  0  0  0  0
    5.0236    0.6462   -0.6569 C   0  0  0  0  0  0  0  0  0  0  0  0
    2.5982   -0.0838   -0.8475 H   0  0  0  0  0  0  0  0  0  0  0  0
    3.9496    1.3916    1.0614 H   0  0  0  0  0  0  0  0  0  0  0  0
    4.9589    0.6549   -1.7510 H   0  0  0  0  0  0  0  0  0  0  0  0
    5.9873    1.0860   -0.3793 H   0  0  0  0  0  0  0  0  0  0  0  0
    5.0200   -0.3999   -0.3320 H   0  0  0  0  0  0  0  0  0  0  0  0
    4.7921    3.6369    0.1360 N   0  0  0  0  0  0  0  0  0  0  0  0
    4.9768    5.0396   -0.1543 C   0  0  0  0  0  0  0  0  0  0  0  0
    5.3574    3.2272    0.8738 H   0  0  0  0  0  0  0  0  0  0  0  0
    5.7557    5.1562   -0.9222 H   0  0  0  0  0  0  0  0  0  0  0  0
    4.0318    5.4651   -0.5231 H   0  0  0  0  0  0  0  0  0  0  0  0
    5.2832    5.5662    0.7616 H   0  0  0  0  0  0  0  0  0  0  0  0
 23 25  2  0  0  0  0
 22 23  1  0  0  0  0
 24 26  1  0  0  0  0
 22 24  2  0  0  0  0
 25 27  1  0  0  0  0
 26 27  2  0  0  0  0
 21 22  1  0  0  0  0
 27 28  1  0  0  0  0
  1  3  1  0  0  0  0
  1  7  1  0  0  0  0
  1  2  2  0  0  0  0
 39 40  1  0  0  0  0
 40 48  1  0  0  0  0
 40 41  2  0  0  0  0
  8  9  1  0  0  0  0
  9 17  1  0  0  0  0
  9 10  2  0  0  0  0
 18 19  1  0  0  0  0
 19 38  1  0  0  0  0
 19 20  2  0  0  0  0
 39 42  1  0  0  0  0
  8 11  1  0  0  0  0
 48 49  1  0  0  0  0
 18 21  1  0  0  0  0
 38 39  1  0  0  0  0
  7  8  1  0  0  0  0
 17 18  1  0  0  0  0
 23 33  1  0  0  0  0
 24 34  1  0  0  0  0
 25 35  1  0  0  0  0
 26 36  1  0  0  0  0
  3  4  1  0  0  0  0
  3  5  1  0  0  0  0
  3  6  1  0  0  0  0
 42 45  1  0  0  0  0
 42 46  1  0  0  0  0
 42 47  1  0  0  0  0
 11 14  1  0  0  0  0
 11 15  1  0  0  0  0
 11 16  1  0  0  0  0
 49 51  1  0  0  0  0
 49 52  1  0  0  0  0
 49 53  1  0  0  0  0
 21 31  1  0  0  0  0
 21 32  1  0  0  0  0
 39 44  1  0  0  0  0
  8 13  1  0  0  0  0
 18 30  1  0  0  0  0
 48 50  1  0  0  0  0
  7 12  1  0  0  0  0
 38 43  1  0  0  0  0
 17 29  1  0  0  0  0
 28 37  1  0  0  0  0
M  END
$$$$

  -OEChem-05262214473D

 53 53  0     1  0  0  0  0  0999 V2000
   -1.9298    0.2574    3.9747 C   0  0  0  0  0  0  0  0  0  0  0  0
   -0.9825   -0.3573    3.4990 O   0  0  0  0  0  0  0  0  0  0  0  0
   -2.3617   -0.0250    5.3754 C   0  0  0  0  0  0  0  0  0  0  0  0
   -3.1214   -0.8213    5.4288 H   0  0  0  0  0  0  0  0  0  0  0  0
   -1.5305   -0.3726    6.0097 H   0  0  0  0  0  0  0  0  0  0  0  0
   -2.7997    0.8299    5.9150 H   0  0  0  0  0  0  0  0  0  0  0  0
   -2.6795    1.2298    3.3336 N   0  0  0  0  0  0  0  0  0  0  0  0
   -2.4327    1.6559    1.9812 C   0  0  2  0  0  0  0  0  0  0  0  0
   -1.0977    1.0705    1.5400 C   0  0  0  0  0  0  0  0  0  0  0  0
   -0.2256    0.7177    2.3313 O   0  0  0  0  0  0  0  0  0  0  0  0
   -2.4239    3.1726    1.8718 C   0  0  0  0  0  0  0  0  0  0  0  0
   -3.4446    1.6657    3.8454 H   0  0  0  0  0  0  0  0  0  0  0  0
   -3.2368    1.2374    1.3661 H   0  0  0  0  0  0  0  0  0  0  0  0
   -1.6248    3.6099    2.4815 H   0  0  0  0  0  0  0  0  0  0  0  0
   -2.2644    3.4949    0.8375 H   0  0  0  0  0  0  0  0  0  0  0  0
   -3.3741    3.5939    2.2175 H   0  0  0  0  0  0  0  0  0  0  0  0
   -0.9750    1.0274    0.1566 N   0  0  0  0  0  0  0  0  0  0  0  0
    0.2023    0.5266   -0.5070 C   0  0  2  0  0  0  0  0  0  0  0  0
    1.4103    1.1238    0.2059 C   0  0  0  0  0  0  0  0  0  0  0  0
    1.3130    1.8540    1.1899 O   0  0  0  0  0  0  0  0  0  0  0  0
    0.2275    0.8922   -1.9956 C   0  0  0  0  0  0  0  0  0  0  0  0
   -0.8578    0.2014   -2.7847 C   0  0  0  0  0  0  0  0  0  0  0  0
   -0.6835   -1.1175   -3.2040 C   0  0  0  0  0  0  0  0  0  0  0  0
   -2.0350    0.8822   -3.0952 C   0  0  0  0  0  0  0  0  0  0  0  0
   -1.6864   -1.7556   -3.9338 C   0  0  0  0  0  0  0  0  0  0  0  0
   -3.0379    0.2441   -3.8251 C   0  0  0  0  0  0  0  0  0  0  0  0
   -2.8636   -1.0748   -4.2443 C   0  0  0  0  0  0  0  0  0  0  0  0
   -3.8415   -1.6973   -4.9576 O   0  0  0  0  0  0  0  0  0  0  0  0
   -1.7582    1.3241   -0.4207 H   0  0  0  0  0  0  0  0  0  0  0  0
    0.2026   -0.5605   -0.3645 H   0  0  0  0  0  0  0  0  0  0  0  0
    1.2082    0.6540   -2.4293 H   0  0  0  0  0  0  0  0  0  0  0  0
    0.1106    1.9762   -2.1263 H   0  0  0  0  0  0  0  0  0  0  0  0
    0.2303   -1.6555   -2.9665 H   0  0  0  0  0  0  0  0  0  0  0  0
   -2.1795    1.9101   -2.7725 H   0  0  0  0  0  0  0  0  0  0  0  0
   -1.5446   -2.7832   -4.2579 H   0  0  0  0  0  0  0  0  0  0  0  0
   -3.9523    0.7798   -4.0640 H   0  0  0  0  0  0  0  0  0  0  0  0
   -4.5928   -1.0978   -5.0925 H   0  0  0  0  0  0  0  0  0  0  0  0
    2.6067    0.7030   -0.3579 N   0  0  0  0  0  0  0  0  0  0  0  0
    3.9030    1.1028    0.1408 C   0  0  2  0  0  0  0  0  0  0  0  0
    3.9031    2.6187    0.2882 C   0  0  0  0  0  0  0  0  0  0  0  0
    3.1364    3.3529   -0.3316 O   0  0  0  0  0  0  0  0  0  0  0  0
    5.0178    0.6469   -0.7877 C   0  0  0  0  0  0  0  0  0  0  0  0
    2.5695    0.0829   -1.1615 H   0  0  0  0  0  0  0  0  0  0  0  0
    4.0192    0.6395    1.1266 H   0  0  0  0  0  0  0  0  0  0  0  0
    4.9180    1.1009   -1.7803 H   0  0  0  0  0  0  0  0  0  0  0  0
    6.0008    0.9257   -0.3940 H   0  0  0  0  0  0  0  0  0  0  0  0
    4.9977   -0.4407   -0.9160 H   0  0  0  0  0  0  0  0  0  0  0  0
    4.8888    3.0581    1.1607 N   0  0  0  0  0  0  0  0  0  0  0  0
    5.1000    4.4556    1.4583 C   0  0  0  0  0  0  0  0  0  0  0  0
    5.4669    2.3777    1.6451 H   0  0  0  0  0  0  0  0  0  0  0  0
    5.8565    4.8666    0.7736 H   0  0  0  0  0  0  0  0  0  0  0  0
    4.1549    5.0041    1.3323 H   0  0  0  0  0  0  0  0  0  0  0  0
    5.4493    4.5605    2.4961 H   0  0  0  0  0  0  0  0  0  0  0  0
 23 25  2  0  0  0  0
 22 23  1  0  0  0  0
 24 26  1  0  0  0  0
 22 24  2  0  0  0  0
 25 27  1  0  0  0  0
 26 27  2  0  0  0  0
 21 22  1  0  0  0  0
 27 28  1  0  0  0  0
  1  3  1  0  0  0  0
  1  7  1  0  0  0  0
  1  2  2  0  0  0  0
 39 40  1  0  0  0  0
 40 48  1  0  0  0  0
 40 41  2  0  0  0  0
  8  9  1  0  0  0  0
  9 17  1  0  0  0  0
  9 10  2  0  0  0  0
 18 19  1  0  0  0  0
 19 38  1  0  0  0  0
 19 20  2  0  0  0  0
 39 42  1  0  0  0  0
  8 11  1  0  0  0  0
 48 49  1  0  0  0  0
 18 21  1  0  0  0  0
 38 39  1  0  0  0  0
  7  8  1  0  0  0  0
 17 18  1  0  0  0  0
 23 33  1  0  0  0  0
 24 34  1  0  0  0  0
 25 35  1  0  0  0  0
 26 36  1  0  0  0  0
  3  4  1  0  0  0  0
  3  5  1  0  0  0  0
  3  6  1  0  0  0  0
 42 45  1  0  0  0  0
 42 46  1  0  0  0  0
 42 47  1  0  0  0  0
 11 14  1  0  0  0  0
 11 15  1  0  0  0  0
 11 16  1  0  0  0  0
 49 51  1  0  0  0  0
 49 52  1  0  0  0  0
 49 53  1  0  0  0  0
 21 31  1  0  0  0  0
 21 32  1  0  0  0  0
 39 44  1  0  0  0  0
  8 13  1  0  0  0  0
 18 30  1  0  0  0  0
 48 50  1  0  0  0  0
  7 12  1  0  0  0  0
 38 43  1  0  0  0  0
 17 29  1  0  0  0  0
 28 37  1  0  0  0  0
M  END
$$$$

  -OEChem-05262214473D

 53 53  0     1  0  0  0  0  0999 V2000
   -1.9298    0.2574    3.9747 C   0  0  0  0  0  0  0  0  0  0  0  0
   -0.9825   -0.3573    3.4990 O   0  0  0  0  0  0  0  0  0  0  0  0
   -2.3617   -0.0250    5.3754 C   0  0  0  0  0  0  0  0  0  0  0  0
   -3.1214   -0.8213    5.4288 H   0  0  0  0  0  0  0  0  0  0  0  0
   -1.5305   -0.3726    6.0097 H   0  0  0  0  0  0  0  0  0  0  0  0
   -2.7997    0.8299    5.9150 H   0  0  0  0  0  0  0  0  0  0  0  0
   -2.6795    1.2298    3.3336 N   0  0  0  0  0  0  0  0  0  0  0  0
   -2.4327    1.6559    1.9812 C   0  0  2  0  0  0  0  0  0  0  0  0
   -1.0977    1.0705    1.5400 C   0  0  0  0  0  0  0  0  0  0  0  0
   -0.2256    0.7177    2.3313 O   0  0  0  0  0  0  0  0  0  0  0  0
   -2.4239    3.1726    1.8718 C   0  0  0  0  0  0  0  0  0  0  0  0
   -3.4446    1.6657    3.8454 H   0  0  0  0  0  0  0  0  0  0  0  0
   -3.2368    1.2374    1.3661 H   0  0  0  0  0  0  0  0  0  0  0  0
   -1.6248    3.6099    2.4815 H   0  0  0  0  0  0  0  0  0  0  0  0
   -2.2644    3.4949    0.8375 H   0  0  0  0  0  0  0  0  0  0  0  0
   -3.3741    3.5939    2.2175 H   0  0  0  0  0  0  0  0  0  0  0  0
   -0.9750    1.0274    0.1566 N   0  0  0  0  0  0  0  0  0  0  0  0
    0.2023    0.5266   -0.5070 C   0  0  2  0  0  0  0  0  0  0  0  0
    1.4103    1.1238    0.2059 C   0  0  0  0  0  0  0  0  0  0  0  0
    1.3458    1.6245    1.3266 O   0  0  0  0  0  0  0  0  0  0  0  0
    0.2275    0.8922   -1.9956 C   0  0  0  0  0  0  0  0  0  0  0  0
   -0.8578    0.2014   -2.7847 C   0  0  0  0  0  0  0  0  0  0  0  0
   -0.6835   -1.1175   -3.2040 C   0  0  0  0  0  0  0  0  0  0  0  0
   -2.0350    0.8822   -3.0952 C   0  0  0  0  0  0  0  0  0  0  0  0
   -1.6864   -1.7556   -3.9338 C   0  0  0  0  0  0  0  0  0  0  0  0
   -3.0379    0.2441   -3.8251 C   0  0  0  0  0  0  0  0  0  0  0  0
   -2.8636   -1.0748   -4.2443 C   0  0  0  0  0  0  0  0  0  0  0  0
   -3.8415   -1.6973   -4.9576 O   0  0  0  0  0  0  0  0  0  0  0  0
   -1.7582    1.3241   -0.4207 H   0  0  0  0  0  0  0  0  0  0  0  0
    0.2026   -0.5605   -0.3645 H   0  0  0  0  0  0  0  0  0  0  0  0
    1.2082    0.6540   -2.4293 H   0  0  0  0  0  0  0  0  0  0  0  0
    0.1106    1.9762   -2.1263 H   0  0  0  0  0  0  0  0  0  0  0  0
    0.2303   -1.6555   -2.9665 H   0  0  0  0  0  0  0  0  0  0  0  0
   -2.1795    1.9101   -2.7725 H   0  0  0  0  0  0  0  0  0  0  0  0
   -1.5446   -2.7832   -4.2579 H   0  0  0  0  0  0  0  0  0  0  0  0
   -3.9523    0.7798   -4.0640 H   0  0  0  0  0  0  0  0  0  0  0  0
   -4.5928   -1.0978   -5.0925 H   0  0  0  0  0  0  0  0  0  0  0  0
    2.5738    0.9847   -0.5380 N   0  0  0  0  0  0  0  0  0  0  0  0
    3.8662    1.4445   -0.0831 C   0  0  2  0  0  0  0  0  0  0  0  0
    3.7157    2.8873    0.3806 C   0  0  0  0  0  0  0  0  0  0  0  0
    2.8070    3.6227    0.0006 O   0  0  0  0  0  0  0  0  0  0  0  0
    4.9114    1.3330   -1.1822 C   0  0  0  0  0  0  0  0  0  0  0  0
    2.5138    0.5374   -1.4480 H   0  0  0  0  0  0  0  0  0  0  0  0
    4.1446    0.8137    0.7682 H   0  0  0  0  0  0  0  0  0  0  0  0
    4.6496    1.9582   -2.0436 H   0  0  0  0  0  0  0  0  0  0  0  0
    5.8961    1.6548   -0.8274 H   0  0  0  0  0  0  0  0  0  0  0  0
    4.9971    0.2997   -1.5352 H   0  0  0  0  0  0  0  0  0  0  0  0
    4.7399    3.2703    1.2353 N   0  0  0  0  0  0  0  0  0  0  0  0
    4.8280    4.5960    1.8016 C   0  0  0  0  0  0  0  0  0  0  0  0
    5.4410    2.5893    1.5117 H   0  0  0  0  0  0  0  0  0  0  0  0
    5.4514    5.2309    1.1548 H   0  0  0  0  0  0  0  0  0  0  0  0
    3.8200    5.0294    1.8787 H   0  0  0  0  0  0  0  0  0  0  0  0
    5.2796    4.5376    2.8029 H   0  0  0  0  0  0  0  0  0  0  0  0
 23 25  2  0  0  0  0
 22 23  1  0  0  0  0
 24 26  1  0  0  0  0
 22 24  2  0  0  0  0
 25 27  1  0  0  0  0
 26 27  2  0  0  0  0
 21 22  1  0  0  0  0
 27 28  1  0  0  0  0
  1  3  1  0  0  0  0
  1  7  1  0  0  0  0
  1  2  2  0  0  0  0
 39 40  1  0  0  0  0
 40 48  1  0  0  0  0
 40 41  2  0  0  0  0
  8  9  1  0  0  0  0
  9 17  1  0  0  0  0
  9 10  2  0  0  0  0
 18 19  1  0  0  0  0
 19 38  1  0  0  0  0
 19 20  2  0  0  0  0
 39 42  1  0  0  0  0
  8 11  1  0  0  0  0
 48 49  1  0  0  0  0
 18 21  1  0  0  0  0
 38 39  1  0  0  0  0
  7  8  1  0  0  0  0
 17 18  1  0  0  0  0
 23 33  1  0  0  0  0
 24 34  1  0  0  0  0
 25 35  1  0  0  0  0
 26 36  1  0  0  0  0
  3  4  1  0  0  0  0
  3  5  1  0  0  0  0
  3  6  1  0  0  0  0
 42 45  1  0  0  0  0
 42 46  1  0  0  0  0
 42 47  1  0  0  0  0
 11 14  1  0  0  0  0
 11 15  1  0  0  0  0
 11 16  1  0  0  0  0
 49 51  1  0  0  0  0
 49 52  1  0  0  0  0
 49 53  1  0  0  0  0
 21 31  1  0  0  0  0
 21 32  1  0  0  0  0
 39 44  1  0  0  0  0
  8 13  1  0  0  0  0
 18 30  1  0  0  0  0
 48 50  1  0  0  0  0
  7 12  1  0  0  0  0
 38 43  1  0  0  0  0
 17 29  1  0  0  0  0
 28 37  1  0  0  0  0
M  END
$$$$

  -OEChem-05262214473D

 53 53  0     1  0  0  0  0  0999 V2000
   -1.9298    0.2574    3.9747 C   0  0  0  0  0  0  0  0  0  0  0  0
   -0.9825   -0.3573    3.4990 O   0  0  0  0  0  0  0  0  0  0  0  0
   -2.3617   -0.0250    5.3754 C   0  0  0  0  0  0  0  0  0  0  0  0
   -3.1214   -0.8213    5.4288 H   0  0  0  0  0  0  0  0  0  0  0  0
   -1.5305   -0.3726    6.0097 H   0  0  0  0  0  0  0  0  0  0  0  0
   -2.7997    0.8299    5.9150 H   0  0  0  0  0  0  0  0  0  0  0  0
   -2.6795    1.2298    3.3336 N   0  0  0  0  0  0  0  0  0  0  0  0
   -2.4327    1.6559    1.9812 C   0  0  2  0  0  0  0  0  0  0  0  0
   -1.0977    1.0705    1.5400 C   0  0  0  0  0  0  0  0  0  0  0  0
   -0.2256    0.7177    2.3313 O   0  0  0  0  0  0  0  0  0  0  0  0
   -2.4239    3.1726    1.8718 C   0  0  0  0  0  0  0  0  0  0  0  0
   -3.4446    1.6657    3.8454 H   0  0  0  0  0  0  0  0  0  0  0  0
   -3.2368    1.2374    1.3661 H   0  0  0  0  0  0  0  0  0  0  0  0
   -1.6248    3.6099    2.4815 H   0  0  0  0  0  0  0  0  0  0  0  0
   -2.2644    3.4949    0.8375 H   0  0  0  0  0  0  0  0  0  0  0  0
   -3.3741    3.5939    2.2175 H   0  0  0  0  0  0  0  0  0  0  0  0
   -0.9750    1.0274    0.1566 N   0  0  0  0  0  0  0  0  0  0  0  0
    0.2023    0.5266   -0.5070 C   0  0  2  0  0  0  0  0  0  0  0  0
    1.4103    1.1238    0.2059 C   0  0  0  0  0  0  0  0  0  0  0  0
    1.4191    1.3787    1.4083 O   0  0  0  0  0  0  0  0  0  0  0  0
    0.2275    0.8922   -1.9956 C   0  0  0  0  0  0  0  0  0  0  0  0
   -0.8578    0.2014   -2.7847 C   0  0  0  0  0  0  0  0  0  0  0  0
   -0.6835   -1.1175   -3.2040 C   0  0  0  0  0  0  0  0  0  0  0  0
   -2.0350    0.8822   -3.0952 C   0  0  0  0  0  0  0  0  0  0  0  0
   -1.6864   -1.7556   -3.9338 C   0  0  0  0  0  0  0  0  0  0  0  0
   -3.0379    0.2441   -3.8251 C   0  0  0  0  0  0  0  0  0  0  0  0
   -2.8636   -1.0748   -4.2443 C   0  0  0  0  0  0  0  0  0  0  0  0
   -3.8415   -1.6973   -4.9576 O   0  0  0  0  0  0  0  0  0  0  0  0
   -1.7582    1.3241   -0.4207 H   0  0  0  0  0  0  0  0  0  0  0  0
    0.2026   -0.5605   -0.3645 H   0  0  0  0  0  0  0  0  0  0  0  0
    1.2082    0.6540   -2.4293 H   0  0  0  0  0  0  0  0  0  0  0  0
    0.1106    1.9762   -2.1263 H   0  0  0  0  0  0  0  0  0  0  0  0
    0.2303   -1.6555   -2.9665 H   0  0  0  0  0  0  0  0  0  0  0  0
   -2.1795    1.9101   -2.7725 H   0  0  0  0  0  0  0  0  0  0  0  0
   -1.5446   -2.7832   -4.2579 H   0  0  0  0  0  0  0  0  0  0  0  0
   -3.9523    0.7798   -4.0640 H   0  0  0  0  0  0  0  0  0  0  0  0
   -4.5928   -1.0978   -5.0925 H   0  0  0  0  0  0  0  0  0  0  0  0
    2.4896    1.2898   -0.6509 N   0  0  0  0  0  0  0  0  0  0  0  0
    3.7667    1.8159   -0.2256 C   0  0  2  0  0  0  0  0  0  0  0  0
    3.5116    3.1051    0.5440 C   0  0  0  0  0  0  0  0  0  0  0  0
    2.4898    3.7753    0.4102 O   0  0  0  0  0  0  0  0  0  0  0  0
    4.6857    2.0638   -1.4117 C   0  0  0  0  0  0  0  0  0  0  0  0
    2.3761    1.0284   -1.6258 H   0  0  0  0  0  0  0  0  0  0  0  0
    4.2083    1.0707    0.4450 H   0  0  0  0  0  0  0  0  0  0  0  0
    4.2599    2.8077   -2.0949 H   0  0  0  0  0  0  0  0  0  0  0  0
    5.6628    2.4353   -1.0858 H   0  0  0  0  0  0  0  0  0  0  0  0
    4.8442    1.1417   -1.9814 H   0  0  0  0  0  0  0  0  0  0  0  0
    4.5780    3.4419    1.3660 N   0  0  0  0  0  0  0  0  0  0  0  0
    4.5831    4.6284    2.1896 C   0  0  0  0  0  0  0  0  0  0  0  0
    5.3769    2.8179    1.4289 H   0  0  0  0  0  0  0  0  0  0  0  0
    5.0547    5.4556    1.6388 H   0  0  0  0  0  0  0  0  0  0  0  0
    3.5487    4.9012    2.4457 H   0  0  0  0  0  0  0  0  0  0  0  0
    5.1496    4.4320    3.1118 H   0  0  0  0  0  0  0  0  0  0  0  0
 23 25  2  0  0  0  0
 22 23  1  0  0  0  0
 24 26  1  0  0  0  0
 22 24  2  0  0  0  0
 25 27  1  0  0  0  0
 26 27  2  0  0  0  0
 21 22  1  0  0  0  0
 27 28  1  0  0  0  0
  1  3  1  0  0  0  0
  1  7  1  0  0  0  0
  1  2  2  0  0  0  0
 39 40  1  0  0  0  0
 40 48  1  0  0  0  0
 40 41  2  0  0  0  0
  8  9  1  0  0  0  0
  9 17  1  0  0  0  0
  9 10  2  0  0  0  0
 18 19  1  0  0  0  0
 19 38  1  0  0  0  0
 19 20  2  0  0  0  0
 39 42  1  0  0  0  0
  8 11  1  0  0  0  0
 48 49  1  0  0  0  0
 18 21  1  0  0  0  0
 38 39  1  0  0  0  0
  7  8  1  0  0  0  0
 17 18  1  0  0  0  0
 23 33  1  0  0  0  0
 24 34  1  0  0  0  0
 25 35  1  0  0  0  0
 26 36  1  0  0  0  0
  3  4  1  0  0  0  0
  3  5  1  0  0  0  0
  3  6  1  0  0  0  0
 42 45  1  0  0  0  0
 42 46  1  0  0  0  0
 42 47  1  0  0  0  0
 11 14  1  0  0  0  0
 11 15  1  0  0  0  0
 11 16  1  0  0  0  0
 49 51  1  0  0  0  0
 49 52  1  0  0  0  0
 49 53  1  0  0  0  0
 21 31  1  0  0  0  0
 21 32  1  0  0  0  0
 39 44  1  0  0  0  0
  8 13  1  0  0  0  0
 18 30  1  0  0  0  0
 48 50  1  0  0  0  0
  7 12  1  0  0  0  0
 38 43  1  0  0  0  0
 17 29  1  0  0  0  0
 28 37  1  0  0  0  0
M  END
$$$$

  -OEChem-05262214473D

 53 53  0     1  0  0  0  0  0999 V2000
   -1.9298    0.2574    3.9747 C   0  0  0  0  0  0  0  0  0  0  0  0
   -0.9825   -0.3573    3.4990 O   0  0  0  0  0  0  0  0  0  0  0  0
   -2.3617   -0.0250    5.3754 C   0  0  0  0  0  0  0  0  0  0  0  0
   -3.1214   -0.8213    5.4288 H   0  0  0  0  0  0  0  0  0  0  0  0
   -1.5305   -0.3726    6.0097 H   0  0  0  0  0  0  0  0  0  0  0  0
   -2.7997    0.8299    5.9150 H   0  0  0  0  0  0  0  0  0  0  0  0
   -2.6795    1.2298    3.3336 N   0  0  0  0  0  0  0  0  0  0  0  0
   -2.4327    1.6559    1.9812 C   0  0  2  0  0  0  0  0  0  0  0  0
   -1.0977    1.0705    1.5400 C   0  0  0  0  0  0  0  0  0  0  0  0
   -0.2256    0.7177    2.3313 O   0  0  0  0  0  0  0  0  0  0  0  0
   -2.4239    3.1726    1.8718 C   0  0  0  0  0  0  0  0  0  0  0  0
   -3.4446    1.6657    3.8454 H   0  0  0  0  0  0  0  0  0  0  0  0
   -3.2368    1.2374    1.3661 H   0  0  0  0  0  0  0  0  0  0  0  0
   -1.6248    3.6099    2.4815 H   0  0  0  0  0  0  0  0  0  0  0  0
   -2.2644    3.4949    0.8375 H   0  0  0  0  0  0  0  0  0  0  0  0
   -3.3741    3.5939    2.2175 H   0  0  0  0  0  0  0  0  0  0  0  0
   -0.9750    1.0274    0.1566 N   0  0  0  0  0  0  0  0  0  0  0  0
    0.2023    0.5266   -0.5070 C   0  0  2  0  0  0  0  0  0  0  0  0
    1.4103    1.1238    0.2059 C   0  0  0  0  0  0  0  0  0  0  0  0
    1.5279    1.1334    1.4294 O   0  0  0  0  0  0  0  0  0  0  0  0
    0.2275    0.8922   -1.9956 C   0  0  0  0  0  0  0  0  0  0  0  0
   -0.8578    0.2014   -2.7847 C   0  0  0  0  0  0  0  0  0  0  0  0
   -0.6835   -1.1175   -3.2040 C   0  0  0  0  0  0  0  0  0  0  0  0
   -2.0350    0.8822   -3.0952 C   0  0  0  0  0  0  0  0  0  0  0  0
   -1.6864   -1.7556   -3.9338 C   0  0  0  0  0  0  0  0  0  0  0  0
   -3.0379    0.2441   -3.8251 C   0  0  0  0  0  0  0  0  0  0  0  0
   -2.8636   -1.0748   -4.2443 C   0  0  0  0  0  0  0  0  0  0  0  0
   -3.8415   -1.6973   -4.9576 O   0  0  0  0  0  0  0  0  0  0  0  0
   -1.7582    1.3241   -0.4207 H   0  0  0  0  0  0  0  0  0  0  0  0
    0.2026   -0.5605   -0.3645 H   0  0  0  0  0  0  0  0  0  0  0  0
    1.2082    0.6540   -2.4293 H   0  0  0  0  0  0  0  0  0  0  0  0
    0.1106    1.9762   -2.1263 H   0  0  0  0  0  0  0  0  0  0  0  0
    0.2303   -1.6555   -2.9665 H   0  0  0  0  0  0  0  0  0  0  0  0
   -2.1795    1.9101   -2.7725 H   0  0  0  0  0  0  0  0  0  0  0  0
   -1.5446   -2.7832   -4.2579 H   0  0  0  0  0  0  0  0  0  0  0  0
   -3.9523    0.7798   -4.0640 H   0  0  0  0  0  0  0  0  0  0  0  0
   -4.5928   -1.0978   -5.0925 H   0  0  0  0  0  0  0  0  0  0  0  0
    2.3598    1.5974   -0.6888 N   0  0  0  0  0  0  0  0  0  0  0  0
    3.6112    2.1919   -0.2770 C   0  0  2  0  0  0  0  0  0  0  0  0
    3.3047    3.2572    0.7672 C   0  0  0  0  0  0  0  0  0  0  0  0
    2.2066    3.8002    0.8692 O   0  0  0  0  0  0  0  0  0  0  0  0
    4.3559    2.7894   -1.4607 C   0  0  0  0  0  0  0  0  0  0  0  0
    2.1655    1.5225   -1.6829 H   0  0  0  0  0  0  0  0  0  0  0  0
    4.2059    1.3930    0.1791 H   0  0  0  0  0  0  0  0  0  0  0  0
    3.7755    3.5917   -1.9307 H   0  0  0  0  0  0  0  0  0  0  0  0
    5.3167    3.2140   -1.1517 H   0  0  0  0  0  0  0  0  0  0  0  0
    4.5493    2.0280   -2.2241 H   0  0  0  0  0  0  0  0  0  0  0  0
    4.4140    3.5613    1.5438 N   0  0  0  0  0  0  0  0  0  0  0  0
    4.3819    4.5504    2.5957 C   0  0  0  0  0  0  0  0  0  0  0  0
    5.2789    3.0479    1.4023 H   0  0  0  0  0  0  0  0  0  0  0  0
    4.6934    5.5253    2.1927 H   0  0  0  0  0  0  0  0  0  0  0  0
    3.3597    4.6283    2.9945 H   0  0  0  0  0  0  0  0  0  0  0  0
    5.0680    4.2508    3.4017 H   0  0  0  0  0  0  0  0  0  0  0  0
 23 25  2  0  0  0  0
 22 23  1  0  0  0  0
 24 26  1  0  0  0  0
 22 24  2  0  0  0  0
 25 27  1  0  0  0  0
 26 27  2  0  0  0  0
 21 22  1  0  0  0  0
 27 28  1  0  0  0  0
  1  3  1  0  0  0  0
  1  7  1  0  0  0  0
  1  2  2  0  0  0  0
 39 40  1  0  0  0  0
 40 48  1  0  0  0  0
 40 41  2  0  0  0  0
  8  9  1  0  0  0  0
  9 17  1  0  0  0  0
  9 10  2  0  0  0  0
 18 19  1  0  0  0  0
 19 38  1  0  0  0  0
 19 20  2  0  0  0  0
 39 42  1  0  0  0  0
  8 11  1  0  0  0  0
 48 49  1  0  0  0  0
 18 21  1  0  0  0  0
 38 39  1  0  0  0  0
  7  8  1  0  0  0  0
 17 18  1  0  0  0  0
 23 33  1  0  0  0  0
 24 34  1  0  0  0  0
 25 35  1  0  0  0  0
 26 36  1  0  0  0  0
  3  4  1  0  0  0  0
  3  5  1  0  0  0  0
  3  6  1  0  0  0  0
 42 45  1  0  0  0  0
 42 46  1  0  0  0  0
 42 47  1  0  0  0  0
 11 14  1  0  0  0  0
 11 15  1  0  0  0  0
 11 16  1  0  0  0  0
 49 51  1  0  0  0  0
 49 52  1  0  0  0  0
 49 53  1  0  0  0  0
 21 31  1  0  0  0  0
 21 32  1  0  0  0  0
 39 44  1  0  0  0  0
  8 13  1  0  0  0  0
 18 30  1  0  0  0  0
 48 50  1  0  0  0  0
  7 12  1  0  0  0  0
 38 43  1  0  0  0  0
 17 29  1  0  0  0  0
 28 37  1  0  0  0  0
M  END
$$$$

  -OEChem-05262214473D

 53 53  0     1  0  0  0  0  0999 V2000
   -1.9298    0.2574    3.9747 C   0  0  0  0  0  0  0  0  0  0  0  0
   -0.9825   -0.3573    3.4990 O   0  0  0  0  0  0  0  0  0  0  0  0
   -2.3617   -0.0250    5.3754 C   0  0  0  0  0  0  0  0  0  0  0  0
   -3.1214   -0.8213    5.4288 H   0  0  0  0  0  0  0  0  0  0  0  0
   -1.5305   -0.3726    6.0097 H   0  0  0  0  0  0  0  0  0  0  0  0
   -2.7997    0.8299    5.9150 H   0  0  0  0  0  0  0  0  0  0  0  0
   -2.6795    1.2298    3.3336 N   0  0  0  0  0  0  0  0  0  0  0  0
   -2.4327    1.6559    1.9812 C   0  0  2  0  0  0  0  0  0  0  0  0
   -1.0977    1.0705    1.5400 C   0  0  0  0  0  0  0  0  0  0  0  0
   -0.2256    0.7177    2.3313 O   0  0  0  0  0  0  0  0  0  0  0  0
   -2.4239    3.1726    1.8718 C   0  0  0  0  0  0  0  0  0  0  0  0
   -3.4446    1.6657    3.8454 H   0  0  0  0  0  0  0  0  0  0  0  0
   -3.2368    1.2374    1.3661 H   0  0  0  0  0  0  0  0  0  0  0  0
   -1.6248    3.6099    2.4815 H   0  0  0  0  0  0  0  0  0  0  0  0
   -2.2644    3.4949    0.8375 H   0  0  0  0  0  0  0  0  0  0  0  0
   -3.3741    3.5939    2.2175 H   0  0  0  0  0  0  0  0  0  0  0  0
   -0.9750    1.0274    0.1566 N   0  0  0  0  0  0  0  0  0  0  0  0
    0.2023    0.5266   -0.5070 C   0  0  2  0  0  0  0  0  0  0  0  0
    1.4103    1.1238    0.2059 C   0  0  0  0  0  0  0  0  0  0  0  0
    1.6648    0.9053    1.3884 O   0  0  0  0  0  0  0  0  0  0  0  0
    0.2275    0.8922   -1.9956 C   0  0  0  0  0  0  0  0  0  0  0  0
   -0.8578    0.2014   -2.7847 C   0  0  0  0  0  0  0  0  0  0  0  0
   -0.6835   -1.1175   -3.2040 C   0  0  0  0  0  0  0  0  0  0  0  0
   -2.0350    0.8822   -3.0952 C   0  0  0  0  0  0  0  0  0  0  0  0
   -1.6864   -1.7556   -3.9338 C   0  0  0  0  0  0  0  0  0  0  0  0
   -3.0379    0.2441   -3.8251 C   0  0  0  0  0  0  0  0  0  0  0  0
   -2.8636   -1.0748   -4.2443 C   0  0  0  0  0  0  0  0  0  0  0  0
   -3.8415   -1.6973   -4.9576 O   0  0  0  0  0  0  0  0  0  0  0  0
   -1.7582    1.3241   -0.4207 H   0  0  0  0  0  0  0  0  0  0  0  0
    0.2026   -0.5605   -0.3645 H   0  0  0  0  0  0  0  0  0  0  0  0
    1.2082    0.6540   -2.4293 H   0  0  0  0  0  0  0  0  0  0  0  0
    0.1106    1.9762   -2.1263 H   0  0  0  0  0  0  0  0  0  0  0  0
    0.2303   -1.6555   -2.9665 H   0  0  0  0  0  0  0  0  0  0  0  0
   -2.1795    1.9101   -2.7725 H   0  0  0  0  0  0  0  0  0  0  0  0
   -1.5446   -2.7832   -4.2579 H   0  0  0  0  0  0  0  0  0  0  0  0
   -3.9523    0.7798   -4.0640 H   0  0  0  0  0  0  0  0  0  0  0  0
   -4.5928   -1.0978   -5.0925 H   0  0  0  0  0  0  0  0  0  0  0  0
    2.1935    1.8866   -0.6491 N   0  0  0  0  0  0  0  0  0  0  0  0
    3.4103    2.5468   -0.2338 C   0  0  2  0  0  0  0  0  0  0  0  0
    3.1090    3.3334    1.0350 C   0  0  0  0  0  0  0  0  0  0  0  0
    1.9765    3.6959    1.3465 O   0  0  0  0  0  0  0  0  0  0  0  0
    3.9446    3.4604   -1.3258 C   0  0  0  0  0  0  0  0  0  0  0  0
    1.8966    1.9859   -1.6154 H   0  0  0  0  0  0  0  0  0  0  0  0
    4.1377    1.7585   -0.0114 H   0  0  0  0  0  0  0  0  0  0  0  0
    3.2293    4.2566   -1.5623 H   0  0  0  0  0  0  0  0  0  0  0  0
    4.8815    3.9378   -1.0205 H   0  0  0  0  0  0  0  0  0  0  0  0
    4.1325    2.8983   -2.2469 H   0  0  0  0  0  0  0  0  0  0  0  0
    4.2592    3.6202    1.7567 N   0  0  0  0  0  0  0  0  0  0  0  0
    4.2382    4.3675    2.9925 C   0  0  0  0  0  0  0  0  0  0  0  0
    5.1538    3.2636    1.4336 H   0  0  0  0  0  0  0  0  0  0  0  0
    4.3921    5.4354    2.7785 H   0  0  0  0  0  0  0  0  0  0  0  0
    3.2658    4.2293    3.4879 H   0  0  0  0  0  0  0  0  0  0  0  0
    5.0406    4.0066    3.6528 H   0  0  0  0  0  0  0  0  0  0  0  0
 23 25  2  0  0  0  0
 22 23  1  0  0  0  0
 24 26  1  0  0  0  0
 22 24  2  0  0  0  0
 25 27  1  0  0  0  0
 26 27  2  0  0  0  0
 21 22  1  0  0  0  0
 27 28  1  0  0  0  0
  1  3  1  0  0  0  0
  1  7  1  0  0  0  0
  1  2  2  0  0  0  0
 39 40  1  0  0  0  0
 40 48  1  0  0  0  0
 40 41  2  0  0  0  0
  8  9  1  0  0  0  0
  9 17  1  0  0  0  0
  9 10  2  0  0  0  0
 18 19  1  0  0  0  0
 19 38  1  0  0  0  0
 19 20  2  0  0  0  0
 39 42  1  0  0  0  0
  8 11  1  0  0  0  0
 48 49  1  0  0  0  0
 18 21  1  0  0  0  0
 38 39  1  0  0  0  0
  7  8  1  0  0  0  0
 17 18  1  0  0  0  0
 23 33  1  0  0  0  0
 24 34  1  0  0  0  0
 25 35  1  0  0  0  0
 26 36  1  0  0  0  0
  3  4  1  0  0  0  0
  3  5  1  0  0  0  0
  3  6  1  0  0  0  0
 42 45  1  0  0  0  0
 42 46  1  0  0  0  0
 42 47  1  0  0  0  0
 11 14  1  0  0  0  0
 11 15  1  0  0  0  0
 11 16  1  0  0  0  0
 49 51  1  0  0  0  0
 49 52  1  0  0  0  0
 49 53  1  0  0  0  0
 21 31  1  0  0  0  0
 21 32  1  0  0  0  0
 39 44  1  0  0  0  0
  8 13  1  0  0  0  0
 18 30  1  0  0  0  0
 48 50  1  0  0  0  0
  7 12  1  0  0  0  0
 38 43  1  0  0  0  0
 17 29  1  0  0  0  0
 28 37  1  0  0  0  0
M  END
$$$$

  -OEChem-05262214473D

 53 53  0     1  0  0  0  0  0999 V2000
   -1.9298    0.2574    3.9747 C   0  0  0  0  0  0  0  0  0  0  0  0
   -0.9825   -0.3573    3.4990 O   0  0  0  0  0  0  0  0  0  0  0  0
   -2.3617   -0.0250    5.3754 C   0  0  0  0  0  0  0  0  0  0  0  0
   -3.1214   -0.8213    5.4288 H   0  0  0  0  0  0  0  0  0  0  0  0
   -1.5305   -0.3726    6.0097 H   0  0  0  0  0  0  0  0  0  0  0  0
   -2.7997    0.8299    5.9150 H   0  0  0  0  0  0  0  0  0  0  0  0
   -2.6795    1.2298    3.3336 N   0  0  0  0  0  0  0  0  0  0  0  0
   -2.4327    1.6559    1.9812 C   0  0  2  0  0  0  0  0  0  0  0  0
   -1.0977    1.0705    1.5400 C   0  0  0  0  0  0  0  0  0  0  0  0
   -0.2256    0.7177    2.3313 O   0  0  0  0  0  0  0  0  0  0  0  0
   -2.4239    3.1726    1.8718 C   0  0  0  0  0  0  0  0  0  0  0  0
   -3.4446    1.6657    3.8454 H   0  0  0  0  0  0  0  0  0  0  0  0
   -3.2368    1.2374    1.3661 H   0  0  0  0  0  0  0  0  0  0  0  0
   -1.6248    3.6099    2.4815 H   0  0  0  0  0  0  0  0  0  0  0  0
   -2.2644    3.4949    0.8375 H   0  0  0  0  0  0  0  0  0  0  0  0
   -3.3741    3.5939    2.2175 H   0  0  0  0  0  0  0  0  0  0  0  0
   -0.9750    1.0274    0.1566 N   0  0  0  0  0  0  0  0  0  0  0  0
    0.2023    0.5266   -0.5070 C   0  0  2  0  0  0  0  0  0  0  0  0
    1.4103    1.1238    0.2059 C   0  0  0  0  0  0  0  0  0  0  0  0
    1.8205    0.7100    1.2882 O   0  0  0  0  0  0  0  0  0  0  0  0
    0.2275    0.8922   -1.9956 C   0  0  0  0  0  0  0  0  0  0  0  0
   -0.8578    0.2014   -2.7847 C   0  0  0  0  0  0  0  0  0  0  0  0
   -0.6835   -1.1175   -3.2040 C   0  0  0  0  0  0  0  0  0  0  0  0
   -2.0350    0.8822   -3.0952 C   0  0  0  0  0  0  0  0  0  0  0  0
   -1.6864   -1.7556   -3.9338 C   0  0  0  0  0  0  0  0  0  0  0  0
   -3.0379    0.2441   -3.8251 C   0  0  0  0  0  0  0  0  0  0  0  0
   -2.8636   -1.0748   -4.2443 C   0  0  0  0  0  0  0  0  0  0  0  0
   -3.8415   -1.6973   -4.9576 O   0  0  0  0  0  0  0  0  0  0  0  0
   -1.7582    1.3241   -0.4207 H   0  0  0  0  0  0  0  0  0  0  0  0
    0.2026   -0.5605   -0.3645 H   0  0  0  0  0  0  0  0  0  0  0  0
    1.2082    0.6540   -2.4293 H   0  0  0  0  0  0  0  0  0  0  0  0
    0.1106    1.9762   -2.1263 H   0  0  0  0  0  0  0  0  0  0  0  0
    0.2303   -1.6555   -2.9665 H   0  0  0  0  0  0  0  0  0  0  0  0
   -2.1795    1.9101   -2.7725 H   0  0  0  0  0  0  0  0  0  0  0  0
   -1.5446   -2.7832   -4.2579 H   0  0  0  0  0  0  0  0  0  0  0  0
   -3.9523    0.7798   -4.0640 H   0  0  0  0  0  0  0  0  0  0  0  0
   -4.5928   -1.0978   -5.0925 H   0  0  0  0  0  0  0  0  0  0  0  0
    2.0018    2.1377   -0.5347 N   0  0  0  0  0  0  0  0  0  0  0  0
    3.1776    2.8564   -0.0989 C   0  0  2  0  0  0  0  0  0  0  0  0
    2.9379    3.3284    1.3291 C   0  0  0  0  0  0  0  0  0  0  0  0
    1.8152    3.4694    1.8094 O   0  0  0  0  0  0  0  0  0  0  0  0
    3.4797    4.0311   -1.0162 C   0  0  0  0  0  0  0  0  0  0  0  0
    1.5875    2.3872   -1.4279 H   0  0  0  0  0  0  0  0  0  0  0  0
    4.0082    2.1423   -0.1136 H   0  0  0  0  0  0  0  0  0  0  0  0
    2.6586    4.7573   -1.0146 H   0  0  0  0  0  0  0  0  0  0  0  0
    4.3869    4.5573   -0.7013 H   0  0  0  0  0  0  0  0  0  0  0  0
    3.6224    3.6931   -2.0483 H   0  0  0  0  0  0  0  0  0  0  0  0
    4.1242    3.6148    1.9901 N   0  0  0  0  0  0  0  0  0  0  0  0
    4.1618    4.0920    3.3528 C   0  0  0  0  0  0  0  0  0  0  0  0
    5.0099    3.4504    1.5209 H   0  0  0  0  0  0  0  0  0  0  0  0
    4.1714    5.1919    3.3565 H   0  0  0  0  0  0  0  0  0  0  0  0
    3.2734    3.7313    3.8921 H   0  0  0  0  0  0  0  0  0  0  0  0
    5.0691    3.7158    3.8480 H   0  0  0  0  0  0  0  0  0  0  0  0
 23 25  2  0  0  0  0
 22 23  1  0  0  0  0
 24 26  1  0  0  0  0
 22 24  2  0  0  0  0
 25 27  1  0  0  0  0
 26 27  2  0  0  0  0
 21 22  1  0  0  0  0
 27 28  1  0  0  0  0
  1  3  1  0  0  0  0
  1  7  1  0  0  0  0
  1  2  2  0  0  0  0
 39 40  1  0  0  0  0
 40 48  1  0  0  0  0
 40 41  2  0  0  0  0
  8  9  1  0  0  0  0
  9 17  1  0  0  0  0
  9 10  2  0  0  0  0
 18 19  1  0  0  0  0
 19 38  1  0  0  0  0
 19 20  2  0  0  0  0
 39 42  1  0  0  0  0
  8 11  1  0  0  0  0
 48 49  1  0  0  0  0
 18 21  1  0  0  0  0
 38 39  1  0  0  0  0
  7  8  1  0  0  0  0
 17 18  1  0  0  0  0
 23 33  1  0  0  0  0
 24 34  1  0  0  0  0
 25 35  1  0  0  0  0
 26 36  1  0  0  0  0
  3  4  1  0  0  0  0
  3  5  1  0  0  0  0
  3  6  1  0  0  0  0
 42 45  1  0  0  0  0
 42 46  1  0  0  0  0
 42 47  1  0  0  0  0
 11 14  1  0  0  0  0
 11 15  1  0  0  0  0
 11 16  1  0  0  0  0
 49 51  1  0  0  0  0
 49 52  1  0  0  0  0
 49 53  1  0  0  0  0
 21 31  1  0  0  0  0
 21 32  1  0  0  0  0
 39 44  1  0  0  0  0
  8 13  1  0  0  0  0
 18 30  1  0  0  0  0
 48 50  1  0  0  0  0
  7 12  1  0  0  0  0
 38 43  1  0  0  0  0
 17 29  1  0  0  0  0
 28 37  1  0  0  0  0
M  END
$$$$

  -OEChem-05262214473D

 53 53  0     1  0  0  0  0  0999 V2000
   -1.9298    0.2574    3.9747 C   0  0  0  0  0  0  0  0  0  0  0  0
   -0.9825   -0.3573    3.4990 O   0  0  0  0  0  0  0  0  0  0  0  0
   -2.3617   -0.0250    5.3754 C   0  0  0  0  0  0  0  0  0  0  0  0
   -3.1214   -0.8213    5.4288 H   0  0  0  0  0  0  0  0  0  0  0  0
   -1.5305   -0.3726    6.0097 H   0  0  0  0  0  0  0  0  0  0  0  0
   -2.7997    0.8299    5.9150 H   0  0  0  0  0  0  0  0  0  0  0  0
   -2.6795    1.2298    3.3336 N   0  0  0  0  0  0  0  0  0  0  0  0
   -2.4327    1.6559    1.9812 C   0  0  2  0  0  0  0  0  0  0  0  0
   -1.0977    1.0705    1.5400 C   0  0  0  0  0  0  0  0  0  0  0  0
   -0.2256    0.7177    2.3313 O   0  0  0  0  0  0  0  0  0  0  0  0
   -2.4239    3.1726    1.8718 C   0  0  0  0  0  0  0  0  0  0  0  0
   -3.4446    1.6657    3.8454 H   0  0  0  0  0  0  0  0  0  0  0  0
   -3.2368    1.2374    1.3661 H   0  0  0  0  0  0  0  0  0  0  0  0
   -1.6248    3.6099    2.4815 H   0  0  0  0  0  0  0  0  0  0  0  0
   -2.2644    3.4949    0.8375 H   0  0  0  0  0  0  0  0  0  0  0  0
   -3.3741    3.5939    2.2175 H   0  0  0  0  0  0  0  0  0  0  0  0
   -0.9750    1.0274    0.1566 N   0  0  0  0  0  0  0  0  0  0  0  0
    0.2023    0.5266   -0.5070 C   0  0  2  0  0  0  0  0  0  0  0  0
    1.4103    1.1238    0.2059 C   0  0  0  0  0  0  0  0  0  0  0  0
    1.9844    0.5607    1.1355 O   0  0  0  0  0  0  0  0  0  0  0  0
    0.2275    0.8922   -1.9956 C   0  0  0  0  0  0  0  0  0  0  0  0
   -0.8578    0.2014   -2.7847 C   0  0  0  0  0  0  0  0  0  0  0  0
   -0.6835   -1.1175   -3.2040 C   0  0  0  0  0  0  0  0  0  0  0  0
   -2.0350    0.8822   -3.0952 C   0  0  0  0  0  0  0  0  0  0  0  0
   -1.6864   -1.7556   -3.9338 C   0  0  0  0  0  0  0  0  0  0  0  0
   -3.0379    0.2441   -3.8251 C   0  0  0  0  0  0  0  0  0  0  0  0
   -2.8636   -1.0748   -4.2443 C   0  0  0  0  0  0  0  0  0  0  0  0
   -3.8415   -1.6973   -4.9576 O   0  0  0  0  0  0  0  0  0  0  0  0
   -1.7582    1.3241   -0.4207 H   0  0  0  0  0  0  0  0  0  0  0  0
    0.2026   -0.5605   -0.3645 H   0  0  0  0  0  0  0  0  0  0  0  0
    1.2082    0.6540   -2.4293 H   0  0  0  0  0  0  0  0  0  0  0  0
    0.1106    1.9762   -2.1263 H   0  0  0  0  0  0  0  0  0  0  0  0
    0.2303   -1.6555   -2.9665 H   0  0  0  0  0  0  0  0  0  0  0  0
   -2.1795    1.9101   -2.7725 H   0  0  0  0  0  0  0  0  0  0  0  0
   -1.5446   -2.7832   -4.2579 H   0  0  0  0  0  0  0  0  0  0  0  0
   -3.9523    0.7798   -4.0640 H   0  0  0  0  0  0  0  0  0  0  0  0
   -4.5928   -1.0978   -5.0925 H   0  0  0  0  0  0  0  0  0  0  0  0
    1.7979    2.3336   -0.3532 N   0  0  0  0  0  0  0  0  0  0  0  0
    2.9291    3.0996    0.1185 C   0  0  2  0  0  0  0  0  0  0  0  0
    2.8031    3.2425    1.6295 C   0  0  0  0  0  0  0  0  0  0  0  0
    1.7338    3.1362    2.2265 O   0  0  0  0  0  0  0  0  0  0  0  0
    2.9930    4.4626   -0.5529 C   0  0  0  0  0  0  0  0  0  0  0  0
    1.2594    2.6990   -1.1331 H   0  0  0  0  0  0  0  0  0  0  0  0
    3.8263    2.5184   -0.1204 H   0  0  0  0  0  0  0  0  0  0  0  0
    2.1023    5.0594   -0.3250 H   0  0  0  0  0  0  0  0  0  0  0  0
    3.8664    5.0304   -0.2157 H   0  0  0  0  0  0  0  0  0  0  0  0
    3.0535    4.3583   -1.6416 H   0  0  0  0  0  0  0  0  0  0  0  0
    4.0180    3.5453    2.2282 N   0  0  0  0  0  0  0  0  0  0  0  0
    4.1578    3.7427    3.6521 C   0  0  0  0  0  0  0  0  0  0  0  0
    4.8572    3.5956    1.6581 H   0  0  0  0  0  0  0  0  0  0  0  0
    4.0462    4.8115    3.8873 H   0  0  0  0  0  0  0  0  0  0  0  0
    3.3820    3.1683    4.1796 H   0  0  0  0  0  0  0  0  0  0  0  0
    5.1516    3.3984    3.9740 H   0  0  0  0  0  0  0  0  0  0  0  0
 23 25  2  0  0  0  0
 22 23  1  0  0  0  0
 24 26  1  0  0  0  0
 22 24  2  0  0  0  0
 25 27  1  0  0  0  0
 26 27  2  0  0  0  0
 21 22  1  0  0  0  0
 27 28  1  0  0  0  0
  1  3  1  0  0  0  0
  1  7  1  0  0  0  0
  1  2  2  0  0  0  0
 39 40  1  0  0  0  0
 40 48  1  0  0  0  0
 40 41  2  0  0  0  0
  8  9  1  0  0  0  0
  9 17  1  0  0  0  0
  9 10  2  0  0  0  0
 18 19  1  0  0  0  0
 19 38  1  0  0  0  0
 19 20  2  0  0  0  0
 39 42  1  0  0  0  0
  8 11  1  0  0  0  0
 48 49  1  0  0  0  0
 18 21  1  0  0  0  0
 38 39  1  0  0  0  0
  7  8  1  0  0  0  0
 17 18  1  0  0  0  0
 23 33  1  0  0  0  0
 24 34  1  0  0  0  0
 25 35  1  0  0  0  0
 26 36  1  0  0  0  0
  3  4  1  0  0  0  0
  3  5  1  0  0  0  0
  3  6  1  0  0  0  0
 42 45  1  0  0  0  0
 42 46  1  0  0  0  0
 42 47  1  0  0  0  0
 11 14  1  0  0  0  0
 11 15  1  0  0  0  0
 11 16  1  0  0  0  0
 49 51  1  0  0  0  0
 49 52  1  0  0  0  0
 49 53  1  0  0  0  0
 21 31  1  0  0  0  0
 21 32  1  0  0  0  0
 39 44  1  0  0  0  0
  8 13  1  0  0  0  0
 18 30  1  0  0  0  0
 48 50  1  0  0  0  0
  7 12  1  0  0  0  0
 38 43  1  0  0  0  0
 17 29  1  0  0  0  0
 28 37  1  0  0  0  0
M  END
$$$$

  -OEChem-05262214473D

 53 53  0     1  0  0  0  0  0999 V2000
   -1.9298    0.2574    3.9747 C   0  0  0  0  0  0  0  0  0  0  0  0
   -0.9825   -0.3573    3.4990 O   0  0  0  0  0  0  0  0  0  0  0  0
   -2.3617   -0.0250    5.3754 C   0  0  0  0  0  0  0  0  0  0  0  0
   -3.1214   -0.8213    5.4288 H   0  0  0  0  0  0  0  0  0  0  0  0
   -1.5305   -0.3726    6.0097 H   0  0  0  0  0  0  0  0  0  0  0  0
   -2.7997    0.8299    5.9150 H   0  0  0  0  0  0  0  0  0  0  0  0
   -2.6795    1.2298    3.3336 N   0  0  0  0  0  0  0  0  0  0  0  0
   -2.4327    1.6559    1.9812 C   0  0  2  0  0  0  0  0  0  0  0  0
   -1.0977    1.0705    1.5400 C   0  0  0  0  0  0  0  0  0  0  0  0
   -0.2256    0.7177    2.3313 O   0  0  0  0  0  0  0  0  0  0  0  0
   -2.4239    3.1726    1.8718 C   0  0  0  0  0  0  0  0  0  0  0  0
   -3.4446    1.6657    3.8454 H   0  0  0  0  0  0  0  0  0  0  0  0
   -3.2368    1.2374    1.3661 H   0  0  0  0  0  0  0  0  0  0  0  0
   -1.6248    3.6099    2.4815 H   0  0  0  0  0  0  0  0  0  0  0  0
   -2.2644    3.4949    0.8375 H   0  0  0  0  0  0  0  0  0  0  0  0
   -3.3741    3.5939    2.2175 H   0  0  0  0  0  0  0  0  0  0  0  0
   -0.9750    1.0274    0.1566 N   0  0  0  0  0  0  0  0  0  0  0  0
    0.2023    0.5266   -0.5070 C   0  0  2  0  0  0  0  0  0  0  0  0
    1.4103    1.1238    0.2059 C   0  0  0  0  0  0  0  0  0  0  0  0
    2.1453    0.4677    0.9408 O   0  0  0  0  0  0  0  0  0  0  0  0
    0.2275    0.8922   -1.9956 C   0  0  0  0  0  0  0  0  0  0  0  0
   -0.8578    0.2014   -2.7847 C   0  0  0  0  0  0  0  0  0  0  0  0
   -0.6835   -1.1175   -3.2040 C   0  0  0  0  0  0  0  0  0  0  0  0
   -2.0350    0.8822   -3.0952 C   0  0  0  0  0  0  0  0  0  0  0  0
   -1.6864   -1.7556   -3.9338 C   0  0  0  0  0  0  0  0  0  0  0  0
   -3.0379    0.2441   -3.8251 C   0  0  0  0  0  0  0  0  0  0  0  0
   -2.8636   -1.0748   -4.2443 C   0  0  0  0  0  0  0  0  0  0  0  0
   -3.8415   -1.6973   -4.9576 O   0  0  0  0  0  0  0  0  0  0  0  0
   -1.7582    1.3241   -0.4207 H   0  0  0  0  0  0  0  0  0  0  0  0
    0.2026   -0.5605   -0.3645 H   0  0  0  0  0  0  0  0  0  0  0  0
    1.2082    0.6540   -2.4293 H   0  0  0  0  0  0  0  0  0  0  0  0
    0.1106    1.9762   -2.1263 H   0  0  0  0  0  0  0  0  0  0  0  0
    0.2303   -1.6555   -2.9665 H   0  0  0  0  0  0  0  0  0  0  0  0
   -2.1795    1.9101   -2.7725 H   0  0  0  0  0  0  0  0  0  0  0  0
   -1.5446   -2.7832   -4.2579 H   0  0  0  0  0  0  0  0  0  0  0  0
   -3.9523    0.7798   -4.0640 H   0  0  0  0  0  0  0  0  0  0  0  0
   -4.5928   -1.0978   -5.0925 H   0  0  0  0  0  0  0  0  0  0  0  0
    1.5956    2.4609   -0.1171 N   0  0  0  0  0  0  0  0  0  0  0  0
    2.6816    3.2599    0.4036 C   0  0  2  0  0  0  0  0  0  0  0  0
    2.7137    3.0816    1.9157 C   0  0  0  0  0  0  0  0  0  0  0  0
    1.7378    2.7190    2.5693 O   0  0  0  0  0  0  0  0  0  0  0  0
    2.5176    4.7255    0.0324 C   0  0  0  0  0  0  0  0  0  0  0  0
    0.9347    2.9000   -0.7512 H   0  0  0  0  0  0  0  0  0  0  0  0
    3.6045    2.8610   -0.0315 H   0  0  0  0  0  0  0  0  0  0  0  0
    1.5983    5.1425    0.4594 H   0  0  0  0  0  0  0  0  0  0  0  0
    3.3557    5.3248    0.4031 H   0  0  0  0  0  0  0  0  0  0  0  0
    2.4648    4.8486   -1.0547 H   0  0  0  0  0  0  0  0  0  0  0  0
    3.9480    3.4165    2.4546 N   0  0  0  0  0  0  0  0  0  0  0  0
    4.2266    3.3435    3.8699 C   0  0  0  0  0  0  0  0  0  0  0  0
    4.7060    3.6892    1.8359 H   0  0  0  0  0  0  0  0  0  0  0  0
    4.0252    4.3200    4.3347 H   0  0  0  0  0  0  0  0  0  0  0  0
    3.5842    2.5787    4.3309 H   0  0  0  0  0  0  0  0  0  0  0  0
    5.2826    3.0759    4.0223 H   0  0  0  0  0  0  0  0  0  0  0  0
 23 25  2  0  0  0  0
 22 23  1  0  0  0  0
 24 26  1  0  0  0  0
 22 24  2  0  0  0  0
 25 27  1  0  0  0  0
 26 27  2  0  0  0  0
 21 22  1  0  0  0  0
 27 28  1  0  0  0  0
  1  3  1  0  0  0  0
  1  7  1  0  0  0  0
  1  2  2  0  0  0  0
 39 40  1  0  0  0  0
 40 48  1  0  0  0  0
 40 41  2  0  0  0  0
  8  9  1  0  0  0  0
  9 17  1  0  0  0  0
  9 10  2  0  0  0  0
 18 19  1  0  0  0  0
 19 38  1  0  0  0  0
 19 20  2  0  0  0  0
 39 42  1  0  0  0  0
  8 11  1  0  0  0  0
 48 49  1  0  0  0  0
 18 21  1  0  0  0  0
 38 39  1  0  0  0  0
  7  8  1  0  0  0  0
 17 18  1  0  0  0  0
 23 33  1  0  0  0  0
 24 34  1  0  0  0  0
 25 35  1  0  0  0  0
 26 36  1  0  0  0  0
  3  4  1  0  0  0  0
  3  5  1  0  0  0  0
  3  6  1  0  0  0  0
 42 45  1  0  0  0  0
 42 46  1  0  0  0  0
 42 47  1  0  0  0  0
 11 14  1  0  0  0  0
 11 15  1  0  0  0  0
 11 16  1  0  0  0  0
 49 51  1  0  0  0  0
 49 52  1  0  0  0  0
 49 53  1  0  0  0  0
 21 31  1  0  0  0  0
 21 32  1  0  0  0  0
 39 44  1  0  0  0  0
  8 13  1  0  0  0  0
 18 30  1  0  0  0  0
 48 50  1  0  0  0  0
  7 12  1  0  0  0  0
 38 43  1  0  0  0  0
 17 29  1  0  0  0  0
 28 37  1  0  0  0  0
M  END
$$$$

  -OEChem-05262214473D

 53 53  0     1  0  0  0  0  0999 V2000
   -1.9298    0.2574    3.9747 C   0  0  0  0  0  0  0  0  0  0  0  0
   -0.9825   -0.3573    3.4990 O   0  0  0  0  0  0  0  0  0  0  0  0
   -2.3617   -0.0250    5.3754 C   0  0  0  0  0  0  0  0  0  0  0  0
   -3.1214   -0.8213    5.4288 H   0  0  0  0  0  0  0  0  0  0  0  0
   -1.5305   -0.3726    6.0097 H   0  0  0  0  0  0  0  0  0  0  0  0
   -2.7997    0.8299    5.9150 H   0  0  0  0  0  0  0  0  0  0  0  0
   -2.6795    1.2298    3.3336 N   0  0  0  0  0  0  0  0  0  0  0  0
   -2.4327    1.6559    1.9812 C   0  0  2  0  0  0  0  0  0  0  0  0
   -1.0977    1.0705    1.5400 C   0  0  0  0  0  0  0  0  0  0  0  0
   -0.2256    0.7177    2.3313 O   0  0  0  0  0  0  0  0  0  0  0  0
   -2.4239    3.1726    1.8718 C   0  0  0  0  0  0  0  0  0  0  0  0
   -3.4446    1.6657    3.8454 H   0  0  0  0  0  0  0  0  0  0  0  0
   -3.2368    1.2374    1.3661 H   0  0  0  0  0  0  0  0  0  0  0  0
   -1.6248    3.6099    2.4815 H   0  0  0  0  0  0  0  0  0  0  0  0
   -2.2644    3.4949    0.8375 H   0  0  0  0  0  0  0  0  0  0  0  0
   -3.3741    3.5939    2.2175 H   0  0  0  0  0  0  0  0  0  0  0  0
   -0.9750    1.0274    0.1566 N   0  0  0  0  0  0  0  0  0  0  0  0
    0.2023    0.5266   -0.5070 C   0  0  2  0  0  0  0  0  0  0  0  0
    1.4103    1.1238    0.2059 C   0  0  0  0  0  0  0  0  0  0  0  0
    2.2923    0.4372    0.7174 O   0  0  0  0  0  0  0  0  0  0  0  0
    0.2275    0.8922   -1.9956 C   0  0  0  0  0  0  0  0  0  0  0  0
   -0.8578    0.2014   -2.7847 C   0  0  0  0  0  0  0  0  0  0  0  0
   -0.6835   -1.1175   -3.2040 C   0  0  0  0  0  0  0  0  0  0  0  0
   -2.0350    0.8822   -3.0952 C   0  0  0  0  0  0  0  0  0  0  0  0
   -1.6864   -1.7556   -3.9338 C   0  0  0  0  0  0  0  0  0  0  0  0
   -3.0379    0.2441   -3.8251 C   0  0  0  0  0  0  0  0  0  0  0  0
   -2.8636   -1.0748   -4.2443 C   0  0  0  0  0  0  0  0  0  0  0  0
   -3.8415   -1.6973   -4.9576 O   0  0  0  0  0  0  0  0  0  0  0  0
   -1.7582    1.3241   -0.4207 H   0  0  0  0  0  0  0  0  0  0  0  0
    0.2026   -0.5605   -0.3645 H   0  0  0  0  0  0  0  0  0  0  0  0
    1.2082    0.6540   -2.4293 H   0  0  0  0  0  0  0  0  0  0  0  0
    0.1106    1.9762   -2.1263 H   0  0  0  0  0  0  0  0  0  0  0  0
    0.2303   -1.6555   -2.9665 H   0  0  0  0  0  0  0  0  0  0  0  0
   -2.1795    1.9101   -2.7725 H   0  0  0  0  0  0  0  0  0  0  0  0
   -1.5446   -2.7832   -4.2579 H   0  0  0  0  0  0  0  0  0  0  0  0
   -3.9523    0.7798   -4.0640 H   0  0  0  0  0  0  0  0  0  0  0  0
   -4.5928   -1.0978   -5.0925 H   0  0  0  0  0  0  0  0  0  0  0  0
    1.4087    2.5109    0.1577 N   0  0  0  0  0  0  0  0  0  0  0  0
    2.4521    3.3262    0.7369 C   0  0  2  0  0  0  0  0  0  0  0  0
    2.6759    2.8567    2.1683 C   0  0  0  0  0  0  0  0  0  0  0  0
    1.8269    2.2461    2.8144 O   0  0  0  0  0  0  0  0  0  0  0  0
    2.0860    4.8018    0.6999 C   0  0  0  0  0  0  0  0  0  0  0  0
    0.6354    2.9764   -0.3082 H   0  0  0  0  0  0  0  0  0  0  0  0
    3.3577    3.1469    0.1472 H   0  0  0  0  0  0  0  0  0  0  0  0
    1.1809    5.0010    1.2852 H   0  0  0  0  0  0  0  0  0  0  0  0
    2.8895    5.4205    1.1129 H   0  0  0  0  0  0  0  0  0  0  0  0
    1.8963    5.1307   -0.3276 H   0  0  0  0  0  0  0  0  0  0  0  0
    3.9190    3.2373    2.6540 N   0  0  0  0  0  0  0  0  0  0  0  0
    4.3634    2.9216    3.9915 C   0  0  0  0  0  0  0  0  0  0  0  0
    4.5667    3.7248    2.0421 H   0  0  0  0  0  0  0  0  0  0  0  0
    4.1097    3.7509    4.6681 H   0  0  0  0  0  0  0  0  0  0  0  0
    3.8663    2.0026    4.3356 H   0  0  0  0  0  0  0  0  0  0  0  0
    5.4530    2.7703    3.9896 H   0  0  0  0  0  0  0  0  0  0  0  0
 23 25  2  0  0  0  0
 22 23  1  0  0  0  0
 24 26  1  0  0  0  0
 22 24  2  0  0  0  0
 25 27  1  0  0  0  0
 26 27  2  0  0  0  0
 21 22  1  0  0  0  0
 27 28  1  0  0  0  0
  1  3  1  0  0  0  0
  1  7  1  0  0  0  0
  1  2  2  0  0  0  0
 39 40  1  0  0  0  0
 40 48  1  0  0  0  0
 40 41  2  0  0  0  0
  8  9  1  0  0  0  0
  9 17  1  0  0  0  0
  9 10  2  0  0  0  0
 18 19  1  0  0  0  0
 19 38  1  0  0  0  0
 19 20  2  0  0  0  0
 39 42  1  0  0  0  0
  8 11  1  0  0  0  0
 48 49  1  0  0  0  0
 18 21  1  0  0  0  0
 38 39  1  0  0  0  0
  7  8  1  0  0  0  0
 17 18  1  0  0  0  0
 23 33  1  0  0  0  0
 24 34  1  0  0  0  0
 25 35  1  0  0  0  0
 26 36  1  0  0  0  0
  3  4  1  0  0  0  0
  3  5  1  0  0  0  0
  3  6  1  0  0  0  0
 42 45  1  0  0  0  0
 42 46  1  0  0  0  0
 42 47  1  0  0  0  0
 11 14  1  0  0  0  0
 11 15  1  0  0  0  0
 11 16  1  0  0  0  0
 49 51  1  0  0  0  0
 49 52  1  0  0  0  0
 49 53  1  0  0  0  0
 21 31  1  0  0  0  0
 21 32  1  0  0  0  0
 39 44  1  0  0  0  0
  8 13  1  0  0  0  0
 18 30  1  0  0  0  0
 48 50  1  0  0  0  0
  7 12  1  0  0  0  0
 38 43  1  0  0  0  0
 17 29  1  0  0  0  0
 28 37  1  0  0  0  0
M  END
$$$$

  -OEChem-05262214473D

 53 53  0     1  0  0  0  0  0999 V2000
   -1.9298    0.2574    3.9747 C   0  0  0  0  0  0  0  0  0  0  0  0
   -0.9825   -0.3573    3.4990 O   0  0  0  0  0  0  0  0  0  0  0  0
   -2.3617   -0.0250    5.3754 C   0  0  0  0  0  0  0  0  0  0  0  0
   -3.1214   -0.8213    5.4288 H   0  0  0  0  0  0  0  0  0  0  0  0
   -1.5305   -0.3726    6.0097 H   0  0  0  0  0  0  0  0  0  0  0  0
   -2.7997    0.8299    5.9150 H   0  0  0  0  0  0  0  0  0  0  0  0
   -2.6795    1.2298    3.3336 N   0  0  0  0  0  0  0  0  0  0  0  0
   -2.4327    1.6559    1.9812 C   0  0  2  0  0  0  0  0  0  0  0  0
   -1.0977    1.0705    1.5400 C   0  0  0  0  0  0  0  0  0  0  0  0
   -0.2256    0.7177    2.3313 O   0  0  0  0  0  0  0  0  0  0  0  0
   -2.4239    3.1726    1.8718 C   0  0  0  0  0  0  0  0  0  0  0  0
   -3.4446    1.6657    3.8454 H   0  0  0  0  0  0  0  0  0  0  0  0
   -3.2368    1.2374    1.3661 H   0  0  0  0  0  0  0  0  0  0  0  0
   -1.6248    3.6099    2.4815 H   0  0  0  0  0  0  0  0  0  0  0  0
   -2.2644    3.4949    0.8375 H   0  0  0  0  0  0  0  0  0  0  0  0
   -3.3741    3.5939    2.2175 H   0  0  0  0  0  0  0  0  0  0  0  0
   -0.9750    1.0274    0.1566 N   0  0  0  0  0  0  0  0  0  0  0  0
    0.2023    0.5266   -0.5070 C   0  0  2  0  0  0  0  0  0  0  0  0
    1.4103    1.1238    0.2059 C   0  0  0  0  0  0  0  0  0  0  0  0
    2.4152    0.4714    0.4804 O   0  0  0  0  0  0  0  0  0  0  0  0
    0.2275    0.8922   -1.9956 C   0  0  0  0  0  0  0  0  0  0  0  0
   -0.8578    0.2014   -2.7847 C   0  0  0  0  0  0  0  0  0  0  0  0
   -0.6835   -1.1175   -3.2040 C   0  0  0  0  0  0  0  0  0  0  0  0
   -2.0350    0.8822   -3.0952 C   0  0  0  0  0  0  0  0  0  0  0  0
   -1.6864   -1.7556   -3.9338 C   0  0  0  0  0  0  0  0  0  0  0  0
   -3.0379    0.2441   -3.8251 C   0  0  0  0  0  0  0  0  0  0  0  0
   -2.8636   -1.0748   -4.2443 C   0  0  0  0  0  0  0  0  0  0  0  0
   -3.8415   -1.6973   -4.9576 O   0  0  0  0  0  0  0  0  0  0  0  0
   -1.7582    1.3241   -0.4207 H   0  0  0  0  0  0  0  0  0  0  0  0
    0.2026   -0.5605   -0.3645 H   0  0  0  0  0  0  0  0  0  0  0  0
    1.2082    0.6540   -2.4293 H   0  0  0  0  0  0  0  0  0  0  0  0
    0.1106    1.9762   -2.1263 H   0  0  0  0  0  0  0  0  0  0  0  0
    0.2303   -1.6555   -2.9665 H   0  0  0  0  0  0  0  0  0  0  0  0
   -2.1795    1.9101   -2.7725 H   0  0  0  0  0  0  0  0  0  0  0  0
   -1.5446   -2.7832   -4.2579 H   0  0  0  0  0  0  0  0  0  0  0  0
   -3.9523    0.7798   -4.0640 H   0  0  0  0  0  0  0  0  0  0  0  0
   -4.5928   -1.0978   -5.0925 H   0  0  0  0  0  0  0  0  0  0  0  0
    1.2500    2.4803    0.4522 N   0  0  0  0  0  0  0  0  0  0  0  0
    2.2561    3.2942    1.0957 C   0  0  2  0  0  0  0  0  0  0  0  0
    2.6921    2.5830    2.3699 C   0  0  0  0  0  0  0  0  0  0  0  0
    1.9950    1.7499    2.9452 O   0  0  0  0  0  0  0  0  0  0  0  0
    1.7274    4.6864    1.4040 C   0  0  0  0  0  0  0  0  0  0  0  0
    0.3820    2.9232    0.1658 H   0  0  0  0  0  0  0  0  0  0  0  0
    3.1028    3.3565    0.4035 H   0  0  0  0  0  0  0  0  0  0  0  0
    0.8786    4.6443    2.0962 H   0  0  0  0  0  0  0  0  0  0  0  0
    2.4996    5.3108    1.8655 H   0  0  0  0  0  0  0  0  0  0  0  0
    1.3867    5.1851    0.4902 H   0  0  0  0  0  0  0  0  0  0  0  0
    3.9328    3.0197    2.8128 N   0  0  0  0  0  0  0  0  0  0  0  0
    4.5590    2.5056    4.0085 C   0  0  0  0  0  0  0  0  0  0  0  0
    4.4487    3.7001    2.2627 H   0  0  0  0  0  0  0  0  0  0  0  0
    4.2940    3.1431    4.8649 H   0  0  0  0  0  0  0  0  0  0  0  0
    4.2089    1.4793    4.1934 H   0  0  0  0  0  0  0  0  0  0  0  0
    5.6512    2.5025    3.8780 H   0  0  0  0  0  0  0  0  0  0  0  0
 23 25  2  0  0  0  0
 22 23  1  0  0  0  0
 24 26  1  0  0  0  0
 22 24  2  0  0  0  0
 25 27  1  0  0  0  0
 26 27  2  0  0  0  0
 21 22  1  0  0  0  0
 27 28  1  0  0  0  0
  1  3  1  0  0  0  0
  1  7  1  0  0  0  0
  1  2  2  0  0  0  0
 39 40  1  0  0  0  0
 40 48  1  0  0  0  0
 40 41  2  0  0  0  0
  8  9  1  0  0  0  0
  9 17  1  0  0  0  0
  9 10  2  0  0  0  0
 18 19  1  0  0  0  0
 19 38  1  0  0  0  0
 19 20  2  0  0  0  0
 39 42  1  0  0  0  0
  8 11  1  0  0  0  0
 48 49  1  0  0  0  0
 18 21  1  0  0  0  0
 38 39  1  0  0  0  0
  7  8  1  0  0  0  0
 17 18  1  0  0  0  0
 23 33  1  0  0  0  0
 24 34  1  0  0  0  0
 25 35  1  0  0  0  0
 26 36  1  0  0  0  0
  3  4  1  0  0  0  0
  3  5  1  0  0  0  0
  3  6  1  0  0  0  0
 42 45  1  0  0  0  0
 42 46  1  0  0  0  0
 42 47  1  0  0  0  0
 11 14  1  0  0  0  0
 11 15  1  0  0  0  0
 11 16  1  0  0  0  0
 49 51  1  0  0  0  0
 49 52  1  0  0  0  0
 49 53  1  0  0  0  0
 21 31  1  0  0  0  0
 21 32  1  0  0  0  0
 39 44  1  0  0  0  0
  8 13  1  0  0  0  0
 18 30  1  0  0  0  0
 48 50  1  0  0  0  0
  7 12  1  0  0  0  0
 38 43  1  0  0  0  0
 17 29  1  0  0  0  0
 28 37  1  0  0  0  0
M  END
$$$$

  -OEChem-05262214473D

 53 53  0     1  0  0  0  0  0999 V2000
   -1.9298    0.2574    3.9747 C   0  0  0  0  0  0  0  0  0  0  0  0
   -0.9825   -0.3573    3.4990 O   0  0  0  0  0  0  0  0  0  0  0  0
   -2.3617   -0.0250    5.3754 C   0  0  0  0  0  0  0  0  0  0  0  0
   -3.1214   -0.8213    5.4288 H   0  0  0  0  0  0  0  0  0  0  0  0
   -1.5305   -0.3726    6.0097 H   0  0  0  0  0  0  0  0  0  0  0  0
   -2.7997    0.8299    5.9150 H   0  0  0  0  0  0  0  0  0  0  0  0
   -2.6795    1.2298    3.3336 N   0  0  0  0  0  0  0  0  0  0  0  0
   -2.4327    1.6559    1.9812 C   0  0  2  0  0  0  0  0  0  0  0  0
   -1.0977    1.0705    1.5400 C   0  0  0  0  0  0  0  0  0  0  0  0
   -0.2256    0.7177    2.3313 O   0  0  0  0  0  0  0  0  0  0  0  0
   -2.4239    3.1726    1.8718 C   0  0  0  0  0  0  0  0  0  0  0  0
   -3.4446    1.6657    3.8454 H   0  0  0  0  0  0  0  0  0  0  0  0
   -3.2368    1.2374    1.3661 H   0  0  0  0  0  0  0  0  0  0  0  0
   -1.6248    3.6099    2.4815 H   0  0  0  0  0  0  0  0  0  0  0  0
   -2.2644    3.4949    0.8375 H   0  0  0  0  0  0  0  0  0  0  0  0
   -3.3741    3.5939    2.2175 H   0  0  0  0  0  0  0  0  0  0  0  0
   -0.9750    1.0274    0.1566 N   0  0  0  0  0  0  0  0  0  0  0  0
    0.2023    0.5266   -0.5070 C   0  0  2  0  0  0  0  0  0  0  0  0
    1.4103    1.1238    0.2059 C   0  0  0  0  0  0  0  0  0  0  0  0
    2.5058    0.5679    0.2460 O   0  0  0  0  0  0  0  0  0  0  0  0
    0.2275    0.8922   -1.9956 C   0  0  0  0  0  0  0  0  0  0  0  0
   -0.8578    0.2014   -2.7847 C   0  0  0  0  0  0  0  0  0  0  0  0
   -0.6835   -1.1175   -3.2040 C   0  0  0  0  0  0  0  0  0  0  0  0
   -2.0350    0.8822   -3.0952 C   0  0  0  0  0  0  0  0  0  0  0  0
   -1.6864   -1.7556   -3.9338 C   0  0  0  0  0  0  0  0  0  0  0  0
   -3.0379    0.2441   -3.8251 C   0  0  0  0  0  0  0  0  0  0  0  0
   -2.8636   -1.0748   -4.2443 C   0  0  0  0  0  0  0  0  0  0  0  0
   -3.8415   -1.6973   -4.9576 O   0  0  0  0  0  0  0  0  0  0  0  0
   -1.7582    1.3241   -0.4207 H   0  0  0  0  0  0  0  0  0  0  0  0
    0.2026   -0.5605   -0.3645 H   0  0  0  0  0  0  0  0  0  0  0  0
    1.2082    0.6540   -2.4293 H   0  0  0  0  0  0  0  0  0  0  0  0
    0.1106    1.9762   -2.1263 H   0  0  0  0  0  0  0  0  0  0  0  0
    0.2303   -1.6555   -2.9665 H   0  0  0  0  0  0  0  0  0  0  0  0
   -2.1795    1.9101   -2.7725 H   0  0  0  0  0  0  0  0  0  0  0  0
   -1.5446   -2.7832   -4.2579 H   0  0  0  0  0  0  0  0  0  0  0  0
   -3.9523    0.7798   -4.0640 H   0  0  0  0  0  0  0  0  0  0  0  0
   -4.5928   -1.0978   -5.0925 H   0  0  0  0  0  0  0  0  0  0  0  0
    1.1303    2.3711    0.7465 N   0  0  0  0  0  0  0  0  0  0  0  0
    2.1071    3.1660    1.4556 C   0  0  2  0  0  0  0  0  0  0  0  0
    2.7614    2.2793    2.5069 C   0  0  0  0  0  0  0  0  0  0  0  0
    2.2307    1.2641    2.9527 O   0  0  0  0  0  0  0  0  0  0  0  0
    1.4665    4.3872    2.0968 C   0  0  0  0  0  0  0  0  0  0  0  0
    0.1917    2.7440    0.6384 H   0  0  0  0  0  0  0  0  0  0  0  0
    2.8573    3.4755    0.7198 H   0  0  0  0  0  0  0  0  0  0  0  0
    0.7120    4.0969    2.8371 H   0  0  0  0  0  0  0  0  0  0  0  0
    2.2125    5.0034    2.6095 H   0  0  0  0  0  0  0  0  0  0  0  0
    0.9708    5.0083    1.3430 H   0  0  0  0  0  0  0  0  0  0  0  0
    3.9886    2.7786    2.9202 N   0  0  0  0  0  0  0  0  0  0  0  0
    4.7999    2.1240    3.9199 C   0  0  0  0  0  0  0  0  0  0  0  0
    4.3601    3.6167    2.4827 H   0  0  0  0  0  0  0  0  0  0  0  0
    4.5655    2.5380    4.9117 H   0  0  0  0  0  0  0  0  0  0  0  0
    4.5887    1.0445    3.9140 H   0  0  0  0  0  0  0  0  0  0  0  0
    5.8638    2.2907    3.6952 H   0  0  0  0  0  0  0  0  0  0  0  0
 23 25  2  0  0  0  0
 22 23  1  0  0  0  0
 24 26  1  0  0  0  0
 22 24  2  0  0  0  0
 25 27  1  0  0  0  0
 26 27  2  0  0  0  0
 21 22  1  0  0  0  0
 27 28  1  0  0  0  0
  1  3  1  0  0  0  0
  1  7  1  0  0  0  0
  1  2  2  0  0  0  0
 39 40  1  0  0  0  0
 40 48  1  0  0  0  0
 40 41  2  0  0  0  0
  8  9  1  0  0  0  0
  9 17  1  0  0  0  0
  9 10  2  0  0  0  0
 18 19  1  0  0  0  0
 19 38  1  0  0  0  0
 19 20  2  0  0  0  0
 39 42  1  0  0  0  0
  8 11  1  0  0  0  0
 48 49  1  0  0  0  0
 18 21  1  0  0  0  0
 38 39  1  0  0  0  0
  7  8  1  0  0  0  0
 17 18  1  0  0  0  0
 23 33  1  0  0  0  0
 24 34  1  0  0  0  0
 25 35  1  0  0  0  0
 26 36  1  0  0  0  0
  3  4  1  0  0  0  0
  3  5  1  0  0  0  0
  3  6  1  0  0  0  0
 42 45  1  0  0  0  0
 42 46  1  0  0  0  0
 42 47  1  0  0  0  0
 11 14  1  0  0  0  0
 11 15  1  0  0  0  0
 11 16  1  0  0  0  0
 49 51  1  0  0  0  0
 49 52  1  0  0  0  0
 49 53  1  0  0  0  0
 21 31  1  0  0  0  0
 21 32  1  0  0  0  0
 39 44  1  0  0  0  0
  8 13  1  0  0  0  0
 18 30  1  0  0  0  0
 48 50  1  0  0  0  0
  7 12  1  0  0  0  0
 38 43  1  0  0  0  0
 17 29  1  0  0  0  0
 28 37  1  0  0  0  0
M  END
$$$$

  -OEChem-05262214473D

 53 53  0     1  0  0  0  0  0999 V2000
   -1.9298    0.2574    3.9747 C   0  0  0  0  0  0  0  0  0  0  0  0
   -0.9825   -0.3573    3.4990 O   0  0  0  0  0  0  0  0  0  0  0  0
   -2.3617   -0.0250    5.3754 C   0  0  0  0  0  0  0  0  0  0  0  0
   -3.1214   -0.8213    5.4288 H   0  0  0  0  0  0  0  0  0  0  0  0
   -1.5305   -0.3726    6.0097 H   0  0  0  0  0  0  0  0  0  0  0  0
   -2.7997    0.8299    5.9150 H   0  0  0  0  0  0  0  0  0  0  0  0
   -2.6795    1.2298    3.3336 N   0  0  0  0  0  0  0  0  0  0  0  0
   -2.4327    1.6559    1.9812 C   0  0  2  0  0  0  0  0  0  0  0  0
   -1.0977    1.0705    1.5400 C   0  0  0  0  0  0  0  0  0  0  0  0
   -0.2256    0.7177    2.3313 O   0  0  0  0  0  0  0  0  0  0  0  0
   -2.4239    3.1726    1.8718 C   0  0  0  0  0  0  0  0  0  0  0  0
   -3.4446    1.6657    3.8454 H   0  0  0  0  0  0  0  0  0  0  0  0
   -3.2368    1.2374    1.3661 H   0  0  0  0  0  0  0  0  0  0  0  0
   -1.6248    3.6099    2.4815 H   0  0  0  0  0  0  0  0  0  0  0  0
   -2.2644    3.4949    0.8375 H   0  0  0  0  0  0  0  0  0  0  0  0
   -3.3741    3.5939    2.2175 H   0  0  0  0  0  0  0  0  0  0  0  0
   -0.9750    1.0274    0.1566 N   0  0  0  0  0  0  0  0  0  0  0  0
    0.2023    0.5266   -0.5070 C   0  0  2  0  0  0  0  0  0  0  0  0
    1.4103    1.1238    0.2059 C   0  0  0  0  0  0  0  0  0  0  0  0
    2.5579    0.7201    0.0302 O   0  0  0  0  0  0  0  0  0  0  0  0
    0.2275    0.8922   -1.9956 C   0  0  0  0  0  0  0  0  0  0  0  0
   -0.8578    0.2014   -2.7847 C   0  0  0  0  0  0  0  0  0  0  0  0
   -0.6835   -1.1175   -3.2040 C   0  0  0  0  0  0  0  0  0  0  0  0
   -2.0350    0.8822   -3.0952 C   0  0  0  0  0  0  0  0  0  0  0  0
   -1.6864   -1.7556   -3.9338 C   0  0  0  0  0  0  0  0  0  0  0  0
   -3.0379    0.2441   -3.8251 C   0  0  0  0  0  0  0  0  0  0  0  0
   -2.8636   -1.0748   -4.2443 C   0  0  0  0  0  0  0  0  0  0  0  0
   -3.8415   -1.6973   -4.9576 O   0  0  0  0  0  0  0  0  0  0  0  0
   -1.7582    1.3241   -0.4207 H   0  0  0  0  0  0  0  0  0  0  0  0
    0.2026   -0.5605   -0.3645 H   0  0  0  0  0  0  0  0  0  0  0  0
    1.2082    0.6540   -2.4293 H   0  0  0  0  0  0  0  0  0  0  0  0
    0.1106    1.9762   -2.1263 H   0  0  0  0  0  0  0  0  0  0  0  0
    0.2303   -1.6555   -2.9665 H   0  0  0  0  0  0  0  0  0  0  0  0
   -2.1795    1.9101   -2.7725 H   0  0  0  0  0  0  0  0  0  0  0  0
   -1.5446   -2.7832   -4.2579 H   0  0  0  0  0  0  0  0  0  0  0  0
   -3.9523    0.7798   -4.0640 H   0  0  0  0  0  0  0  0  0  0  0  0
   -4.5928   -1.0978   -5.0925 H   0  0  0  0  0  0  0  0  0  0  0  0
    1.0577    2.1908    1.0206 N   0  0  0  0  0  0  0  0  0  0  0  0
    2.0152    2.9503    1.7921 C   0  0  2  0  0  0  0  0  0  0  0  0
    2.8790    1.9663    2.5699 C   0  0  0  0  0  0  0  0  0  0  0  0
    2.5180    0.8218    2.8364 O   0  0  0  0  0  0  0  0  0  0  0  0
    1.3209    3.9244    2.7312 C   0  0  0  0  0  0  0  0  0  0  0  0
    0.0775    2.4509    1.0775 H   0  0  0  0  0  0  0  0  0  0  0  0
    2.6378    3.4960    1.0747 H   0  0  0  0  0  0  0  0  0  0  0  0
    0.6924    3.3960    3.4573 H   0  0  0  0  0  0  0  0  0  0  0  0
    2.0478    4.5191    3.2942 H   0  0  0  0  0  0  0  0  0  0  0  0
    0.6770    4.6123    2.1727 H   0  0  0  0  0  0  0  0  0  0  0  0
    4.0826    2.5305    2.9688 N   0  0  0  0  0  0  0  0  0  0  0  0
    5.0699    1.8028    3.7315 C   0  0  0  0  0  0  0  0  0  0  0  0
    4.3069    3.4803    2.6871 H   0  0  0  0  0  0  0  0  0  0  0  0
    4.9058    1.9768    4.8052 H   0  0  0  0  0  0  0  0  0  0  0  0
    4.9799    0.7278    3.5164 H   0  0  0  0  0  0  0  0  0  0  0  0
    6.0762    2.1493    3.4536 H   0  0  0  0  0  0  0  0  0  0  0  0
 23 25  2  0  0  0  0
 22 23  1  0  0  0  0
 24 26  1  0  0  0  0
 22 24  2  0  0  0  0
 25 27  1  0  0  0  0
 26 27  2  0  0  0  0
 21 22  1  0  0  0  0
 27 28  1  0  0  0  0
  1  3  1  0  0  0  0
  1  7  1  0  0  0  0
  1  2  2  0  0  0  0
 39 40  1  0  0  0  0
 40 48  1  0  0  0  0
 40 41  2  0  0  0  0
  8  9  1  0  0  0  0
  9 17  1  0  0  0  0
  9 10  2  0  0  0  0
 18 19  1  0  0  0  0
 19 38  1  0  0  0  0
 19 20  2  0  0  0  0
 39 42  1  0  0  0  0
  8 11  1  0  0  0  0
 48 49  1  0  0  0  0
 18 21  1  0  0  0  0
 38 39  1  0  0  0  0
  7  8  1  0  0  0  0
 17 18  1  0  0  0  0
 23 33  1  0  0  0  0
 24 34  1  0  0  0  0
 25 35  1  0  0  0  0
 26 36  1  0  0  0  0
  3  4  1  0  0  0  0
  3  5  1  0  0  0  0
  3  6  1  0  0  0  0
 42 45  1  0  0  0  0
 42 46  1  0  0  0  0
 42 47  1  0  0  0  0
 11 14  1  0  0  0  0
 11 15  1  0  0  0  0
 11 16  1  0  0  0  0
 49 51  1  0  0  0  0
 49 52  1  0  0  0  0
 49 53  1  0  0  0  0
 21 31  1  0  0  0  0
 21 32  1  0  0  0  0
 39 44  1  0  0  0  0
  8 13  1  0  0  0  0
 18 30  1  0  0  0  0
 48 50  1  0  0  0  0
  7 12  1  0  0  0  0
 38 43  1  0  0  0  0
 17 29  1  0  0  0  0
 28 37  1  0  0  0  0
M  END
$$$$

  -OEChem-05262214473D

 53 53  0     1  0  0  0  0  0999 V2000
   -1.9298    0.2574    3.9747 C   0  0  0  0  0  0  0  0  0  0  0  0
   -0.9825   -0.3573    3.4990 O   0  0  0  0  0  0  0  0  0  0  0  0
   -2.3617   -0.0250    5.3754 C   0  0  0  0  0  0  0  0  0  0  0  0
   -3.1214   -0.8213    5.4288 H   0  0  0  0  0  0  0  0  0  0  0  0
   -1.5305   -0.3726    6.0097 H   0  0  0  0  0  0  0  0  0  0  0  0
   -2.7997    0.8299    5.9150 H   0  0  0  0  0  0  0  0  0  0  0  0
   -2.6795    1.2298    3.3336 N   0  0  0  0  0  0  0  0  0  0  0  0
   -2.4327    1.6559    1.9812 C   0  0  2  0  0  0  0  0  0  0  0  0
   -1.0977    1.0705    1.5400 C   0  0  0  0  0  0  0  0  0  0  0  0
   -0.2256    0.7177    2.3313 O   0  0  0  0  0  0  0  0  0  0  0  0
   -2.4239    3.1726    1.8718 C   0  0  0  0  0  0  0  0  0  0  0  0
   -3.4446    1.6657    3.8454 H   0  0  0  0  0  0  0  0  0  0  0  0
   -3.2368    1.2374    1.3661 H   0  0  0  0  0  0  0  0  0  0  0  0
   -1.6248    3.6099    2.4815 H   0  0  0  0  0  0  0  0  0  0  0  0
   -2.2644    3.4949    0.8375 H   0  0  0  0  0  0  0  0  0  0  0  0
   -3.3741    3.5939    2.2175 H   0  0  0  0  0  0  0  0  0  0  0  0
   -0.9750    1.0274    0.1566 N   0  0  0  0  0  0  0  0  0  0  0  0
    0.2023    0.5266   -0.5070 C   0  0  2  0  0  0  0  0  0  0  0  0
    1.4103    1.1238    0.2059 C   0  0  0  0  0  0  0  0  0  0  0  0
    2.5679    0.9177   -0.1523 O   0  0  0  0  0  0  0  0  0  0  0  0
    0.2275    0.8922   -1.9956 C   0  0  0  0  0  0  0  0  0  0  0  0
   -0.8578    0.2014   -2.7847 C   0  0  0  0  0  0  0  0  0  0  0  0
   -0.6835   -1.1175   -3.2040 C   0  0  0  0  0  0  0  0  0  0  0  0
   -2.0350    0.8822   -3.0952 C   0  0  0  0  0  0  0  0  0  0  0  0
   -1.6864   -1.7556   -3.9338 C   0  0  0  0  0  0  0  0  0  0  0  0
   -3.0379    0.2441   -3.8251 C   0  0  0  0  0  0  0  0  0  0  0  0
   -2.8636   -1.0748   -4.2443 C   0  0  0  0  0  0  0  0  0  0  0  0
   -3.8415   -1.6973   -4.9576 O   0  0  0  0  0  0  0  0  0  0  0  0
   -1.7582    1.3241   -0.4207 H   0  0  0  0  0  0  0  0  0  0  0  0
    0.2026   -0.5605   -0.3645 H   0  0  0  0  0  0  0  0  0  0  0  0
    1.2082    0.6540   -2.4293 H   0  0  0  0  0  0  0  0  0  0  0  0
    0.1106    1.9762   -2.1263 H   0  0  0  0  0  0  0  0  0  0  0  0
    0.2303   -1.6555   -2.9665 H   0  0  0  0  0  0  0  0  0  0  0  0
   -2.1795    1.9101   -2.7725 H   0  0  0  0  0  0  0  0  0  0  0  0
   -1.5446   -2.7832   -4.2579 H   0  0  0  0  0  0  0  0  0  0  0  0
   -3.9523    0.7798   -4.0640 H   0  0  0  0  0  0  0  0  0  0  0  0
   -4.5928   -1.0978   -5.0925 H   0  0  0  0  0  0  0  0  0  0  0  0
    1.0372    1.9516    1.2557 N   0  0  0  0  0  0  0  0  0  0  0  0
    1.9866    2.6618    2.0822 C   0  0  2  0  0  0  0  0  0  0  0  0
    3.0368    1.6652    2.5547 C   0  0  0  0  0  0  0  0  0  0  0  0
    2.8372    0.4533    2.6042 O   0  0  0  0  0  0  0  0  0  0  0  0
    1.3006    3.3297    3.2637 C   0  0  0  0  0  0  0  0  0  0  0  0
    0.0472    2.0639    1.4530 H   0  0  0  0  0  0  0  0  0  0  0  0
    2.4592    3.4163    1.4439 H   0  0  0  0  0  0  0  0  0  0  0  0
    0.8212    2.5895    3.9146 H   0  0  0  0  0  0  0  0  0  0  0  0
    2.0168    3.8910    3.8729 H   0  0  0  0  0  0  0  0  0  0  0  0
    0.5251    4.0241    2.9226 H   0  0  0  0  0  0  0  0  0  0  0  0
    4.2083    2.2922    2.9553 N   0  0  0  0  0  0  0  0  0  0  0  0
    5.3504    1.5638    3.4563 C   0  0  0  0  0  0  0  0  0  0  0  0
    4.2928    3.3001    2.8619 H   0  0  0  0  0  0  0  0  0  0  0  0
    5.2916    1.4977    4.5528 H   0  0  0  0  0  0  0  0  0  0  0  0
    5.3558    0.5507    3.0278 H   0  0  0  0  0  0  0  0  0  0  0  0
    6.2740    2.0881    3.1698 H   0  0  0  0  0  0  0  0  0  0  0  0
 23 25  2  0  0  0  0
 22 23  1  0  0  0  0
 24 26  1  0  0  0  0
 22 24  2  0  0  0  0
 25 27  1  0  0  0  0
 26 27  2  0  0  0  0
 21 22  1  0  0  0  0
 27 28  1  0  0  0  0
  1  3  1  0  0  0  0
  1  7  1  0  0  0  0
  1  2  2  0  0  0  0
 39 40  1  0  0  0  0
 40 48  1  0  0  0  0
 40 41  2  0  0  0  0
  8  9  1  0  0  0  0
  9 17  1  0  0  0  0
  9 10  2  0  0  0  0
 18 19  1  0  0  0  0
 19 38  1  0  0  0  0
 19 20  2  0  0  0  0
 39 42  1  0  0  0  0
  8 11  1  0  0  0  0
 48 49  1  0  0  0  0
 18 21  1  0  0  0  0
 38 39  1  0  0  0  0
  7  8  1  0  0  0  0
 17 18  1  0  0  0  0
 23 33  1  0  0  0  0
 24 34  1  0  0  0  0
 25 35  1  0  0  0  0
 26 36  1  0  0  0  0
  3  4  1  0  0  0  0
  3  5  1  0  0  0  0
  3  6  1  0  0  0  0
 42 45  1  0  0  0  0
 42 46  1  0  0  0  0
 42 47  1  0  0  0  0
 11 14  1  0  0  0  0
 11 15  1  0  0  0  0
 11 16  1  0  0  0  0
 49 51  1  0  0  0  0
 49 52  1  0  0  0  0
 49 53  1  0  0  0  0
 21 31  1  0  0  0  0
 21 32  1  0  0  0  0
 39 44  1  0  0  0  0
  8 13  1  0  0  0  0
 18 30  1  0  0  0  0
 48 50  1  0  0  0  0
  7 12  1  0  0  0  0
 38 43  1  0  0  0  0
 17 29  1  0  0  0  0
 28 37  1  0  0  0  0
M  END
$$$$

  -OEChem-05262214473D

 53 53  0     1  0  0  0  0  0999 V2000
   -1.9298    0.2574    3.9747 C   0  0  0  0  0  0  0  0  0  0  0  0
   -0.9825   -0.3573    3.4990 O   0  0  0  0  0  0  0  0  0  0  0  0
   -2.3617   -0.0250    5.3754 C   0  0  0  0  0  0  0  0  0  0  0  0
   -3.1214   -0.8213    5.4288 H   0  0  0  0  0  0  0  0  0  0  0  0
   -1.5305   -0.3726    6.0097 H   0  0  0  0  0  0  0  0  0  0  0  0
   -2.7997    0.8299    5.9150 H   0  0  0  0  0  0  0  0  0  0  0  0
   -2.6795    1.2298    3.3336 N   0  0  0  0  0  0  0  0  0  0  0  0
   -2.4327    1.6559    1.9812 C   0  0  2  0  0  0  0  0  0  0  0  0
   -1.0977    1.0705    1.5400 C   0  0  0  0  0  0  0  0  0  0  0  0
   -0.2256    0.7177    2.3313 O   0  0  0  0  0  0  0  0  0  0  0  0
   -2.4239    3.1726    1.8718 C   0  0  0  0  0  0  0  0  0  0  0  0
   -3.4446    1.6657    3.8454 H   0  0  0  0  0  0  0  0  0  0  0  0
   -3.2368    1.2374    1.3661 H   0  0  0  0  0  0  0  0  0  0  0  0
   -1.6248    3.6099    2.4815 H   0  0  0  0  0  0  0  0  0  0  0  0
   -2.2644    3.4949    0.8375 H   0  0  0  0  0  0  0  0  0  0  0  0
   -3.3741    3.5939    2.2175 H   0  0  0  0  0  0  0  0  0  0  0  0
   -0.9750    1.0274    0.1566 N   0  0  0  0  0  0  0  0  0  0  0  0
    0.2023    0.5266   -0.5070 C   0  0  2  0  0  0  0  0  0  0  0  0
    1.4103    1.1238    0.2059 C   0  0  0  0  0  0  0  0  0  0  0  0
    2.5352    1.1472   -0.2890 O   0  0  0  0  0  0  0  0  0  0  0  0
    0.2275    0.8922   -1.9956 C   0  0  0  0  0  0  0  0  0  0  0  0
   -0.8578    0.2014   -2.7847 C   0  0  0  0  0  0  0  0  0  0  0  0
   -0.6835   -1.1175   -3.2040 C   0  0  0  0  0  0  0  0  0  0  0  0
   -2.0350    0.8822   -3.0952 C   0  0  0  0  0  0  0  0  0  0  0  0
   -1.6864   -1.7556   -3.9338 C   0  0  0  0  0  0  0  0  0  0  0  0
   -3.0379    0.2441   -3.8251 C   0  0  0  0  0  0  0  0  0  0  0  0
   -2.8636   -1.0748   -4.2443 C   0  0  0  0  0  0  0  0  0  0  0  0
   -3.8415   -1.6973   -4.9576 O   0  0  0  0  0  0  0  0  0  0  0  0
   -1.7582    1.3241   -0.4207 H   0  0  0  0  0  0  0  0  0  0  0  0
    0.2026   -0.5605   -0.3645 H   0  0  0  0  0  0  0  0  0  0  0  0
    1.2082    0.6540   -2.4293 H   0  0  0  0  0  0  0  0  0  0  0  0
    0.1106    1.9762   -2.1263 H   0  0  0  0  0  0  0  0  0  0  0  0
    0.2303   -1.6555   -2.9665 H   0  0  0  0  0  0  0  0  0  0  0  0
   -2.1795    1.9101   -2.7725 H   0  0  0  0  0  0  0  0  0  0  0  0
   -1.5446   -2.7832   -4.2579 H   0  0  0  0  0  0  0  0  0  0  0  0
   -3.9523    0.7798   -4.0640 H   0  0  0  0  0  0  0  0  0  0  0  0
   -4.5928   -1.0978   -5.0925 H   0  0  0  0  0  0  0  0  0  0  0  0
    1.0702    1.6699    1.4358 N   0  0  0  0  0  0  0  0  0  0  0  0
    2.0233    2.3202    2.3061 C   0  0  2  0  0  0  0  0  0  0  0  0
    3.2242    1.3966    2.4622 C   0  0  0  0  0  0  0  0  0  0  0  0
    3.1666    0.1835    2.2720 O   0  0  0  0  0  0  0  0  0  0  0  0
    1.4069    2.6437    3.6582 C   0  0  0  0  0  0  0  0  0  0  0  0
    0.1028    1.6094    1.7394 H   0  0  0  0  0  0  0  0  0  0  0  0
    2.3339    3.2421    1.8023 H   0  0  0  0  0  0  0  0  0  0  0  0
    1.0896    1.7322    4.1779 H   0  0  0  0  0  0  0  0  0  0  0  0
    2.1215    3.1619    4.3062 H   0  0  0  0  0  0  0  0  0  0  0  0
    0.5257    3.2837    3.5418 H   0  0  0  0  0  0  0  0  0  0  0  0
    4.3573    2.0801    2.8807 N   0  0  0  0  0  0  0  0  0  0  0  0
    5.6225    1.4233    3.1131 C   0  0  0  0  0  0  0  0  0  0  0  0
    4.3187    3.0886    2.9953 H   0  0  0  0  0  0  0  0  0  0  0  0
    5.6967    1.1333    4.1715 H   0  0  0  0  0  0  0  0  0  0  0  0
    5.6908    0.5254    2.4813 H   0  0  0  0  0  0  0  0  0  0  0  0
    6.4438    2.1110    2.8629 H   0  0  0  0  0  0  0  0  0  0  0  0
 23 25  2  0  0  0  0
 22 23  1  0  0  0  0
 24 26  1  0  0  0  0
 22 24  2  0  0  0  0
 25 27  1  0  0  0  0
 26 27  2  0  0  0  0
 21 22  1  0  0  0  0
 27 28  1  0  0  0  0
  1  3  1  0  0  0  0
  1  7  1  0  0  0  0
  1  2  2  0  0  0  0
 39 40  1  0  0  0  0
 40 48  1  0  0  0  0
 40 41  2  0  0  0  0
  8  9  1  0  0  0  0
  9 17  1  0  0  0  0
  9 10  2  0  0  0  0
 18 19  1  0  0  0  0
 19 38  1  0  0  0  0
 19 20  2  0  0  0  0
 39 42  1  0  0  0  0
  8 11  1  0  0  0  0
 48 49  1  0  0  0  0
 18 21  1  0  0  0  0
 38 39  1  0  0  0  0
  7  8  1  0  0  0  0
 17 18  1  0  0  0  0
 23 33  1  0  0  0  0
 24 34  1  0  0  0  0
 25 35  1  0  0  0  0
 26 36  1  0  0  0  0
  3  4  1  0  0  0  0
  3  5  1  0  0  0  0
  3  6  1  0  0  0  0
 42 45  1  0  0  0  0
 42 46  1  0  0  0  0
 42 47  1  0  0  0  0
 11 14  1  0  0  0  0
 11 15  1  0  0  0  0
 11 16  1  0  0  0  0
 49 51  1  0  0  0  0
 49 52  1  0  0  0  0
 49 53  1  0  0  0  0
 21 31  1  0  0  0  0
 21 32  1  0  0  0  0
 39 44  1  0  0  0  0
  8 13  1  0  0  0  0
 18 30  1  0  0  0  0
 48 50  1  0  0  0  0
  7 12  1  0  0  0  0
 38 43  1  0  0  0  0
 17 29  1  0  0  0  0
 28 37  1  0  0  0  0
M  END
$$$$

  -OEChem-05262214473D

 53 53  0     1  0  0  0  0  0999 V2000
   -1.9298    0.2574    3.9747 C   0  0  0  0  0  0  0  0  0  0  0  0
   -0.9825   -0.3573    3.4990 O   0  0  0  0  0  0  0  0  0  0  0  0
   -2.3617   -0.0250    5.3754 C   0  0  0  0  0  0  0  0  0  0  0  0
   -3.1214   -0.8213    5.4288 H   0  0  0  0  0  0  0  0  0  0  0  0
   -1.5305   -0.3726    6.0097 H   0  0  0  0  0  0  0  0  0  0  0  0
   -2.7997    0.8299    5.9150 H   0  0  0  0  0  0  0  0  0  0  0  0
   -2.6795    1.2298    3.3336 N   0  0  0  0  0  0  0  0  0  0  0  0
   -2.4327    1.6559    1.9812 C   0  0  2  0  0  0  0  0  0  0  0  0
   -1.0977    1.0705    1.5400 C   0  0  0  0  0  0  0  0  0  0  0  0
   -0.2256    0.7177    2.3313 O   0  0  0  0  0  0  0  0  0  0  0  0
   -2.4239    3.1726    1.8718 C   0  0  0  0  0  0  0  0  0  0  0  0
   -3.4446    1.6657    3.8454 H   0  0  0  0  0  0  0  0  0  0  0  0
   -3.2368    1.2374    1.3661 H   0  0  0  0  0  0  0  0  0  0  0  0
   -1.6248    3.6099    2.4815 H   0  0  0  0  0  0  0  0  0  0  0  0
   -2.2644    3.4949    0.8375 H   0  0  0  0  0  0  0  0  0  0  0  0
   -3.3741    3.5939    2.2175 H   0  0  0  0  0  0  0  0  0  0  0  0
   -0.9750    1.0274    0.1566 N   0  0  0  0  0  0  0  0  0  0  0  0
    0.2023    0.5266   -0.5070 C   0  0  2  0  0  0  0  0  0  0  0  0
    1.4103    1.1238    0.2059 C   0  0  0  0  0  0  0  0  0  0  0  0
    2.4619    1.3930   -0.3707 O   0  0  0  0  0  0  0  0  0  0  0  0
    0.2275    0.8922   -1.9956 C   0  0  0  0  0  0  0  0  0  0  0  0
   -0.8578    0.2014   -2.7847 C   0  0  0  0  0  0  0  0  0  0  0  0
   -0.6835   -1.1175   -3.2040 C   0  0  0  0  0  0  0  0  0  0  0  0
   -2.0350    0.8822   -3.0952 C   0  0  0  0  0  0  0  0  0  0  0  0
   -1.6864   -1.7556   -3.9338 C   0  0  0  0  0  0  0  0  0  0  0  0
   -3.0379    0.2441   -3.8251 C   0  0  0  0  0  0  0  0  0  0  0  0
   -2.8636   -1.0748   -4.2443 C   0  0  0  0  0  0  0  0  0  0  0  0
   -3.8415   -1.6973   -4.9576 O   0  0  0  0  0  0  0  0  0  0  0  0
   -1.7582    1.3241   -0.4207 H   0  0  0  0  0  0  0  0  0  0  0  0
    0.2026   -0.5605   -0.3645 H   0  0  0  0  0  0  0  0  0  0  0  0
    1.2082    0.6540   -2.4293 H   0  0  0  0  0  0  0  0  0  0  0  0
    0.1106    1.9762   -2.1263 H   0  0  0  0  0  0  0  0  0  0  0  0
    0.2303   -1.6555   -2.9665 H   0  0  0  0  0  0  0  0  0  0  0  0
   -2.1795    1.9101   -2.7725 H   0  0  0  0  0  0  0  0  0  0  0  0
   -1.5446   -2.7832   -4.2579 H   0  0  0  0  0  0  0  0  0  0  0  0
   -3.9523    0.7798   -4.0640 H   0  0  0  0  0  0  0  0  0  0  0  0
   -4.5928   -1.0978   -5.0925 H   0  0  0  0  0  0  0  0  0  0  0  0
    1.1544    1.3648    1.5486 N   0  0  0  0  0  0  0  0  0  0  0  0
    2.1228    1.9488    2.4486 C   0  0  2  0  0  0  0  0  0  0  0  0
    3.4283    1.1788    2.2988 C   0  0  0  0  0  0  0  0  0  0  0  0
    3.4837    0.0310    1.8624 O   0  0  0  0  0  0  0  0  0  0  0  0
    1.6327    1.9129    3.8878 C   0  0  0  0  0  0  0  0  0  0  0  0
    0.2406    1.1184    1.9173 H   0  0  0  0  0  0  0  0  0  0  0  0
    2.2702    2.9851    2.1255 H   0  0  0  0  0  0  0  0  0  0  0  0
    1.4793    0.8827    4.2292 H   0  0  0  0  0  0  0  0  0  0  0  0
    2.3548    2.3813    4.5647 H   0  0  0  0  0  0  0  0  0  0  0  0
    0.6787    2.4417    3.9879 H   0  0  0  0  0  0  0  0  0  0  0  0
    4.5192    1.9085    2.7500 N   0  0  0  0  0  0  0  0  0  0  0  0
    5.8674    1.3910    2.7251 C   0  0  0  0  0  0  0  0  0  0  0  0
    4.3828    2.8600    3.0781 H   0  0  0  0  0  0  0  0  0  0  0  0
    6.0934    0.9087    3.6875 H   0  0  0  0  0  0  0  0  0  0  0  0
    5.9621    0.6536    1.9144 H   0  0  0  0  0  0  0  0  0  0  0  0
    6.5738    2.2167    2.5541 H   0  0  0  0  0  0  0  0  0  0  0  0
 23 25  2  0  0  0  0
 22 23  1  0  0  0  0
 24 26  1  0  0  0  0
 22 24  2  0  0  0  0
 25 27  1  0  0  0  0
 26 27  2  0  0  0  0
 21 22  1  0  0  0  0
 27 28  1  0  0  0  0
  1  3  1  0  0  0  0
  1  7  1  0  0  0  0
  1  2  2  0  0  0  0
 39 40  1  0  0  0  0
 40 48  1  0  0  0  0
 40 41  2  0  0  0  0
  8  9  1  0  0  0  0
  9 17  1  0  0  0  0
  9 10  2  0  0  0  0
 18 19  1  0  0  0  0
 19 38  1  0  0  0  0
 19 20  2  0  0  0  0
 39 42  1  0  0  0  0
  8 11  1  0  0  0  0
 48 49  1  0  0  0  0
 18 21  1  0  0  0  0
 38 39  1  0  0  0  0
  7  8  1  0  0  0  0
 17 18  1  0  0  0  0
 23 33  1  0  0  0  0
 24 34  1  0  0  0  0
 25 35  1  0  0  0  0
 26 36  1  0  0  0  0
  3  4  1  0  0  0  0
  3  5  1  0  0  0  0
  3  6  1  0  0  0  0
 42 45  1  0  0  0  0
 42 46  1  0  0  0  0
 42 47  1  0  0  0  0
 11 14  1  0  0  0  0
 11 15  1  0  0  0  0
 11 16  1  0  0  0  0
 49 51  1  0  0  0  0
 49 52  1  0  0  0  0
 49 53  1  0  0  0  0
 21 31  1  0  0  0  0
 21 32  1  0  0  0  0
 39 44  1  0  0  0  0
  8 13  1  0  0  0  0
 18 30  1  0  0  0  0
 48 50  1  0  0  0  0
  7 12  1  0  0  0  0
 38 43  1  0  0  0  0
 17 29  1  0  0  0  0
 28 37  1  0  0  0  0
M  END
$$$$

  -OEChem-05262214473D

 53 53  0     1  0  0  0  0  0999 V2000
   -1.9298    0.2574    3.9747 C   0  0  0  0  0  0  0  0  0  0  0  0
   -0.9825   -0.3573    3.4990 O   0  0  0  0  0  0  0  0  0  0  0  0
   -2.3617   -0.0250    5.3754 C   0  0  0  0  0  0  0  0  0  0  0  0
   -3.1214   -0.8213    5.4288 H   0  0  0  0  0  0  0  0  0  0  0  0
   -1.5305   -0.3726    6.0097 H   0  0  0  0  0  0  0  0  0  0  0  0
   -2.7997    0.8299    5.9150 H   0  0  0  0  0  0  0  0  0  0  0  0
   -2.6795    1.2298    3.3336 N   0  0  0  0  0  0  0  0  0  0  0  0
   -2.4327    1.6559    1.9812 C   0  0  2  0  0  0  0  0  0  0  0  0
   -1.0977    1.0705    1.5400 C   0  0  0  0  0  0  0  0  0  0  0  0
   -0.2256    0.7177    2.3313 O   0  0  0  0  0  0  0  0  0  0  0  0
   -2.4239    3.1726    1.8718 C   0  0  0  0  0  0  0  0  0  0  0  0
   -3.4446    1.6657    3.8454 H   0  0  0  0  0  0  0  0  0  0  0  0
   -3.2368    1.2374    1.3661 H   0  0  0  0  0  0  0  0  0  0  0  0
   -1.6248    3.6099    2.4815 H   0  0  0  0  0  0  0  0  0  0  0  0
   -2.2644    3.4949    0.8375 H   0  0  0  0  0  0  0  0  0  0  0  0
   -3.3741    3.5939    2.2175 H   0  0  0  0  0  0  0  0  0  0  0  0
   -0.9750    1.0274    0.1566 N   0  0  0  0  0  0  0  0  0  0  0  0
    0.2023    0.5266   -0.5070 C   0  0  2  0  0  0  0  0  0  0  0  0
    1.4103    1.1238    0.2059 C   0  0  0  0  0  0  0  0  0  0  0  0
    2.3531    1.6383   -0.3918 O   0  0  0  0  0  0  0  0  0  0  0  0
    0.2275    0.8922   -1.9956 C   0  0  0  0  0  0  0  0  0  0  0  0
   -0.8578    0.2014   -2.7847 C   0  0  0  0  0  0  0  0  0  0  0  0
   -0.6835   -1.1175   -3.2040 C   0  0  0  0  0  0  0  0  0  0  0  0
   -2.0350    0.8822   -3.0952 C   0  0  0  0  0  0  0  0  0  0  0  0
   -1.6864   -1.7556   -3.9338 C   0  0  0  0  0  0  0  0  0  0  0  0
   -3.0379    0.2441   -3.8251 C   0  0  0  0  0  0  0  0  0  0  0  0
   -2.8636   -1.0748   -4.2443 C   0  0  0  0  0  0  0  0  0  0  0  0
   -3.8415   -1.6973   -4.9576 O   0  0  0  0  0  0  0  0  0  0  0  0
   -1.7582    1.3241   -0.4207 H   0  0  0  0  0  0  0  0  0  0  0  0
    0.2026   -0.5605   -0.3645 H   0  0  0  0  0  0  0  0  0  0  0  0
    1.2082    0.6540   -2.4293 H   0  0  0  0  0  0  0  0  0  0  0  0
    0.1106    1.9762   -2.1263 H   0  0  0  0  0  0  0  0  0  0  0  0
    0.2303   -1.6555   -2.9665 H   0  0  0  0  0  0  0  0  0  0  0  0
   -2.1795    1.9101   -2.7725 H   0  0  0  0  0  0  0  0  0  0  0  0
   -1.5446   -2.7832   -4.2579 H   0  0  0  0  0  0  0  0  0  0  0  0
   -3.9523    0.7798   -4.0640 H   0  0  0  0  0  0  0  0  0  0  0  0
   -4.5928   -1.0978   -5.0925 H   0  0  0  0  0  0  0  0  0  0  0  0
    1.2841    1.0572    1.5865 N   0  0  0  0  0  0  0  0  0  0  0  0
    2.2783    1.5728    2.5000 C   0  0  2  0  0  0  0  0  0  0  0  0
    3.6352    1.0267    2.0756 C   0  0  0  0  0  0  0  0  0  0  0  0
    3.7670    0.0060    1.4033 O   0  0  0  0  0  0  0  0  0  0  0  0
    1.9625    1.1873    3.9368 C   0  0  0  0  0  0  0  0  0  0  0  0
    0.4511    0.6243    1.9744 H   0  0  0  0  0  0  0  0  0  0  0  0
    2.2725    2.6628    2.3914 H   0  0  0  0  0  0  0  0  0  0  0  0
    1.9638    0.0987    4.0650 H   0  0  0  0  0  0  0  0  0  0  0  0
    2.7009    1.6027    4.6305 H   0  0  0  0  0  0  0  0  0  0  0  0
    0.9736    1.5554    4.2307 H   0  0  0  0  0  0  0  0  0  0  0  0
    4.6832    1.7891    2.5722 N   0  0  0  0  0  0  0  0  0  0  0  0
    6.0686    1.4689    2.3189 C   0  0  0  0  0  0  0  0  0  0  0  0
    4.4808    2.6300    3.1047 H   0  0  0  0  0  0  0  0  0  0  0  0
    6.4547    0.8389    3.1337 H   0  0  0  0  0  0  0  0  0  0  0  0
    6.1511    0.9265    1.3655 H   0  0  0  0  0  0  0  0  0  0  0  0
    6.6553    2.3978    2.2642 H   0  0  0  0  0  0  0  0  0  0  0  0
 23 25  2  0  0  0  0
 22 23  1  0  0  0  0
 24 26  1  0  0  0  0
 22 24  2  0  0  0  0
 25 27  1  0  0  0  0
 26 27  2  0  0  0  0
 21 22  1  0  0  0  0
 27 28  1  0  0  0  0
  1  3  1  0  0  0  0
  1  7  1  0  0  0  0
  1  2  2  0  0  0  0
 39 40  1  0  0  0  0
 40 48  1  0  0  0  0
 40 41  2  0  0  0  0
  8  9  1  0  0  0  0
  9 17  1  0  0  0  0
  9 10  2  0  0  0  0
 18 19  1  0  0  0  0
 19 38  1  0  0  0  0
 19 20  2  0  0  0  0
 39 42  1  0  0  0  0
  8 11  1  0  0  0  0
 48 49  1  0  0  0  0
 18 21  1  0  0  0  0
 38 39  1  0  0  0  0
  7  8  1  0  0  0  0
 17 18  1  0  0  0  0
 23 33  1  0  0  0  0
 24 34  1  0  0  0  0
 25 35  1  0  0  0  0
 26 36  1  0  0  0  0
  3  4  1  0  0  0  0
  3  5  1  0  0  0  0
  3  6  1  0  0  0  0
 42 45  1  0  0  0  0
 42 46  1  0  0  0  0
 42 47  1  0  0  0  0
 11 14  1  0  0  0  0
 11 15  1  0  0  0  0
 11 16  1  0  0  0  0
 49 51  1  0  0  0  0
 49 52  1  0  0  0  0
 49 53  1  0  0  0  0
 21 31  1  0  0  0  0
 21 32  1  0  0  0  0
 39 44  1  0  0  0  0
  8 13  1  0  0  0  0
 18 30  1  0  0  0  0
 48 50  1  0  0  0  0
  7 12  1  0  0  0  0
 38 43  1  0  0  0  0
 17 29  1  0  0  0  0
 28 37  1  0  0  0  0
M  END
$$$$

  -OEChem-05262214473D

 53 53  0     1  0  0  0  0  0999 V2000
   -1.9298    0.2574    3.9747 C   0  0  0  0  0  0  0  0  0  0  0  0
   -0.9825   -0.3573    3.4990 O   0  0  0  0  0  0  0  0  0  0  0  0
   -2.3617   -0.0250    5.3754 C   0  0  0  0  0  0  0  0  0  0  0  0
   -3.1214   -0.8213    5.4288 H   0  0  0  0  0  0  0  0  0  0  0  0
   -1.5305   -0.3726    6.0097 H   0  0  0  0  0  0  0  0  0  0  0  0
   -2.7997    0.8299    5.9150 H   0  0  0  0  0  0  0  0  0  0  0  0
   -2.6795    1.2298    3.3336 N   0  0  0  0  0  0  0  0  0  0  0  0
   -2.4327    1.6559    1.9812 C   0  0  2  0  0  0  0  0  0  0  0  0
   -1.0977    1.0705    1.5400 C   0  0  0  0  0  0  0  0  0  0  0  0
   -0.2256    0.7177    2.3313 O   0  0  0  0  0  0  0  0  0  0  0  0
   -2.4239    3.1726    1.8718 C   0  0  0  0  0  0  0  0  0  0  0  0
   -3.4446    1.6657    3.8454 H   0  0  0  0  0  0  0  0  0  0  0  0
   -3.2368    1.2374    1.3661 H   0  0  0  0  0  0  0  0  0  0  0  0
   -1.6248    3.6099    2.4815 H   0  0  0  0  0  0  0  0  0  0  0  0
   -2.2644    3.4949    0.8375 H   0  0  0  0  0  0  0  0  0  0  0  0
   -3.3741    3.5939    2.2175 H   0  0  0  0  0  0  0  0  0  0  0  0
   -0.9750    1.0274    0.1566 N   0  0  0  0  0  0  0  0  0  0  0  0
    0.2023    0.5266   -0.5070 C   0  0  2  0  0  0  0  0  0  0  0  0
    1.4103    1.1238    0.2059 C   0  0  0  0  0  0  0  0  0  0  0  0
    2.2162    1.8664   -0.3508 O   0  0  0  0  0  0  0  0  0  0  0  0
    0.2275    0.8922   -1.9956 C   0  0  0  0  0  0  0  0  0  0  0  0
   -0.8578    0.2014   -2.7847 C   0  0  0  0  0  0  0  0  0  0  0  0
   -0.6835   -1.1175   -3.2040 C   0  0  0  0  0  0  0  0  0  0  0  0
   -2.0350    0.8822   -3.0952 C   0  0  0  0  0  0  0  0  0  0  0  0
   -1.6864   -1.7556   -3.9338 C   0  0  0  0  0  0  0  0  0  0  0  0
   -3.0379    0.2441   -3.8251 C   0  0  0  0  0  0  0  0  0  0  0  0
   -2.8636   -1.0748   -4.2443 C   0  0  0  0  0  0  0  0  0  0  0  0
   -3.8415   -1.6973   -4.9576 O   0  0  0  0  0  0  0  0  0  0  0  0
   -1.7582    1.3241   -0.4207 H   0  0  0  0  0  0  0  0  0  0  0  0
    0.2026   -0.5605   -0.3645 H   0  0  0  0  0  0  0  0  0  0  0  0
    1.2082    0.6540   -2.4293 H   0  0  0  0  0  0  0  0  0  0  0  0
    0.1106    1.9762   -2.1263 H   0  0  0  0  0  0  0  0  0  0  0  0
    0.2303   -1.6555   -2.9665 H   0  0  0  0  0  0  0  0  0  0  0  0
   -2.1795    1.9101   -2.7725 H   0  0  0  0  0  0  0  0  0  0  0  0
   -1.5446   -2.7832   -4.2579 H   0  0  0  0  0  0  0  0  0  0  0  0
   -3.9523    0.7798   -4.0640 H   0  0  0  0  0  0  0  0  0  0  0  0
   -4.5928   -1.0978   -5.0925 H   0  0  0  0  0  0  0  0  0  0  0  0
    1.4505    0.7680    1.5469 N   0  0  0  0  0  0  0  0  0  0  0  0
    2.4793    1.2179    2.4568 C   0  0  2  0  0  0  0  0  0  0  0  0
    3.8309    0.9505    1.8078 C   0  0  0  0  0  0  0  0  0  0  0  0
    3.9971    0.1103    0.9261 O   0  0  0  0  0  0  0  0  0  0  0  0
    2.3738    0.5163    3.8019 C   0  0  0  0  0  0  0  0  0  0  0  0
    0.7201    0.1608    1.9069 H   0  0  0  0  0  0  0  0  0  0  0  0
    2.3408    2.2974    2.5820 H   0  0  0  0  0  0  0  0  0  0  0  0
    2.5100   -0.5663    3.6965 H   0  0  0  0  0  0  0  0  0  0  0  0
    3.1361    0.8789    4.4994 H   0  0  0  0  0  0  0  0  0  0  0  0
    1.3903    0.6852    4.2535 H   0  0  0  0  0  0  0  0  0  0  0  0
    4.8380    1.7301    2.3593 N   0  0  0  0  0  0  0  0  0  0  0  0
    6.2123    1.6519    1.9222 C   0  0  0  0  0  0  0  0  0  0  0  0
    4.6060    2.4143    3.0733 H   0  0  0  0  0  0  0  0  0  0  0  0
    6.7560    0.9288    2.5479 H   0  0  0  0  0  0  0  0  0  0  0  0
    6.2450    1.3255    0.8722 H   0  0  0  0  0  0  0  0  0  0  0  0
    6.6828    2.6420    2.0131 H   0  0  0  0  0  0  0  0  0  0  0  0
 23 25  2  0  0  0  0
 22 23  1  0  0  0  0
 24 26  1  0  0  0  0
 22 24  2  0  0  0  0
 25 27  1  0  0  0  0
 26 27  2  0  0  0  0
 21 22  1  0  0  0  0
 27 28  1  0  0  0  0
  1  3  1  0  0  0  0
  1  7  1  0  0  0  0
  1  2  2  0  0  0  0
 39 40  1  0  0  0  0
 40 48  1  0  0  0  0
 40 41  2  0  0  0  0
  8  9  1  0  0  0  0
  9 17  1  0  0  0  0
  9 10  2  0  0  0  0
 18 19  1  0  0  0  0
 19 38  1  0  0  0  0
 19 20  2  0  0  0  0
 39 42  1  0  0  0  0
  8 11  1  0  0  0  0
 48 49  1  0  0  0  0
 18 21  1  0  0  0  0
 38 39  1  0  0  0  0
  7  8  1  0  0  0  0
 17 18  1  0  0  0  0
 23 33  1  0  0  0  0
 24 34  1  0  0  0  0
 25 35  1  0  0  0  0
 26 36  1  0  0  0  0
  3  4  1  0  0  0  0
  3  5  1  0  0  0  0
  3  6  1  0  0  0  0
 42 45  1  0  0  0  0
 42 46  1  0  0  0  0
 42 47  1  0  0  0  0
 11 14  1  0  0  0  0
 11 15  1  0  0  0  0
 11 16  1  0  0  0  0
 49 51  1  0  0  0  0
 49 52  1  0  0  0  0
 49 53  1  0  0  0  0
 21 31  1  0  0  0  0
 21 32  1  0  0  0  0
 39 44  1  0  0  0  0
  8 13  1  0  0  0  0
 18 30  1  0  0  0  0
 48 50  1  0  0  0  0
  7 12  1  0  0  0  0
 38 43  1  0  0  0  0
 17 29  1  0  0  0  0
 28 37  1  0  0  0  0
M  END
$$$$

  -OEChem-05262214473D

 53 53  0     1  0  0  0  0  0999 V2000
   -1.9298    0.2574    3.9747 C   0  0  0  0  0  0  0  0  0  0  0  0
   -0.9825   -0.3573    3.4990 O   0  0  0  0  0  0  0  0  0  0  0  0
   -2.3617   -0.0250    5.3754 C   0  0  0  0  0  0  0  0  0  0  0  0
   -3.1214   -0.8213    5.4288 H   0  0  0  0  0  0  0  0  0  0  0  0
   -1.5305   -0.3726    6.0097 H   0  0  0  0  0  0  0  0  0  0  0  0
   -2.7997    0.8299    5.9150 H   0  0  0  0  0  0  0  0  0  0  0  0
   -2.6795    1.2298    3.3336 N   0  0  0  0  0  0  0  0  0  0  0  0
   -2.4327    1.6559    1.9812 C   0  0  2  0  0  0  0  0  0  0  0  0
   -1.0977    1.0705    1.5400 C   0  0  0  0  0  0  0  0  0  0  0  0
   -0.2256    0.7177    2.3313 O   0  0  0  0  0  0  0  0  0  0  0  0
   -2.4239    3.1726    1.8718 C   0  0  0  0  0  0  0  0  0  0  0  0
   -3.4446    1.6657    3.8454 H   0  0  0  0  0  0  0  0  0  0  0  0
   -3.2368    1.2374    1.3661 H   0  0  0  0  0  0  0  0  0  0  0  0
   -1.6248    3.6099    2.4815 H   0  0  0  0  0  0  0  0  0  0  0  0
   -2.2644    3.4949    0.8375 H   0  0  0  0  0  0  0  0  0  0  0  0
   -3.3741    3.5939    2.2175 H   0  0  0  0  0  0  0  0  0  0  0  0
   -0.9750    1.0274    0.1566 N   0  0  0  0  0  0  0  0  0  0  0  0
    0.2023    0.5266   -0.5070 C   0  0  2  0  0  0  0  0  0  0  0  0
    1.4103    1.1238    0.2059 C   0  0  0  0  0  0  0  0  0  0  0  0
    2.0604    2.0617   -0.2506 O   0  0  0  0  0  0  0  0  0  0  0  0
    0.2275    0.8922   -1.9956 C   0  0  0  0  0  0  0  0  0  0  0  0
   -0.8578    0.2014   -2.7847 C   0  0  0  0  0  0  0  0  0  0  0  0
   -0.6835   -1.1175   -3.2040 C   0  0  0  0  0  0  0  0  0  0  0  0
   -2.0350    0.8822   -3.0952 C   0  0  0  0  0  0  0  0  0  0  0  0
   -1.6864   -1.7556   -3.9338 C   0  0  0  0  0  0  0  0  0  0  0  0
   -3.0379    0.2441   -3.8251 C   0  0  0  0  0  0  0  0  0  0  0  0
   -2.8636   -1.0748   -4.2443 C   0  0  0  0  0  0  0  0  0  0  0  0
   -3.8415   -1.6973   -4.9576 O   0  0  0  0  0  0  0  0  0  0  0  0
   -1.7582    1.3241   -0.4207 H   0  0  0  0  0  0  0  0  0  0  0  0
    0.2026   -0.5605   -0.3645 H   0  0  0  0  0  0  0  0  0  0  0  0
    1.2082    0.6540   -2.4293 H   0  0  0  0  0  0  0  0  0  0  0  0
    0.1106    1.9762   -2.1263 H   0  0  0  0  0  0  0  0  0  0  0  0
    0.2303   -1.6555   -2.9665 H   0  0  0  0  0  0  0  0  0  0  0  0
   -2.1795    1.9101   -2.7725 H   0  0  0  0  0  0  0  0  0  0  0  0
   -1.5446   -2.7832   -4.2579 H   0  0  0  0  0  0  0  0  0  0  0  0
   -3.9523    0.7798   -4.0640 H   0  0  0  0  0  0  0  0  0  0  0  0
   -4.5928   -1.0978   -5.0925 H   0  0  0  0  0  0  0  0  0  0  0  0
    1.6422    0.5169    1.4324 N   0  0  0  0  0  0  0  0  0  0  0  0
    2.7119    0.9083    2.3219 C   0  0  2  0  0  0  0  0  0  0  0  0
    4.0020    0.9555    1.5137 C   0  0  0  0  0  0  0  0  0  0  0  0
    4.1584    0.3368    0.4631 O   0  0  0  0  0  0  0  0  0  0  0  0
    2.8387   -0.0544    3.4922 C   0  0  0  0  0  0  0  0  0  0  0  0
    1.0291   -0.2405    1.7194 H   0  0  0  0  0  0  0  0  0  0  0  0
    2.4702    1.9135    2.6841 H   0  0  0  0  0  0  0  0  0  0  0  0
    3.0806   -1.0669    3.1489 H   0  0  0  0  0  0  0  0  0  0  0  0
    3.6307    0.2593    4.1802 H   0  0  0  0  0  0  0  0  0  0  0  0
    1.9005   -0.1097    4.0548 H   0  0  0  0  0  0  0  0  0  0  0  0
    4.9730    1.7356    2.1259 N   0  0  0  0  0  0  0  0  0  0  0  0
    6.2887    1.9274    1.5619 C   0  0  0  0  0  0  0  0  0  0  0  0
    4.7498    2.2274    2.9861 H   0  0  0  0  0  0  0  0  0  0  0  0
    6.9768    1.1723    1.9698 H   0  0  0  0  0  0  0  0  0  0  0  0
    6.2373    1.8235    0.4680 H   0  0  0  0  0  0  0  0  0  0  0  0
    6.6543    2.9328    1.8179 H   0  0  0  0  0  0  0  0  0  0  0  0
 23 25  2  0  0  0  0
 22 23  1  0  0  0  0
 24 26  1  0  0  0  0
 22 24  2  0  0  0  0
 25 27  1  0  0  0  0
 26 27  2  0  0  0  0
 21 22  1  0  0  0  0
 27 28  1  0  0  0  0
  1  3  1  0  0  0  0
  1  7  1  0  0  0  0
  1  2  2  0  0  0  0
 39 40  1  0  0  0  0
 40 48  1  0  0  0  0
 40 41  2  0  0  0  0
  8  9  1  0  0  0  0
  9 17  1  0  0  0  0
  9 10  2  0  0  0  0
 18 19  1  0  0  0  0
 19 38  1  0  0  0  0
 19 20  2  0  0  0  0
 39 42  1  0  0  0  0
  8 11  1  0  0  0  0
 48 49  1  0  0  0  0
 18 21  1  0  0  0  0
 38 39  1  0  0  0  0
  7  8  1  0  0  0  0
 17 18  1  0  0  0  0
 23 33  1  0  0  0  0
 24 34  1  0  0  0  0
 25 35  1  0  0  0  0
 26 36  1  0  0  0  0
  3  4  1  0  0  0  0
  3  5  1  0  0  0  0
  3  6  1  0  0  0  0
 42 45  1  0  0  0  0
 42 46  1  0  0  0  0
 42 47  1  0  0  0  0
 11 14  1  0  0  0  0
 11 15  1  0  0  0  0
 11 16  1  0  0  0  0
 49 51  1  0  0  0  0
 49 52  1  0  0  0  0
 49 53  1  0  0  0  0
 21 31  1  0  0  0  0
 21 32  1  0  0  0  0
 39 44  1  0  0  0  0
  8 13  1  0  0  0  0
 18 30  1  0  0  0  0
 48 50  1  0  0  0  0
  7 12  1  0  0  0  0
 38 43  1  0  0  0  0
 17 29  1  0  0  0  0
 28 37  1  0  0  0  0
M  END
$$$$

  -OEChem-05262214473D

 53 53  0     1  0  0  0  0  0999 V2000
   -1.9298    0.2574    3.9747 C   0  0  0  0  0  0  0  0  0  0  0  0
   -0.9825   -0.3573    3.4990 O   0  0  0  0  0  0  0  0  0  0  0  0
   -2.3617   -0.0250    5.3754 C   0  0  0  0  0  0  0  0  0  0  0  0
   -3.1214   -0.8213    5.4288 H   0  0  0  0  0  0  0  0  0  0  0  0
   -1.5305   -0.3726    6.0097 H   0  0  0  0  0  0  0  0  0  0  0  0
   -2.7997    0.8299    5.9150 H   0  0  0  0  0  0  0  0  0  0  0  0
   -2.6795    1.2298    3.3336 N   0  0  0  0  0  0  0  0  0  0  0  0
   -2.4327    1.6559    1.9812 C   0  0  2  0  0  0  0  0  0  0  0  0
   -1.0977    1.0705    1.5400 C   0  0  0  0  0  0  0  0  0  0  0  0
   -0.2256    0.7177    2.3313 O   0  0  0  0  0  0  0  0  0  0  0  0
   -2.4239    3.1726    1.8718 C   0  0  0  0  0  0  0  0  0  0  0  0
   -3.4446    1.6657    3.8454 H   0  0  0  0  0  0  0  0  0  0  0  0
   -3.2368    1.2374    1.3661 H   0  0  0  0  0  0  0  0  0  0  0  0
   -1.6248    3.6099    2.4815 H   0  0  0  0  0  0  0  0  0  0  0  0
   -2.2644    3.4949    0.8375 H   0  0  0  0  0  0  0  0  0  0  0  0
   -3.3741    3.5939    2.2175 H   0  0  0  0  0  0  0  0  0  0  0  0
   -0.9750    1.0274    0.1566 N   0  0  0  0  0  0  0  0  0  0  0  0
    0.2023    0.5266   -0.5070 C   0  0  2  0  0  0  0  0  0  0  0  0
    1.4103    1.1238    0.2059 C   0  0  0  0  0  0  0  0  0  0  0  0
    1.8965    2.2110   -0.0979 O   0  0  0  0  0  0  0  0  0  0  0  0
    0.2275    0.8922   -1.9956 C   0  0  0  0  0  0  0  0  0  0  0  0
   -0.8578    0.2014   -2.7847 C   0  0  0  0  0  0  0  0  0  0  0  0
   -0.6835   -1.1175   -3.2040 C   0  0  0  0  0  0  0  0  0  0  0  0
   -2.0350    0.8822   -3.0952 C   0  0  0  0  0  0  0  0  0  0  0  0
   -1.6864   -1.7556   -3.9338 C   0  0  0  0  0  0  0  0  0  0  0  0
   -3.0379    0.2441   -3.8251 C   0  0  0  0  0  0  0  0  0  0  0  0
   -2.8636   -1.0748   -4.2443 C   0  0  0  0  0  0  0  0  0  0  0  0
   -3.8415   -1.6973   -4.9576 O   0  0  0  0  0  0  0  0  0  0  0  0
   -1.7582    1.3241   -0.4207 H   0  0  0  0  0  0  0  0  0  0  0  0
    0.2026   -0.5605   -0.3645 H   0  0  0  0  0  0  0  0  0  0  0  0
    1.2082    0.6540   -2.4293 H   0  0  0  0  0  0  0  0  0  0  0  0
    0.1106    1.9762   -2.1263 H   0  0  0  0  0  0  0  0  0  0  0  0
    0.2303   -1.6555   -2.9665 H   0  0  0  0  0  0  0  0  0  0  0  0
   -2.1795    1.9101   -2.7725 H   0  0  0  0  0  0  0  0  0  0  0  0
   -1.5446   -2.7832   -4.2579 H   0  0  0  0  0  0  0  0  0  0  0  0
   -3.9523    0.7798   -4.0640 H   0  0  0  0  0  0  0  0  0  0  0  0
   -4.5928   -1.0978   -5.0925 H   0  0  0  0  0  0  0  0  0  0  0  0
    1.8461    0.3210    1.2509 N   0  0  0  0  0  0  0  0  0  0  0  0
    2.9605    0.6651    2.1045 C   0  0  2  0  0  0  0  0  0  0  0  0
    4.1368    1.0414    1.2133 C   0  0  0  0  0  0  0  0  0  0  0  0
    4.2398    0.6700    0.0461 O   0  0  0  0  0  0  0  0  0  0  0  0
    3.3254   -0.4859    3.0290 C   0  0  0  0  0  0  0  0  0  0  0  0
    1.3572   -0.5522    1.4246 H   0  0  0  0  0  0  0  0  0  0  0  0
    2.6521    1.5374    2.6910 H   0  0  0  0  0  0  0  0  0  0  0  0
    3.6370   -1.3690    2.4593 H   0  0  0  0  0  0  0  0  0  0  0  0
    4.1511   -0.2137    3.6946 H   0  0  0  0  0  0  0  0  0  0  0  0
    2.4693   -0.7749    3.6482 H   0  0  0  0  0  0  0  0  0  0  0  0
    5.0792    1.8050    1.8878 N   0  0  0  0  0  0  0  0  0  0  0  0
    6.2927    2.2766    1.2626 C   0  0  0  0  0  0  0  0  0  0  0  0
    4.9025    2.0823    2.8489 H   0  0  0  0  0  0  0  0  0  0  0  0
    7.1019    1.5528    1.4391 H   0  0  0  0  0  0  0  0  0  0  0  0
    6.1287    2.3865    0.1804 H   0  0  0  0  0  0  0  0  0  0  0  0
    6.5717    3.2502    1.6918 H   0  0  0  0  0  0  0  0  0  0  0  0
 23 25  2  0  0  0  0
 22 23  1  0  0  0  0
 24 26  1  0  0  0  0
 22 24  2  0  0  0  0
 25 27  1  0  0  0  0
 26 27  2  0  0  0  0
 21 22  1  0  0  0  0
 27 28  1  0  0  0  0
  1  3  1  0  0  0  0
  1  7  1  0  0  0  0
  1  2  2  0  0  0  0
 39 40  1  0  0  0  0
 40 48  1  0  0  0  0
 40 41  2  0  0  0  0
  8  9  1  0  0  0  0
  9 17  1  0  0  0  0
  9 10  2  0  0  0  0
 18 19  1  0  0  0  0
 19 38  1  0  0  0  0
 19 20  2  0  0  0  0
 39 42  1  0  0  0  0
  8 11  1  0  0  0  0
 48 49  1  0  0  0  0
 18 21  1  0  0  0  0
 38 39  1  0  0  0  0
  7  8  1  0  0  0  0
 17 18  1  0  0  0  0
 23 33  1  0  0  0  0
 24 34  1  0  0  0  0
 25 35  1  0  0  0  0
 26 36  1  0  0  0  0
  3  4  1  0  0  0  0
  3  5  1  0  0  0  0
  3  6  1  0  0  0  0
 42 45  1  0  0  0  0
 42 46  1  0  0  0  0
 42 47  1  0  0  0  0
 11 14  1  0  0  0  0
 11 15  1  0  0  0  0
 11 16  1  0  0  0  0
 49 51  1  0  0  0  0
 49 52  1  0  0  0  0
 49 53  1  0  0  0  0
 21 31  1  0  0  0  0
 21 32  1  0  0  0  0
 39 44  1  0  0  0  0
  8 13  1  0  0  0  0
 18 30  1  0  0  0  0
 48 50  1  0  0  0  0
  7 12  1  0  0  0  0
 38 43  1  0  0  0  0
 17 29  1  0  0  0  0
 28 37  1  0  0  0  0
M  END
$$$$

  -OEChem-05262214473D

 53 53  0     1  0  0  0  0  0999 V2000
   -1.9298    0.2574    3.9747 C   0  0  0  0  0  0  0  0  0  0  0  0
   -0.9825   -0.3573    3.4990 O   0  0  0  0  0  0  0  0  0  0  0  0
   -2.3617   -0.0250    5.3754 C   0  0  0  0  0  0  0  0  0  0  0  0
   -3.1214   -0.8213    5.4288 H   0  0  0  0  0  0  0  0  0  0  0  0
   -1.5305   -0.3726    6.0097 H   0  0  0  0  0  0  0  0  0  0  0  0
   -2.7997    0.8299    5.9150 H   0  0  0  0  0  0  0  0  0  0  0  0
   -2.6795    1.2298    3.3336 N   0  0  0  0  0  0  0  0  0  0  0  0
   -2.4327    1.6559    1.9812 C   0  0  2  0  0  0  0  0  0  0  0  0
   -1.0977    1.0705    1.5400 C   0  0  0  0  0  0  0  0  0  0  0  0
   -0.2256    0.7177    2.3313 O   0  0  0  0  0  0  0  0  0  0  0  0
   -2.4239    3.1726    1.8718 C   0  0  0  0  0  0  0  0  0  0  0  0
   -3.4446    1.6657    3.8454 H   0  0  0  0  0  0  0  0  0  0  0  0
   -3.2368    1.2374    1.3661 H   0  0  0  0  0  0  0  0  0  0  0  0
   -1.6248    3.6099    2.4815 H   0  0  0  0  0  0  0  0  0  0  0  0
   -2.2644    3.4949    0.8375 H   0  0  0  0  0  0  0  0  0  0  0  0
   -3.3741    3.5939    2.2175 H   0  0  0  0  0  0  0  0  0  0  0  0
   -0.9750    1.0274    0.1566 N   0  0  0  0  0  0  0  0  0  0  0  0
    0.2023    0.5266   -0.5070 C   0  0  2  0  0  0  0  0  0  0  0  0
    1.4103    1.1238    0.2059 C   0  0  0  0  0  0  0  0  0  0  0  0
    1.7356    2.3041    0.0968 O   0  0  0  0  0  0  0  0  0  0  0  0
    0.2275    0.8922   -1.9956 C   0  0  0  0  0  0  0  0  0  0  0  0
   -0.8578    0.2014   -2.7847 C   0  0  0  0  0  0  0  0  0  0  0  0
   -0.6835   -1.1175   -3.2040 C   0  0  0  0  0  0  0  0  0  0  0  0
   -2.0350    0.8822   -3.0952 C   0  0  0  0  0  0  0  0  0  0  0  0
   -1.6864   -1.7556   -3.9338 C   0  0  0  0  0  0  0  0  0  0  0  0
   -3.0379    0.2441   -3.8251 C   0  0  0  0  0  0  0  0  0  0  0  0
   -2.8636   -1.0748   -4.2443 C   0  0  0  0  0  0  0  0  0  0  0  0
   -3.8415   -1.6973   -4.9576 O   0  0  0  0  0  0  0  0  0  0  0  0
   -1.7582    1.3241   -0.4207 H   0  0  0  0  0  0  0  0  0  0  0  0
    0.2026   -0.5605   -0.3645 H   0  0  0  0  0  0  0  0  0  0  0  0
    1.2082    0.6540   -2.4293 H   0  0  0  0  0  0  0  0  0  0  0  0
    0.1106    1.9762   -2.1263 H   0  0  0  0  0  0  0  0  0  0  0  0
    0.2303   -1.6555   -2.9665 H   0  0  0  0  0  0  0  0  0  0  0  0
   -2.1795    1.9101   -2.7725 H   0  0  0  0  0  0  0  0  0  0  0  0
   -1.5446   -2.7832   -4.2579 H   0  0  0  0  0  0  0  0  0  0  0  0
   -3.9523    0.7798   -4.0640 H   0  0  0  0  0  0  0  0  0  0  0  0
   -4.5928   -1.0978   -5.0925 H   0  0  0  0  0  0  0  0  0  0  0  0
    2.0484    0.1937    1.0148 N   0  0  0  0  0  0  0  0  0  0  0  0
    3.2079    0.5048    1.8194 C   0  0  2  0  0  0  0  0  0  0  0  0
    4.2262    1.2023    0.9271 C   0  0  0  0  0  0  0  0  0  0  0  0
    4.2358    1.0873   -0.2967 O   0  0  0  0  0  0  0  0  0  0  0  0
    3.8007   -0.7488    2.4437 C   0  0  0  0  0  0  0  0  0  0  0  0
    1.6819   -0.7532    1.0427 H   0  0  0  0  0  0  0  0  0  0  0  0
    2.8740    1.1948    2.6020 H   0  0  0  0  0  0  0  0  0  0  0  0
    4.1410   -1.4522    1.6749 H   0  0  0  0  0  0  0  0  0  0  0  0
    4.6619   -0.5081    3.0758 H   0  0  0  0  0  0  0  0  0  0  0  0
    3.0580   -1.2652    3.0613 H   0  0  0  0  0  0  0  0  0  0  0  0
    5.1491    1.9338    1.6614 N   0  0  0  0  0  0  0  0  0  0  0  0
    6.2239    2.6758    1.0447 C   0  0  0  0  0  0  0  0  0  0  0  0
    5.0537    1.9887    2.6711 H   0  0  0  0  0  0  0  0  0  0  0  0
    7.1230    2.0443    0.9917 H   0  0  0  0  0  0  0  0  0  0  0  0
    5.9265    2.9761    0.0292 H   0  0  0  0  0  0  0  0  0  0  0  0
    6.4408    3.5727    1.6435 H   0  0  0  0  0  0  0  0  0  0  0  0
 23 25  2  0  0  0  0
 22 23  1  0  0  0  0
 24 26  1  0  0  0  0
 22 24  2  0  0  0  0
 25 27  1  0  0  0  0
 26 27  2  0  0  0  0
 21 22  1  0  0  0  0
 27 28  1  0  0  0  0
  1  3  1  0  0  0  0
  1  7  1  0  0  0  0
  1  2  2  0  0  0  0
 39 40  1  0  0  0  0
 40 48  1  0  0  0  0
 40 41  2  0  0  0  0
  8  9  1  0  0  0  0
  9 17  1  0  0  0  0
  9 10  2  0  0  0  0
 18 19  1  0  0  0  0
 19 38  1  0  0  0  0
 19 20  2  0  0  0  0
 39 42  1  0  0  0  0
  8 11  1  0  0  0  0
 48 49  1  0  0  0  0
 18 21  1  0  0  0  0
 38 39  1  0  0  0  0
  7  8  1  0  0  0  0
 17 18  1  0  0  0  0
 23 33  1  0  0  0  0
 24 34  1  0  0  0  0
 25 35  1  0  0  0  0
 26 36  1  0  0  0  0
  3  4  1  0  0  0  0
  3  5  1  0  0  0  0
  3  6  1  0  0  0  0
 42 45  1  0  0  0  0
 42 46  1  0  0  0  0
 42 47  1  0  0  0  0
 11 14  1  0  0  0  0
 11 15  1  0  0  0  0
 11 16  1  0  0  0  0
 49 51  1  0  0  0  0
 49 52  1  0  0  0  0
 49 53  1  0  0  0  0
 21 31  1  0  0  0  0
 21 32  1  0  0  0  0
 39 44  1  0  0  0  0
  8 13  1  0  0  0  0
 18 30  1  0  0  0  0
 48 50  1  0  0  0  0
  7 12  1  0  0  0  0
 38 43  1  0  0  0  0
 17 29  1  0  0  0  0
 28 37  1  0  0  0  0
M  END
$$$$

  -OEChem-05262214473D

 53 53  0     1  0  0  0  0  0999 V2000
   -1.9298    0.2574    3.9747 C   0  0  0  0  0  0  0  0  0  0  0  0
   -0.9825   -0.3573    3.4990 O   0  0  0  0  0  0  0  0  0  0  0  0
   -2.3617   -0.0250    5.3754 C   0  0  0  0  0  0  0  0  0  0  0  0
   -3.1214   -0.8213    5.4288 H   0  0  0  0  0  0  0  0  0  0  0  0
   -1.5305   -0.3726    6.0097 H   0  0  0  0  0  0  0  0  0  0  0  0
   -2.7997    0.8299    5.9150 H   0  0  0  0  0  0  0  0  0  0  0  0
   -2.6795    1.2298    3.3336 N   0  0  0  0  0  0  0  0  0  0  0  0
   -2.4327    1.6559    1.9812 C   0  0  2  0  0  0  0  0  0  0  0  0
   -1.0977    1.0705    1.5400 C   0  0  0  0  0  0  0  0  0  0  0  0
   -0.2256    0.7177    2.3313 O   0  0  0  0  0  0  0  0  0  0  0  0
   -2.4239    3.1726    1.8718 C   0  0  0  0  0  0  0  0  0  0  0  0
   -3.4446    1.6657    3.8454 H   0  0  0  0  0  0  0  0  0  0  0  0
   -3.2368    1.2374    1.3661 H   0  0  0  0  0  0  0  0  0  0  0  0
   -1.6248    3.6099    2.4815 H   0  0  0  0  0  0  0  0  0  0  0  0
   -2.2644    3.4949    0.8375 H   0  0  0  0  0  0  0  0  0  0  0  0
   -3.3741    3.5939    2.2175 H   0  0  0  0  0  0  0  0  0  0  0  0
   -0.9750    1.0274    0.1566 N   0  0  0  0  0  0  0  0  0  0  0  0
    0.2023    0.5266   -0.5070 C   0  0  2  0  0  0  0  0  0  0  0  0
    1.4103    1.1238    0.2059 C   0  0  0  0  0  0  0  0  0  0  0  0
    1.5887    2.3346    0.3202 O   0  0  0  0  0  0  0  0  0  0  0  0
    0.2275    0.8922   -1.9956 C   0  0  0  0  0  0  0  0  0  0  0  0
   -0.8578    0.2014   -2.7847 C   0  0  0  0  0  0  0  0  0  0  0  0
   -0.6835   -1.1175   -3.2040 C   0  0  0  0  0  0  0  0  0  0  0  0
   -2.0350    0.8822   -3.0952 C   0  0  0  0  0  0  0  0  0  0  0  0
   -1.6864   -1.7556   -3.9338 C   0  0  0  0  0  0  0  0  0  0  0  0
   -3.0379    0.2441   -3.8251 C   0  0  0  0  0  0  0  0  0  0  0  0
   -2.8636   -1.0748   -4.2443 C   0  0  0  0  0  0  0  0  0  0  0  0
   -3.8415   -1.6973   -4.9576 O   0  0  0  0  0  0  0  0  0  0  0  0
   -1.7582    1.3241   -0.4207 H   0  0  0  0  0  0  0  0  0  0  0  0
    0.2026   -0.5605   -0.3645 H   0  0  0  0  0  0  0  0  0  0  0  0
    1.2082    0.6540   -2.4293 H   0  0  0  0  0  0  0  0  0  0  0  0
    0.1106    1.9762   -2.1263 H   0  0  0  0  0  0  0  0  0  0  0  0
    0.2303   -1.6555   -2.9665 H   0  0  0  0  0  0  0  0  0  0  0  0
   -2.1795    1.9101   -2.7725 H   0  0  0  0  0  0  0  0  0  0  0  0
   -1.5446   -2.7832   -4.2579 H   0  0  0  0  0  0  0  0  0  0  0  0
   -3.9523    0.7798   -4.0640 H   0  0  0  0  0  0  0  0  0  0  0  0
   -4.5928   -1.0978   -5.0925 H   0  0  0  0  0  0  0  0  0  0  0  0
    2.2352    0.1437    0.7401 N   0  0  0  0  0  0  0  0  0  0  0  0
    3.4375    0.4384    1.4861 C   0  0  2  0  0  0  0  0  0  0  0  0
    4.2640    1.4272    0.6746 C   0  0  0  0  0  0  0  0  0  0  0  0
    4.1467    1.5601   -0.5418 O   0  0  0  0  0  0  0  0  0  0  0  0
    4.2324   -0.8251    1.7762 C   0  0  0  0  0  0  0  0  0  0  0  0
    1.9812   -0.8297    0.5996 H   0  0  0  0  0  0  0  0  0  0  0  0
    3.1208    0.9089    2.4233 H   0  0  0  0  0  0  0  0  0  0  0  0
    4.5584   -1.3106    0.8491 H   0  0  0  0  0  0  0  0  0  0  0  0
    5.1281   -0.6038    2.3659 H   0  0  0  0  0  0  0  0  0  0  0  0
    3.6266   -1.5472    2.3342 H   0  0  0  0  0  0  0  0  0  0  0  0
    5.1782    2.1131    1.4620 N   0  0  0  0  0  0  0  0  0  0  0  0
    6.0871    3.0978    0.9232 C   0  0  0  0  0  0  0  0  0  0  0  0
    5.1930    1.9531    2.4649 H   0  0  0  0  0  0  0  0  0  0  0  0
    7.0385    2.6133    0.6583 H   0  0  0  0  0  0  0  0  0  0  0  0
    5.6445    3.5522    0.0245 H   0  0  0  0  0  0  0  0  0  0  0  0
    6.2704    3.8783    1.6763 H   0  0  0  0  0  0  0  0  0  0  0  0
 23 25  2  0  0  0  0
 22 23  1  0  0  0  0
 24 26  1  0  0  0  0
 22 24  2  0  0  0  0
 25 27  1  0  0  0  0
 26 27  2  0  0  0  0
 21 22  1  0  0  0  0
 27 28  1  0  0  0  0
  1  3  1  0  0  0  0
  1  7  1  0  0  0  0
  1  2  2  0  0  0  0
 39 40  1  0  0  0  0
 40 48  1  0  0  0  0
 40 41  2  0  0  0  0
  8  9  1  0  0  0  0
  9 17  1  0  0  0  0
  9 10  2  0  0  0  0
 18 19  1  0  0  0  0
 19 38  1  0  0  0  0
 19 20  2  0  0  0  0
 39 42  1  0  0  0  0
  8 11  1  0  0  0  0
 48 49  1  0  0  0  0
 18 21  1  0  0  0  0
 38 39  1  0  0  0  0
  7  8  1  0  0  0  0
 17 18  1  0  0  0  0
 23 33  1  0  0  0  0
 24 34  1  0  0  0  0
 25 35  1  0  0  0  0
 26 36  1  0  0  0  0
  3  4  1  0  0  0  0
  3  5  1  0  0  0  0
  3  6  1  0  0  0  0
 42 45  1  0  0  0  0
 42 46  1  0  0  0  0
 42 47  1  0  0  0  0
 11 14  1  0  0  0  0
 11 15  1  0  0  0  0
 11 16  1  0  0  0  0
 49 51  1  0  0  0  0
 49 52  1  0  0  0  0
 49 53  1  0  0  0  0
 21 31  1  0  0  0  0
 21 32  1  0  0  0  0
 39 44  1  0  0  0  0
  8 13  1  0  0  0  0
 18 30  1  0  0  0  0
 48 50  1  0  0  0  0
  7 12  1  0  0  0  0
 38 43  1  0  0  0  0
 17 29  1  0  0  0  0
 28 37  1  0  0  0  0
M  END
$$$$

  -OEChem-05262214473D

 53 53  0     1  0  0  0  0  0999 V2000
   -1.9298    0.2574    3.9747 C   0  0  0  0  0  0  0  0  0  0  0  0
   -0.9825   -0.3573    3.4990 O   0  0  0  0  0  0  0  0  0  0  0  0
   -2.3617   -0.0250    5.3754 C   0  0  0  0  0  0  0  0  0  0  0  0
   -3.1214   -0.8213    5.4288 H   0  0  0  0  0  0  0  0  0  0  0  0
   -1.5305   -0.3726    6.0097 H   0  0  0  0  0  0  0  0  0  0  0  0
   -2.7997    0.8299    5.9150 H   0  0  0  0  0  0  0  0  0  0  0  0
   -2.6795    1.2298    3.3336 N   0  0  0  0  0  0  0  0  0  0  0  0
   -2.4327    1.6559    1.9812 C   0  0  2  0  0  0  0  0  0  0  0  0
   -1.0977    1.0705    1.5400 C   0  0  0  0  0  0  0  0  0  0  0  0
   -0.2256    0.7177    2.3313 O   0  0  0  0  0  0  0  0  0  0  0  0
   -2.4239    3.1726    1.8718 C   0  0  0  0  0  0  0  0  0  0  0  0
   -3.4446    1.6657    3.8454 H   0  0  0  0  0  0  0  0  0  0  0  0
   -3.2368    1.2374    1.3661 H   0  0  0  0  0  0  0  0  0  0  0  0
   -1.6248    3.6099    2.4815 H   0  0  0  0  0  0  0  0  0  0  0  0
   -2.2644    3.4949    0.8375 H   0  0  0  0  0  0  0  0  0  0  0  0
   -3.3741    3.5939    2.2175 H   0  0  0  0  0  0  0  0  0  0  0  0
   -0.9750    1.0274    0.1566 N   0  0  0  0  0  0  0  0  0  0  0  0
    0.2023    0.5266   -0.5070 C   0  0  2  0  0  0  0  0  0  0  0  0
    1.4103    1.1238    0.2059 C   0  0  0  0  0  0  0  0  0  0  0  0
    1.4657    2.3004    0.5572 O   0  0  0  0  0  0  0  0  0  0  0  0
    0.2275    0.8922   -1.9956 C   0  0  0  0  0  0  0  0  0  0  0  0
   -0.8578    0.2014   -2.7847 C   0  0  0  0  0  0  0  0  0  0  0  0
   -0.6835   -1.1175   -3.2040 C   0  0  0  0  0  0  0  0  0  0  0  0
   -2.0350    0.8822   -3.0952 C   0  0  0  0  0  0  0  0  0  0  0  0
   -1.6864   -1.7556   -3.9338 C   0  0  0  0  0  0  0  0  0  0  0  0
   -3.0379    0.2441   -3.8251 C   0  0  0  0  0  0  0  0  0  0  0  0
   -2.8636   -1.0748   -4.2443 C   0  0  0  0  0  0  0  0  0  0  0  0
   -3.8415   -1.6973   -4.9576 O   0  0  0  0  0  0  0  0  0  0  0  0
   -1.7582    1.3241   -0.4207 H   0  0  0  0  0  0  0  0  0  0  0  0
    0.2026   -0.5605   -0.3645 H   0  0  0  0  0  0  0  0  0  0  0  0
    1.2082    0.6540   -2.4293 H   0  0  0  0  0  0  0  0  0  0  0  0
    0.1106    1.9762   -2.1263 H   0  0  0  0  0  0  0  0  0  0  0  0
    0.2303   -1.6555   -2.9665 H   0  0  0  0  0  0  0  0  0  0  0  0
   -2.1795    1.9101   -2.7725 H   0  0  0  0  0  0  0  0  0  0  0  0
   -1.5446   -2.7832   -4.2579 H   0  0  0  0  0  0  0  0  0  0  0  0
   -3.9523    0.7798   -4.0640 H   0  0  0  0  0  0  0  0  0  0  0  0
   -4.5928   -1.0978   -5.0925 H   0  0  0  0  0  0  0  0  0  0  0  0
    2.3939    0.1743    0.4455 N   0  0  0  0  0  0  0  0  0  0  0  0
    3.6334    0.4704    1.1273 C   0  0  2  0  0  0  0  0  0  0  0  0
    4.2477    1.7009    0.4729 C   0  0  0  0  0  0  0  0  0  0  0  0
    3.9786    2.0564   -0.6726 O   0  0  0  0  0  0  0  0  0  0  0  0
    4.5909   -0.7098    1.0721 C   0  0  0  0  0  0  0  0  0  0  0  0
    2.2346   -0.7765    0.1256 H   0  0  0  0  0  0  0  0  0  0  0  0
    3.3756    0.6993    2.1671 H   0  0  0  0  0  0  0  0  0  0  0  0
    4.8607   -0.9539    0.0381 H   0  0  0  0  0  0  0  0  0  0  0  0
    5.5180   -0.4942    1.6134 H   0  0  0  0  0  0  0  0  0  0  0  0
    4.1361   -1.6017    1.5163 H   0  0  0  0  0  0  0  0  0  0  0  0
    5.1644    2.3307    1.3032 N   0  0  0  0  0  0  0  0  0  0  0  0
    5.8915    3.5137    0.9061 C   0  0  0  0  0  0  0  0  0  0  0  0
    5.3110    1.9778    2.2443 H   0  0  0  0  0  0  0  0  0  0  0  0
    6.8542    3.2211    0.4615 H   0  0  0  0  0  0  0  0  0  0  0  0
    5.3019    4.0755    0.1667 H   0  0  0  0  0  0  0  0  0  0  0  0
    6.0722    4.1461    1.7879 H   0  0  0  0  0  0  0  0  0  0  0  0
 23 25  2  0  0  0  0
 22 23  1  0  0  0  0
 24 26  1  0  0  0  0
 22 24  2  0  0  0  0
 25 27  1  0  0  0  0
 26 27  2  0  0  0  0
 21 22  1  0  0  0  0
 27 28  1  0  0  0  0
  1  3  1  0  0  0  0
  1  7  1  0  0  0  0
  1  2  2  0  0  0  0
 39 40  1  0  0  0  0
 40 48  1  0  0  0  0
 40 41  2  0  0  0  0
  8  9  1  0  0  0  0
  9 17  1  0  0  0  0
  9 10  2  0  0  0  0
 18 19  1  0  0  0  0
 19 38  1  0  0  0  0
 19 20  2  0  0  0  0
 39 42  1  0  0  0  0
  8 11  1  0  0  0  0
 48 49  1  0  0  0  0
 18 21  1  0  0  0  0
 38 39  1  0  0  0  0
  7  8  1  0  0  0  0
 17 18  1  0  0  0  0
 23 33  1  0  0  0  0
 24 34  1  0  0  0  0
 25 35  1  0  0  0  0
 26 36  1  0  0  0  0
  3  4  1  0  0  0  0
  3  5  1  0  0  0  0
  3  6  1  0  0  0  0
 42 45  1  0  0  0  0
 42 46  1  0  0  0  0
 42 47  1  0  0  0  0
 11 14  1  0  0  0  0
 11 15  1  0  0  0  0
 11 16  1  0  0  0  0
 49 51  1  0  0  0  0
 49 52  1  0  0  0  0
 49 53  1  0  0  0  0
 21 31  1  0  0  0  0
 21 32  1  0  0  0  0
 39 44  1  0  0  0  0
  8 13  1  0  0  0  0
 18 30  1  0  0  0  0
 48 50  1  0  0  0  0
  7 12  1  0  0  0  0
 38 43  1  0  0  0  0
 17 29  1  0  0  0  0
 28 37  1  0  0  0  0
M  END
$$$$

  -OEChem-05262214473D

 53 53  0     1  0  0  0  0  0999 V2000
   -1.9298    0.2574    3.9747 C   0  0  0  0  0  0  0  0  0  0  0  0
   -0.9825   -0.3573    3.4990 O   0  0  0  0  0  0  0  0  0  0  0  0
   -2.3617   -0.0250    5.3754 C   0  0  0  0  0  0  0  0  0  0  0  0
   -3.1214   -0.8213    5.4288 H   0  0  0  0  0  0  0  0  0  0  0  0
   -1.5305   -0.3726    6.0097 H   0  0  0  0  0  0  0  0  0  0  0  0
   -2.7997    0.8299    5.9150 H   0  0  0  0  0  0  0  0  0  0  0  0
   -2.6795    1.2298    3.3336 N   0  0  0  0  0  0  0  0  0  0  0  0
   -2.4327    1.6559    1.9812 C   0  0  2  0  0  0  0  0  0  0  0  0
   -1.0977    1.0705    1.5400 C   0  0  0  0  0  0  0  0  0  0  0  0
   -0.2256    0.7177    2.3313 O   0  0  0  0  0  0  0  0  0  0  0  0
   -2.4239    3.1726    1.8718 C   0  0  0  0  0  0  0  0  0  0  0  0
   -3.4446    1.6657    3.8454 H   0  0  0  0  0  0  0  0  0  0  0  0
   -3.2368    1.2374    1.3661 H   0  0  0  0  0  0  0  0  0  0  0  0
   -1.6248    3.6099    2.4815 H   0  0  0  0  0  0  0  0  0  0  0  0
   -2.2644    3.4949    0.8375 H   0  0  0  0  0  0  0  0  0  0  0  0
   -3.3741    3.5939    2.2175 H   0  0  0  0  0  0  0  0  0  0  0  0
   -0.9750    1.0274    0.1566 N   0  0  0  0  0  0  0  0  0  0  0  0
    0.2023    0.5266   -0.5070 C   0  0  2  0  0  0  0  0  0  0  0  0
    1.4103    1.1238    0.2059 C   0  0  0  0  0  0  0  0  0  0  0  0
    1.3751    2.2039    0.7916 O   0  0  0  0  0  0  0  0  0  0  0  0
    0.2275    0.8922   -1.9956 C   0  0  0  0  0  0  0  0  0  0  0  0
   -0.8578    0.2014   -2.7847 C   0  0  0  0  0  0  0  0  0  0  0  0
   -0.6835   -1.1175   -3.2040 C   0  0  0  0  0  0  0  0  0  0  0  0
   -2.0350    0.8822   -3.0952 C   0  0  0  0  0  0  0  0  0  0  0  0
   -1.6864   -1.7556   -3.9338 C   0  0  0  0  0  0  0  0  0  0  0  0
   -3.0379    0.2441   -3.8251 C   0  0  0  0  0  0  0  0  0  0  0  0
   -2.8636   -1.0748   -4.2443 C   0  0  0  0  0  0  0  0  0  0  0  0
   -3.8415   -1.6973   -4.9576 O   0  0  0  0  0  0  0  0  0  0  0  0
   -1.7582    1.3241   -0.4207 H   0  0  0  0  0  0  0  0  0  0  0  0
    0.2026   -0.5605   -0.3645 H   0  0  0  0  0  0  0  0  0  0  0  0
    1.2082    0.6540   -2.4293 H   0  0  0  0  0  0  0  0  0  0  0  0
    0.1106    1.9762   -2.1263 H   0  0  0  0  0  0  0  0  0  0  0  0
    0.2303   -1.6555   -2.9665 H   0  0  0  0  0  0  0  0  0  0  0  0
   -2.1795    1.9101   -2.7725 H   0  0  0  0  0  0  0  0  0  0  0  0
   -1.5446   -2.7832   -4.2579 H   0  0  0  0  0  0  0  0  0  0  0  0
   -3.9523    0.7798   -4.0640 H   0  0  0  0  0  0  0  0  0  0  0  0
   -4.5928   -1.0978   -5.0925 H   0  0  0  0  0  0  0  0  0  0  0  0
    2.5136    0.2835    0.1512 N   0  0  0  0  0  0  0  0  0  0  0  0
    3.7824    0.5987    0.7673 C   0  0  2  0  0  0  0  0  0  0  0  0
    4.1785    2.0046    0.3359 C   0  0  0  0  0  0  0  0  0  0  0  0
    3.7428    2.5421   -0.6801 O   0  0  0  0  0  0  0  0  0  0  0  0
    4.8519   -0.4105    0.3792 C   0  0  0  0  0  0  0  0  0  0  0  0
    2.4249   -0.5972   -0.3470 H   0  0  0  0  0  0  0  0  0  0  0  0
    3.6212    0.5803    1.8507 H   0  0  0  0  0  0  0  0  0  0  0  0
    5.0273   -0.4065   -0.7028 H   0  0  0  0  0  0  0  0  0  0  0  0
    5.8051   -0.1867    0.8694 H   0  0  0  0  0  0  0  0  0  0  0  0
    4.5520   -1.4249    0.6636 H   0  0  0  0  0  0  0  0  0  0  0  0
    5.1085    2.5718    1.1958 N   0  0  0  0  0  0  0  0  0  0  0  0
    5.6506    3.8953    0.9948 C   0  0  0  0  0  0  0  0  0  0  0  0
    5.3996    2.0612    2.0243 H   0  0  0  0  0  0  0  0  0  0  0  0
    6.5826    3.8262    0.4147 H   0  0  0  0  0  0  0  0  0  0  0  0
    4.9221    4.5103    0.4461 H   0  0  0  0  0  0  0  0  0  0  0  0
    5.8596    4.3579    1.9707 H   0  0  0  0  0  0  0  0  0  0  0  0
 23 25  2  0  0  0  0
 22 23  1  0  0  0  0
 24 26  1  0  0  0  0
 22 24  2  0  0  0  0
 25 27  1  0  0  0  0
 26 27  2  0  0  0  0
 21 22  1  0  0  0  0
 27 28  1  0  0  0  0
  1  3  1  0  0  0  0
  1  7  1  0  0  0  0
  1  2  2  0  0  0  0
 39 40  1  0  0  0  0
 40 48  1  0  0  0  0
 40 41  2  0  0  0  0
  8  9  1  0  0  0  0
  9 17  1  0  0  0  0
  9 10  2  0  0  0  0
 18 19  1  0  0  0  0
 19 38  1  0  0  0  0
 19 20  2  0  0  0  0
 39 42  1  0  0  0  0
  8 11  1  0  0  0  0
 48 49  1  0  0  0  0
 18 21  1  0  0  0  0
 38 39  1  0  0  0  0
  7  8  1  0  0  0  0
 17 18  1  0  0  0  0
 23 33  1  0  0  0  0
 24 34  1  0  0  0  0
 25 35  1  0  0  0  0
 26 36  1  0  0  0  0
  3  4  1  0  0  0  0
  3  5  1  0  0  0  0
  3  6  1  0  0  0  0
 42 45  1  0  0  0  0
 42 46  1  0  0  0  0
 42 47  1  0  0  0  0
 11 14  1  0  0  0  0
 11 15  1  0  0  0  0
 11 16  1  0  0  0  0
 49 51  1  0  0  0  0
 49 52  1  0  0  0  0
 49 53  1  0  0  0  0
 21 31  1  0  0  0  0
 21 32  1  0  0  0  0
 39 44  1  0  0  0  0
  8 13  1  0  0  0  0
 18 30  1  0  0  0  0
 48 50  1  0  0  0  0
  7 12  1  0  0  0  0
 38 43  1  0  0  0  0
 17 29  1  0  0  0  0
 28 37  1  0  0  0  0
M  END
$$$$

  -OEChem-05262214473D

 53 53  0     1  0  0  0  0  0999 V2000
   -1.9298    0.2574    3.9747 C   0  0  0  0  0  0  0  0  0  0  0  0
   -0.9825   -0.3573    3.4990 O   0  0  0  0  0  0  0  0  0  0  0  0
   -2.3617   -0.0250    5.3754 C   0  0  0  0  0  0  0  0  0  0  0  0
   -3.1214   -0.8213    5.4288 H   0  0  0  0  0  0  0  0  0  0  0  0
   -1.5305   -0.3726    6.0097 H   0  0  0  0  0  0  0  0  0  0  0  0
   -2.7997    0.8299    5.9150 H   0  0  0  0  0  0  0  0  0  0  0  0
   -2.6795    1.2298    3.3336 N   0  0  0  0  0  0  0  0  0  0  0  0
   -2.4327    1.6559    1.9812 C   0  0  2  0  0  0  0  0  0  0  0  0
   -1.0977    1.0705    1.5400 C   0  0  0  0  0  0  0  0  0  0  0  0
   -0.2256    0.7177    2.3313 O   0  0  0  0  0  0  0  0  0  0  0  0
   -2.4239    3.1726    1.8718 C   0  0  0  0  0  0  0  0  0  0  0  0
   -3.4446    1.6657    3.8454 H   0  0  0  0  0  0  0  0  0  0  0  0
   -3.2368    1.2374    1.3661 H   0  0  0  0  0  0  0  0  0  0  0  0
   -1.6248    3.6099    2.4815 H   0  0  0  0  0  0  0  0  0  0  0  0
   -2.2644    3.4949    0.8375 H   0  0  0  0  0  0  0  0  0  0  0  0
   -3.3741    3.5939    2.2175 H   0  0  0  0  0  0  0  0  0  0  0  0
   -0.9750    1.0274    0.1566 N   0  0  0  0  0  0  0  0  0  0  0  0
    0.2023    0.5266   -0.5070 C   0  0  2  0  0  0  0  0  0  0  0  0
    1.4103    1.1238    0.2059 C   0  0  0  0  0  0  0  0  0  0  0  0
    1.3230    2.0516    1.0074 O   0  0  0  0  0  0  0  0  0  0  0  0
    0.2275    0.8922   -1.9956 C   0  0  0  0  0  0  0  0  0  0  0  0
   -0.8578    0.2014   -2.7847 C   0  0  0  0  0  0  0  0  0  0  0  0
   -0.6835   -1.1175   -3.2040 C   0  0  0  0  0  0  0  0  0  0  0  0
   -2.0350    0.8822   -3.0952 C   0  0  0  0  0  0  0  0  0  0  0  0
   -1.6864   -1.7556   -3.9338 C   0  0  0  0  0  0  0  0  0  0  0  0
   -3.0379    0.2441   -3.8251 C   0  0  0  0  0  0  0  0  0  0  0  0
   -2.8636   -1.0748   -4.2443 C   0  0  0  0  0  0  0  0  0  0  0  0
   -3.8415   -1.6973   -4.9576 O   0  0  0  0  0  0  0  0  0  0  0  0
   -1.7582    1.3241   -0.4207 H   0  0  0  0  0  0  0  0  0  0  0  0
    0.2026   -0.5605   -0.3645 H   0  0  0  0  0  0  0  0  0  0  0  0
    1.2082    0.6540   -2.4293 H   0  0  0  0  0  0  0  0  0  0  0  0
    0.1106    1.9762   -2.1263 H   0  0  0  0  0  0  0  0  0  0  0  0
    0.2303   -1.6555   -2.9665 H   0  0  0  0  0  0  0  0  0  0  0  0
   -2.1795    1.9101   -2.7725 H   0  0  0  0  0  0  0  0  0  0  0  0
   -1.5446   -2.7832   -4.2579 H   0  0  0  0  0  0  0  0  0  0  0  0
   -3.9523    0.7798   -4.0640 H   0  0  0  0  0  0  0  0  0  0  0  0
   -4.5928   -1.0978   -5.0925 H   0  0  0  0  0  0  0  0  0  0  0  0
    2.5862    0.4638   -0.1229 N   0  0  0  0  0  0  0  0  0  0  0  0
    3.8744    0.8144    0.4309 C   0  0  2  0  0  0  0  0  0  0  0  0
    4.0609    2.3176    0.2729 C   0  0  0  0  0  0  0  0  0  0  0  0
    3.4556    2.9844   -0.5638 O   0  0  0  0  0  0  0  0  0  0  0  0
    4.9975    0.0522   -0.2551 C   0  0  0  0  0  0  0  0  0  0  0  0
    2.5391   -0.3041   -0.7860 H   0  0  0  0  0  0  0  0  0  0  0  0
    3.8407    0.5599    1.4958 H   0  0  0  0  0  0  0  0  0  0  0  0
    5.0468    0.2943   -1.3230 H   0  0  0  0  0  0  0  0  0  0  0  0
    5.9698    0.2975    0.1847 H   0  0  0  0  0  0  0  0  0  0  0  0
    4.8459   -1.0289   -0.1661 H   0  0  0  0  0  0  0  0  0  0  0  0
    5.0146    2.8199    1.1472 N   0  0  0  0  0  0  0  0  0  0  0  0
    5.3806    4.2166    1.1832 C   0  0  0  0  0  0  0  0  0  0  0  0
    5.4528    2.1976    1.8199 H   0  0  0  0  0  0  0  0  0  0  0  0
    6.2423    4.3875    0.5212 H   0  0  0  0  0  0  0  0  0  0  0  0
    4.5308    4.8270    0.8437 H   0  0  0  0  0  0  0  0  0  0  0  0
    5.6472    4.4993    2.2123 H   0  0  0  0  0  0  0  0  0  0  0  0
 23 25  2  0  0  0  0
 22 23  1  0  0  0  0
 24 26  1  0  0  0  0
 22 24  2  0  0  0  0
 25 27  1  0  0  0  0
 26 27  2  0  0  0  0
 21 22  1  0  0  0  0
 27 28  1  0  0  0  0
  1  3  1  0  0  0  0
  1  7  1  0  0  0  0
  1  2  2  0  0  0  0
 39 40  1  0  0  0  0
 40 48  1  0  0  0  0
 40 41  2  0  0  0  0
  8  9  1  0  0  0  0
  9 17  1  0  0  0  0
  9 10  2  0  0  0  0
 18 19  1  0  0  0  0
 19 38  1  0  0  0  0
 19 20  2  0  0  0  0
 39 42  1  0  0  0  0
  8 11  1  0  0  0  0
 48 49  1  0  0  0  0
 18 21  1  0  0  0  0
 38 39  1  0  0  0  0
  7  8  1  0  0  0  0
 17 18  1  0  0  0  0
 23 33  1  0  0  0  0
 24 34  1  0  0  0  0
 25 35  1  0  0  0  0
 26 36  1  0  0  0  0
  3  4  1  0  0  0  0
  3  5  1  0  0  0  0
  3  6  1  0  0  0  0
 42 45  1  0  0  0  0
 42 46  1  0  0  0  0
 42 47  1  0  0  0  0
 11 14  1  0  0  0  0
 11 15  1  0  0  0  0
 11 16  1  0  0  0  0
 49 51  1  0  0  0  0
 49 52  1  0  0  0  0
 49 53  1  0  0  0  0
 21 31  1  0  0  0  0
 21 32  1  0  0  0  0
 39 44  1  0  0  0  0
  8 13  1  0  0  0  0
 18 30  1  0  0  0  0
 48 50  1  0  0  0  0
  7 12  1  0  0  0  0
 38 43  1  0  0  0  0
 17 29  1  0  0  0  0
 28 37  1  0  0  0  0
M  END
$$$$

  -OEChem-05262214473D

 53 53  0     1  0  0  0  0  0999 V2000
   -1.9298    0.2574    3.9747 C   0  0  0  0  0  0  0  0  0  0  0  0
   -0.9825   -0.3573    3.4990 O   0  0  0  0  0  0  0  0  0  0  0  0
   -2.3617   -0.0250    5.3754 C   0  0  0  0  0  0  0  0  0  0  0  0
   -3.1214   -0.8213    5.4288 H   0  0  0  0  0  0  0  0  0  0  0  0
   -1.5305   -0.3726    6.0097 H   0  0  0  0  0  0  0  0  0  0  0  0
   -2.7997    0.8299    5.9150 H   0  0  0  0  0  0  0  0  0  0  0  0
   -2.6795    1.2298    3.3336 N   0  0  0  0  0  0  0  0  0  0  0  0
   -2.4327    1.6559    1.9812 C   0  0  2  0  0  0  0  0  0  0  0  0
   -1.0977    1.0705    1.5400 C   0  0  0  0  0  0  0  0  0  0  0  0
   -0.2256    0.7177    2.3313 O   0  0  0  0  0  0  0  0  0  0  0  0
   -2.4239    3.1726    1.8718 C   0  0  0  0  0  0  0  0  0  0  0  0
   -3.4446    1.6657    3.8454 H   0  0  0  0  0  0  0  0  0  0  0  0
   -3.2368    1.2374    1.3661 H   0  0  0  0  0  0  0  0  0  0  0  0
   -1.6248    3.6099    2.4815 H   0  0  0  0  0  0  0  0  0  0  0  0
   -2.2644    3.4949    0.8375 H   0  0  0  0  0  0  0  0  0  0  0  0
   -3.3741    3.5939    2.2175 H   0  0  0  0  0  0  0  0  0  0  0  0
   -0.9750    1.0274    0.1566 N   0  0  0  0  0  0  0  0  0  0  0  0
    0.2023    0.5266   -0.5070 C   0  0  2  0  0  0  0  0  0  0  0  0
    1.3887    0.8034    0.4094 C   0  0  0  0  0  0  0  0  0  0  0  0
    1.2714    1.3216    1.5178 O   0  0  0  0  0  0  0  0  0  0  0  0
    0.4202    1.1846   -1.8744 C   0  0  0  0  0  0  0  0  0  0  0  0
   -0.6474    0.8169   -2.8758 C   0  0  0  0  0  0  0  0  0  0  0  0
   -0.5764   -0.3986   -3.5565 C   0  0  0  0  0  0  0  0  0  0  0  0
   -1.7047    1.6929   -3.1211 C   0  0  0  0  0  0  0  0  0  0  0  0
   -1.5628   -0.7381   -4.4824 C   0  0  0  0  0  0  0  0  0  0  0  0
   -2.6912    1.3534   -4.0471 C   0  0  0  0  0  0  0  0  0  0  0  0
   -2.6202    0.1379   -4.7277 C   0  0  0  0  0  0  0  0  0  0  0  0
   -3.5819   -0.1930   -5.6322 O   0  0  0  0  0  0  0  0  0  0  0  0
   -1.7582    1.3241   -0.4207 H   0  0  0  0  0  0  0  0  0  0  0  0
    0.0690   -0.5573   -0.6041 H   0  0  0  0  0  0  0  0  0  0  0  0
    1.4082    0.9164   -2.2725 H   0  0  0  0  0  0  0  0  0  0  0  0
    0.4368    2.2781   -1.7756 H   0  0  0  0  0  0  0  0  0  0  0  0
    0.2437   -1.0871   -3.3715 H   0  0  0  0  0  0  0  0  0  0  0  0
   -1.7682    2.6421   -2.5953 H   0  0  0  0  0  0  0  0  0  0  0  0
   -1.5018   -1.6864   -5.0097 H   0  0  0  0  0  0  0  0  0  0  0  0
   -3.5120    2.0402   -4.2340 H   0  0  0  0  0  0  0  0  0  0  0  0
   -4.2451    0.5131   -5.6915 H   0  0  0  0  0  0  0  0  0  0  0  0
    2.5835    0.3572   -0.1383 N   0  0  0  0  0  0  0  0  0  0  0  0
    3.8575    0.4753    0.5338 C   0  0  2  0  0  0  0  0  0  0  0  0
    4.0085    1.9154    1.0059 C   0  0  0  0  0  0  0  0  0  0  0  0
    3.3946    2.8541    0.5029 O   0  0  0  0  0  0  0  0  0  0  0  0
    5.0052    0.0806   -0.3827 C   0  0  0  0  0  0  0  0  0  0  0  0
    2.5613   -0.0740   -1.0577 H   0  0  0  0  0  0  0  0  0  0  0  0
    3.8204   -0.1922    1.4016 H   0  0  0  0  0  0  0  0  0  0  0  0
    5.0583    0.7383   -1.2580 H   0  0  0  0  0  0  0  0  0  0  0  0
    5.9672    0.1433    0.1366 H   0  0  0  0  0  0  0  0  0  0  0  0
    4.8794   -0.9454   -0.7450 H   0  0  0  0  0  0  0  0  0  0  0  0
    4.9416    2.0349    2.0263 N   0  0  0  0  0  0  0  0  0  0  0  0
    5.2728    3.3020    2.6353 C   0  0  0  0  0  0  0  0  0  0  0  0
    5.3888    1.2007    2.3947 H   0  0  0  0  0  0  0  0  0  0  0  0
    6.1361    3.7442    2.1165 H   0  0  0  0  0  0  0  0  0  0  0  0
    4.4115    3.9818    2.5587 H   0  0  0  0  0  0  0  0  0  0  0  0
    5.5230    3.1451    3.6949 H   0  0  0  0  0  0  0  0  0  0  0  0
 23 25  2  0  0  0  0
 22 23  1  0  0  0  0
 24 26  1  0  0  0  0
 22 24  2  0  0  0  0
 25 27  1  0  0  0  0
 26 27  2  0  0  0  0
 21 22  1  0  0  0  0
 27 28  1  0  0  0  0
  1  3  1  0  0  0  0
  1  7  1  0  0  0  0
  1  2  2  0  0  0  0
 39 40  1  0  0  0  0
 40 48  1  0  0  0  0
 40 41  2  0  0  0  0
  8  9  1  0  0  0  0
  9 17  1  0  0  0  0
  9 10  2  0  0  0  0
 18 19  1  0  0  0  0
 19 38  1  0  0  0  0
 19 20  2  0  0  0  0
 39 42  1  0  0  0  0
  8 11  1  0  0  0  0
 48 49  1  0  0  0  0
 18 21  1  0  0  0  0
 38 39  1  0  0  0  0
  7  8  1  0  0  0  0
 17 18  1  0  0  0  0
 23 33  1  0  0  0  0
 24 34  1  0  0  0  0
 25 35  1  0  0  0  0
 26 36  1  0  0  0  0
  3  4  1  0  0  0  0
  3  5  1  0  0  0  0
  3  6  1  0  0  0  0
 42 45  1  0  0  0  0
 42 46  1  0  0  0  0
 42 47  1  0  0  0  0
 11 14  1  0  0  0  0
 11 15  1  0  0  0  0
 11 16  1  0  0  0  0
 49 51  1  0  0  0  0
 49 52  1  0  0  0  0
 49 53  1  0  0  0  0
 21 31  1  0  0  0  0
 21 32  1  0  0  0  0
 39 44  1  0  0  0  0
  8 13  1  0  0  0  0
 18 30  1  0  0  0  0
 48 50  1  0  0  0  0
  7 12  1  0  0  0  0
 38 43  1  0  0  0  0
 17 29  1  0  0  0  0
 28 37  1  0  0  0  0
M  END
$$$$

  -OEChem-05262214473D

 53 53  0     1  0  0  0  0  0999 V2000
   -1.9298    0.2574    3.9747 C   0  0  0  0  0  0  0  0  0  0  0  0
   -0.9825   -0.3573    3.4990 O   0  0  0  0  0  0  0  0  0  0  0  0
   -2.3617   -0.0250    5.3754 C   0  0  0  0  0  0  0  0  0  0  0  0
   -3.1214   -0.8213    5.4288 H   0  0  0  0  0  0  0  0  0  0  0  0
   -1.5305   -0.3726    6.0097 H   0  0  0  0  0  0  0  0  0  0  0  0
   -2.7997    0.8299    5.9150 H   0  0  0  0  0  0  0  0  0  0  0  0
   -2.6795    1.2298    3.3336 N   0  0  0  0  0  0  0  0  0  0  0  0
   -2.4327    1.6559    1.9812 C   0  0  2  0  0  0  0  0  0  0  0  0
   -1.0977    1.0705    1.5400 C   0  0  0  0  0  0  0  0  0  0  0  0
   -0.2256    0.7177    2.3313 O   0  0  0  0  0  0  0  0  0  0  0  0
   -2.4239    3.1726    1.8718 C   0  0  0  0  0  0  0  0  0  0  0  0
   -3.4446    1.6657    3.8454 H   0  0  0  0  0  0  0  0  0  0  0  0
   -3.2368    1.2374    1.3661 H   0  0  0  0  0  0  0  0  0  0  0  0
   -1.6248    3.6099    2.4815 H   0  0  0  0  0  0  0  0  0  0  0  0
   -2.2644    3.4949    0.8375 H   0  0  0  0  0  0  0  0  0  0  0  0
   -3.3741    3.5939    2.2175 H   0  0  0  0  0  0  0  0  0  0  0  0
   -0.9750    1.0274    0.1566 N   0  0  0  0  0  0  0  0  0  0  0  0
    0.2023    0.5266   -0.5070 C   0  0  2  0  0  0  0  0  0  0  0  0
    1.3887    0.8034    0.4094 C   0  0  0  0  0  0  0  0  0  0  0  0
    1.2646    1.0666    1.6037 O   0  0  0  0  0  0  0  0  0  0  0  0
    0.4202    1.1846   -1.8744 C   0  0  0  0  0  0  0  0  0  0  0  0
   -0.6474    0.8169   -2.8758 C   0  0  0  0  0  0  0  0  0  0  0  0
   -0.5764   -0.3986   -3.5565 C   0  0  0  0  0  0  0  0  0  0  0  0
   -1.7047    1.6929   -3.1211 C   0  0  0  0  0  0  0  0  0  0  0  0
   -1.5628   -0.7381   -4.4824 C   0  0  0  0  0  0  0  0  0  0  0  0
   -2.6912    1.3534   -4.0471 C   0  0  0  0  0  0  0  0  0  0  0  0
   -2.6202    0.1379   -4.7277 C   0  0  0  0  0  0  0  0  0  0  0  0
   -3.5819   -0.1930   -5.6322 O   0  0  0  0  0  0  0  0  0  0  0  0
   -1.7582    1.3241   -0.4207 H   0  0  0  0  0  0  0  0  0  0  0  0
    0.0690   -0.5573   -0.6041 H   0  0  0  0  0  0  0  0  0  0  0  0
    1.4082    0.9164   -2.2725 H   0  0  0  0  0  0  0  0  0  0  0  0
    0.4368    2.2781   -1.7756 H   0  0  0  0  0  0  0  0  0  0  0  0
    0.2437   -1.0871   -3.3715 H   0  0  0  0  0  0  0  0  0  0  0  0
   -1.7682    2.6421   -2.5953 H   0  0  0  0  0  0  0  0  0  0  0  0
   -1.5018   -1.6864   -5.0097 H   0  0  0  0  0  0  0  0  0  0  0  0
   -3.5120    2.0402   -4.2340 H   0  0  0  0  0  0  0  0  0  0  0  0
   -4.2451    0.5131   -5.6915 H   0  0  0  0  0  0  0  0  0  0  0  0
    2.6002    0.6718   -0.2550 N   0  0  0  0  0  0  0  0  0  0  0  0
    3.8817    0.8575    0.3871 C   0  0  2  0  0  0  0  0  0  0  0  0
    3.8432    2.1810    1.1397 C   0  0  0  0  0  0  0  0  0  0  0  0
    3.0643    3.0898    0.8592 O   0  0  0  0  0  0  0  0  0  0  0  0
    5.0157    0.8411   -0.6260 C   0  0  0  0  0  0  0  0  0  0  0  0
    2.5855    0.4330   -1.2421 H   0  0  0  0  0  0  0  0  0  0  0  0
    4.0003    0.0345    1.1002 H   0  0  0  0  0  0  0  0  0  0  0  0
    4.9139    1.6587   -1.3490 H   0  0  0  0  0  0  0  0  0  0  0  0
    5.9880    0.9533   -0.1350 H   0  0  0  0  0  0  0  0  0  0  0  0
    5.0235   -0.0996   -1.1871 H   0  0  0  0  0  0  0  0  0  0  0  0
    4.8099    2.2446    2.1335 N   0  0  0  0  0  0  0  0  0  0  0  0
    4.9840    3.4026    2.9788 C   0  0  0  0  0  0  0  0  0  0  0  0
    5.4001    1.4367    2.3088 H   0  0  0  0  0  0  0  0  0  0  0  0
    5.7363    4.0713    2.5352 H   0  0  0  0  0  0  0  0  0  0  0  0
    4.0269    3.9370    3.0702 H   0  0  0  0  0  0  0  0  0  0  0  0
    5.3212    3.0815    3.9754 H   0  0  0  0  0  0  0  0  0  0  0  0
 23 25  2  0  0  0  0
 22 23  1  0  0  0  0
 24 26  1  0  0  0  0
 22 24  2  0  0  0  0
 25 27  1  0  0  0  0
 26 27  2  0  0  0  0
 21 22  1  0  0  0  0
 27 28  1  0  0  0  0
  1  3  1  0  0  0  0
  1  7  1  0  0  0  0
  1  2  2  0  0  0  0
 39 40  1  0  0  0  0
 40 48  1  0  0  0  0
 40 41  2  0  0  0  0
  8  9  1  0  0  0  0
  9 17  1  0  0  0  0
  9 10  2  0  0  0  0
 18 19  1  0  0  0  0
 19 38  1  0  0  0  0
 19 20  2  0  0  0  0
 39 42  1  0  0  0  0
  8 11  1  0  0  0  0
 48 49  1  0  0  0  0
 18 21  1  0  0  0  0
 38 39  1  0  0  0  0
  7  8  1  0  0  0  0
 17 18  1  0  0  0  0
 23 33  1  0  0  0  0
 24 34  1  0  0  0  0
 25 35  1  0  0  0  0
 26 36  1  0  0  0  0
  3  4  1  0  0  0  0
  3  5  1  0  0  0  0
  3  6  1  0  0  0  0
 42 45  1  0  0  0  0
 42 46  1  0  0  0  0
 42 47  1  0  0  0  0
 11 14  1  0  0  0  0
 11 15  1  0  0  0  0
 11 16  1  0  0  0  0
 49 51  1  0  0  0  0
 49 52  1  0  0  0  0
 49 53  1  0  0  0  0
 21 31  1  0  0  0  0
 21 32  1  0  0  0  0
 39 44  1  0  0  0  0
  8 13  1  0  0  0  0
 18 30  1  0  0  0  0
 48 50  1  0  0  0  0
  7 12  1  0  0  0  0
 38 43  1  0  0  0  0
 17 29  1  0  0  0  0
 28 37  1  0  0  0  0
M  END
$$$$

  -OEChem-05262214473D

 53 53  0     1  0  0  0  0  0999 V2000
   -1.9298    0.2574    3.9747 C   0  0  0  0  0  0  0  0  0  0  0  0
   -0.9825   -0.3573    3.4990 O   0  0  0  0  0  0  0  0  0  0  0  0
   -2.3617   -0.0250    5.3754 C   0  0  0  0  0  0  0  0  0  0  0  0
   -3.1214   -0.8213    5.4288 H   0  0  0  0  0  0  0  0  0  0  0  0
   -1.5305   -0.3726    6.0097 H   0  0  0  0  0  0  0  0  0  0  0  0
   -2.7997    0.8299    5.9150 H   0  0  0  0  0  0  0  0  0  0  0  0
   -2.6795    1.2298    3.3336 N   0  0  0  0  0  0  0  0  0  0  0  0
   -2.4327    1.6559    1.9812 C   0  0  2  0  0  0  0  0  0  0  0  0
   -1.0977    1.0705    1.5400 C   0  0  0  0  0  0  0  0  0  0  0  0
   -0.2256    0.7177    2.3313 O   0  0  0  0  0  0  0  0  0  0  0  0
   -2.4239    3.1726    1.8718 C   0  0  0  0  0  0  0  0  0  0  0  0
   -3.4446    1.6657    3.8454 H   0  0  0  0  0  0  0  0  0  0  0  0
   -3.2368    1.2374    1.3661 H   0  0  0  0  0  0  0  0  0  0  0  0
   -1.6248    3.6099    2.4815 H   0  0  0  0  0  0  0  0  0  0  0  0
   -2.2644    3.4949    0.8375 H   0  0  0  0  0  0  0  0  0  0  0  0
   -3.3741    3.5939    2.2175 H   0  0  0  0  0  0  0  0  0  0  0  0
   -0.9750    1.0274    0.1566 N   0  0  0  0  0  0  0  0  0  0  0  0
    0.2023    0.5266   -0.5070 C   0  0  2  0  0  0  0  0  0  0  0  0
    1.3887    0.8034    0.4094 C   0  0  0  0  0  0  0  0  0  0  0  0
    1.3018    0.8019    1.6355 O   0  0  0  0  0  0  0  0  0  0  0  0
    0.4202    1.1846   -1.8744 C   0  0  0  0  0  0  0  0  0  0  0  0
   -0.6474    0.8169   -2.8758 C   0  0  0  0  0  0  0  0  0  0  0  0
   -0.5764   -0.3986   -3.5565 C   0  0  0  0  0  0  0  0  0  0  0  0
   -1.7047    1.6929   -3.1211 C   0  0  0  0  0  0  0  0  0  0  0  0
   -1.5628   -0.7381   -4.4824 C   0  0  0  0  0  0  0  0  0  0  0  0
   -2.6912    1.3534   -4.0471 C   0  0  0  0  0  0  0  0  0  0  0  0
   -2.6202    0.1379   -4.7277 C   0  0  0  0  0  0  0  0  0  0  0  0
   -3.5819   -0.1930   -5.6322 O   0  0  0  0  0  0  0  0  0  0  0  0
   -1.7582    1.3241   -0.4207 H   0  0  0  0  0  0  0  0  0  0  0  0
    0.0690   -0.5573   -0.6041 H   0  0  0  0  0  0  0  0  0  0  0  0
    1.4082    0.9164   -2.2725 H   0  0  0  0  0  0  0  0  0  0  0  0
    0.4368    2.2781   -1.7756 H   0  0  0  0  0  0  0  0  0  0  0  0
    0.2437   -1.0871   -3.3715 H   0  0  0  0  0  0  0  0  0  0  0  0
   -1.7682    2.6421   -2.5953 H   0  0  0  0  0  0  0  0  0  0  0  0
   -1.5018   -1.6864   -5.0097 H   0  0  0  0  0  0  0  0  0  0  0  0
   -3.5120    2.0402   -4.2340 H   0  0  0  0  0  0  0  0  0  0  0  0
   -4.2451    0.5131   -5.6915 H   0  0  0  0  0  0  0  0  0  0  0  0
    2.5620    1.0018   -0.3051 N   0  0  0  0  0  0  0  0  0  0  0  0
    3.8386    1.2600    0.3213 C   0  0  2  0  0  0  0  0  0  0  0  0
    3.6485    2.3849    1.3302 C   0  0  0  0  0  0  0  0  0  0  0  0
    2.7254    3.1943    1.2665 O   0  0  0  0  0  0  0  0  0  0  0  0
    4.8961    1.6264   -0.7084 C   0  0  0  0  0  0  0  0  0  0  0  0
    2.5213    0.9637   -1.3193 H   0  0  0  0  0  0  0  0  0  0  0  0
    4.1246    0.3422    0.8464 H   0  0  0  0  0  0  0  0  0  0  0  0
    4.6269    2.5436   -1.2447 H   0  0  0  0  0  0  0  0  0  0  0  0
    5.8693    1.7938   -0.2352 H   0  0  0  0  0  0  0  0  0  0  0  0
    5.0104    0.8288   -1.4504 H   0  0  0  0  0  0  0  0  0  0  0  0
    4.6552    2.4050    2.2854 N   0  0  0  0  0  0  0  0  0  0  0  0
    4.7055    3.3856    3.3445 C   0  0  0  0  0  0  0  0  0  0  0  0
    5.3703    1.6837    2.2728 H   0  0  0  0  0  0  0  0  0  0  0  0
    5.3190    4.2407    3.0244 H   0  0  0  0  0  0  0  0  0  0  0  0
    3.6864    3.7308    3.5732 H   0  0  0  0  0  0  0  0  0  0  0  0
    5.1493    2.9321    4.2431 H   0  0  0  0  0  0  0  0  0  0  0  0
 23 25  2  0  0  0  0
 22 23  1  0  0  0  0
 24 26  1  0  0  0  0
 22 24  2  0  0  0  0
 25 27  1  0  0  0  0
 26 27  2  0  0  0  0
 21 22  1  0  0  0  0
 27 28  1  0  0  0  0
  1  3  1  0  0  0  0
  1  7  1  0  0  0  0
  1  2  2  0  0  0  0
 39 40  1  0  0  0  0
 40 48  1  0  0  0  0
 40 41  2  0  0  0  0
  8  9  1  0  0  0  0
  9 17  1  0  0  0  0
  9 10  2  0  0  0  0
 18 19  1  0  0  0  0
 19 38  1  0  0  0  0
 19 20  2  0  0  0  0
 39 42  1  0  0  0  0
  8 11  1  0  0  0  0
 48 49  1  0  0  0  0
 18 21  1  0  0  0  0
 38 39  1  0  0  0  0
  7  8  1  0  0  0  0
 17 18  1  0  0  0  0
 23 33  1  0  0  0  0
 24 34  1  0  0  0  0
 25 35  1  0  0  0  0
 26 36  1  0  0  0  0
  3  4  1  0  0  0  0
  3  5  1  0  0  0  0
  3  6  1  0  0  0  0
 42 45  1  0  0  0  0
 42 46  1  0  0  0  0
 42 47  1  0  0  0  0
 11 14  1  0  0  0  0
 11 15  1  0  0  0  0
 11 16  1  0  0  0  0
 49 51  1  0  0  0  0
 49 52  1  0  0  0  0
 49 53  1  0  0  0  0
 21 31  1  0  0  0  0
 21 32  1  0  0  0  0
 39 44  1  0  0  0  0
  8 13  1  0  0  0  0
 18 30  1  0  0  0  0
 48 50  1  0  0  0  0
  7 12  1  0  0  0  0
 38 43  1  0  0  0  0
 17 29  1  0  0  0  0
 28 37  1  0  0  0  0
M  END
$$$$

  -OEChem-05262214473D

 53 53  0     1  0  0  0  0  0999 V2000
   -1.9298    0.2574    3.9747 C   0  0  0  0  0  0  0  0  0  0  0  0
   -0.9825   -0.3573    3.4990 O   0  0  0  0  0  0  0  0  0  0  0  0
   -2.3617   -0.0250    5.3754 C   0  0  0  0  0  0  0  0  0  0  0  0
   -3.1214   -0.8213    5.4288 H   0  0  0  0  0  0  0  0  0  0  0  0
   -1.5305   -0.3726    6.0097 H   0  0  0  0  0  0  0  0  0  0  0  0
   -2.7997    0.8299    5.9150 H   0  0  0  0  0  0  0  0  0  0  0  0
   -2.6795    1.2298    3.3336 N   0  0  0  0  0  0  0  0  0  0  0  0
   -2.4327    1.6559    1.9812 C   0  0  2  0  0  0  0  0  0  0  0  0
   -1.0977    1.0705    1.5400 C   0  0  0  0  0  0  0  0  0  0  0  0
   -0.2256    0.7177    2.3313 O   0  0  0  0  0  0  0  0  0  0  0  0
   -2.4239    3.1726    1.8718 C   0  0  0  0  0  0  0  0  0  0  0  0
   -3.4446    1.6657    3.8454 H   0  0  0  0  0  0  0  0  0  0  0  0
   -3.2368    1.2374    1.3661 H   0  0  0  0  0  0  0  0  0  0  0  0
   -1.6248    3.6099    2.4815 H   0  0  0  0  0  0  0  0  0  0  0  0
   -2.2644    3.4949    0.8375 H   0  0  0  0  0  0  0  0  0  0  0  0
   -3.3741    3.5939    2.2175 H   0  0  0  0  0  0  0  0  0  0  0  0
   -0.9750    1.0274    0.1566 N   0  0  0  0  0  0  0  0  0  0  0  0
    0.2023    0.5266   -0.5070 C   0  0  2  0  0  0  0  0  0  0  0  0
    1.3887    0.8034    0.4094 C   0  0  0  0  0  0  0  0  0  0  0  0
    1.3803    0.5456    1.6112 O   0  0  0  0  0  0  0  0  0  0  0  0
    0.4202    1.1846   -1.8744 C   0  0  0  0  0  0  0  0  0  0  0  0
   -0.6474    0.8169   -2.8758 C   0  0  0  0  0  0  0  0  0  0  0  0
   -0.5764   -0.3986   -3.5565 C   0  0  0  0  0  0  0  0  0  0  0  0
   -1.7047    1.6929   -3.1211 C   0  0  0  0  0  0  0  0  0  0  0  0
   -1.5628   -0.7381   -4.4824 C   0  0  0  0  0  0  0  0  0  0  0  0
   -2.6912    1.3534   -4.0471 C   0  0  0  0  0  0  0  0  0  0  0  0
   -2.6202    0.1379   -4.7277 C   0  0  0  0  0  0  0  0  0  0  0  0
   -3.5819   -0.1930   -5.6322 O   0  0  0  0  0  0  0  0  0  0  0  0
   -1.7582    1.3241   -0.4207 H   0  0  0  0  0  0  0  0  0  0  0  0
    0.0690   -0.5573   -0.6041 H   0  0  0  0  0  0  0  0  0  0  0  0
    1.4082    0.9164   -2.2725 H   0  0  0  0  0  0  0  0  0  0  0  0
    0.4368    2.2781   -1.7756 H   0  0  0  0  0  0  0  0  0  0  0  0
    0.2437   -1.0871   -3.3715 H   0  0  0  0  0  0  0  0  0  0  0  0
   -1.7682    2.6421   -2.5953 H   0  0  0  0  0  0  0  0  0  0  0  0
   -1.5018   -1.6864   -5.0097 H   0  0  0  0  0  0  0  0  0  0  0  0
   -3.5120    2.0402   -4.2340 H   0  0  0  0  0  0  0  0  0  0  0  0
   -4.2451    0.5131   -5.6915 H   0  0  0  0  0  0  0  0  0  0  0  0
    2.4713    1.3248   -0.2853 N   0  0  0  0  0  0  0  0  0  0  0  0
    3.7313    1.6554    0.3408 C   0  0  2  0  0  0  0  0  0  0  0  0
    3.4376    2.5132    1.5644 C   0  0  0  0  0  0  0  0  0  0  0  0
    2.4009    3.1604    1.6968 O   0  0  0  0  0  0  0  0  0  0  0  0
    4.6546    2.3828   -0.6241 C   0  0  0  0  0  0  0  0  0  0  0  0
    2.3731    1.4819   -1.2840 H   0  0  0  0  0  0  0  0  0  0  0  0
    4.1849    0.7098    0.6573 H   0  0  0  0  0  0  0  0  0  0  0  0
    4.2169    3.3327   -0.9523 H   0  0  0  0  0  0  0  0  0  0  0  0
    5.6193    2.6073   -0.1572 H   0  0  0  0  0  0  0  0  0  0  0  0
    4.8408    1.7766   -1.5172 H   0  0  0  0  0  0  0  0  0  0  0  0
    4.4878    2.5052    2.4717 N   0  0  0  0  0  0  0  0  0  0  0  0
    4.4564    3.2523    3.7074 C   0  0  0  0  0  0  0  0  0  0  0  0
    5.3013    1.9249    2.2893 H   0  0  0  0  0  0  0  0  0  0  0  0
    4.9125    4.2408    3.5506 H   0  0  0  0  0  0  0  0  0  0  0  0
    3.4133    3.3774    4.0335 H   0  0  0  0  0  0  0  0  0  0  0  0
    5.0191    2.7072    4.4796 H   0  0  0  0  0  0  0  0  0  0  0  0
 23 25  2  0  0  0  0
 22 23  1  0  0  0  0
 24 26  1  0  0  0  0
 22 24  2  0  0  0  0
 25 27  1  0  0  0  0
 26 27  2  0  0  0  0
 21 22  1  0  0  0  0
 27 28  1  0  0  0  0
  1  3  1  0  0  0  0
  1  7  1  0  0  0  0
  1  2  2  0  0  0  0
 39 40  1  0  0  0  0
 40 48  1  0  0  0  0
 40 41  2  0  0  0  0
  8  9  1  0  0  0  0
  9 17  1  0  0  0  0
  9 10  2  0  0  0  0
 18 19  1  0  0  0  0
 19 38  1  0  0  0  0
 19 20  2  0  0  0  0
 39 42  1  0  0  0  0
  8 11  1  0  0  0  0
 48 49  1  0  0  0  0
 18 21  1  0  0  0  0
 38 39  1  0  0  0  0
  7  8  1  0  0  0  0
 17 18  1  0  0  0  0
 23 33  1  0  0  0  0
 24 34  1  0  0  0  0
 25 35  1  0  0  0  0
 26 36  1  0  0  0  0
  3  4  1  0  0  0  0
  3  5  1  0  0  0  0
  3  6  1  0  0  0  0
 42 45  1  0  0  0  0
 42 46  1  0  0  0  0
 42 47  1  0  0  0  0
 11 14  1  0  0  0  0
 11 15  1  0  0  0  0
 11 16  1  0  0  0  0
 49 51  1  0  0  0  0
 49 52  1  0  0  0  0
 49 53  1  0  0  0  0
 21 31  1  0  0  0  0
 21 32  1  0  0  0  0
 39 44  1  0  0  0  0
  8 13  1  0  0  0  0
 18 30  1  0  0  0  0
 48 50  1  0  0  0  0
  7 12  1  0  0  0  0
 38 43  1  0  0  0  0
 17 29  1  0  0  0  0
 28 37  1  0  0  0  0
M  END
$$$$

  -OEChem-05262214473D

 53 53  0     1  0  0  0  0  0999 V2000
   -1.9298    0.2574    3.9747 C   0  0  0  0  0  0  0  0  0  0  0  0
   -0.9825   -0.3573    3.4990 O   0  0  0  0  0  0  0  0  0  0  0  0
   -2.3617   -0.0250    5.3754 C   0  0  0  0  0  0  0  0  0  0  0  0
   -3.1214   -0.8213    5.4288 H   0  0  0  0  0  0  0  0  0  0  0  0
   -1.5305   -0.3726    6.0097 H   0  0  0  0  0  0  0  0  0  0  0  0
   -2.7997    0.8299    5.9150 H   0  0  0  0  0  0  0  0  0  0  0  0
   -2.6795    1.2298    3.3336 N   0  0  0  0  0  0  0  0  0  0  0  0
   -2.4327    1.6559    1.9812 C   0  0  2  0  0  0  0  0  0  0  0  0
   -1.0977    1.0705    1.5400 C   0  0  0  0  0  0  0  0  0  0  0  0
   -0.2256    0.7177    2.3313 O   0  0  0  0  0  0  0  0  0  0  0  0
   -2.4239    3.1726    1.8718 C   0  0  0  0  0  0  0  0  0  0  0  0
   -3.4446    1.6657    3.8454 H   0  0  0  0  0  0  0  0  0  0  0  0
   -3.2368    1.2374    1.3661 H   0  0  0  0  0  0  0  0  0  0  0  0
   -1.6248    3.6099    2.4815 H   0  0  0  0  0  0  0  0  0  0  0  0
   -2.2644    3.4949    0.8375 H   0  0  0  0  0  0  0  0  0  0  0  0
   -3.3741    3.5939    2.2175 H   0  0  0  0  0  0  0  0  0  0  0  0
   -0.9750    1.0274    0.1566 N   0  0  0  0  0  0  0  0  0  0  0  0
    0.2023    0.5266   -0.5070 C   0  0  2  0  0  0  0  0  0  0  0  0
    1.3887    0.8034    0.4094 C   0  0  0  0  0  0  0  0  0  0  0  0
    1.4949    0.3152    1.5325 O   0  0  0  0  0  0  0  0  0  0  0  0
    0.4202    1.1846   -1.8744 C   0  0  0  0  0  0  0  0  0  0  0  0
   -0.6474    0.8169   -2.8758 C   0  0  0  0  0  0  0  0  0  0  0  0
   -0.5764   -0.3986   -3.5565 C   0  0  0  0  0  0  0  0  0  0  0  0
   -1.7047    1.6929   -3.1211 C   0  0  0  0  0  0  0  0  0  0  0  0
   -1.5628   -0.7381   -4.4824 C   0  0  0  0  0  0  0  0  0  0  0  0
   -2.6912    1.3534   -4.0471 C   0  0  0  0  0  0  0  0  0  0  0  0
   -2.6202    0.1379   -4.7277 C   0  0  0  0  0  0  0  0  0  0  0  0
   -3.5819   -0.1930   -5.6322 O   0  0  0  0  0  0  0  0  0  0  0  0
   -1.7582    1.3241   -0.4207 H   0  0  0  0  0  0  0  0  0  0  0  0
    0.0690   -0.5573   -0.6041 H   0  0  0  0  0  0  0  0  0  0  0  0
    1.4082    0.9164   -2.2725 H   0  0  0  0  0  0  0  0  0  0  0  0
    0.4368    2.2781   -1.7756 H   0  0  0  0  0  0  0  0  0  0  0  0
    0.2437   -1.0871   -3.3715 H   0  0  0  0  0  0  0  0  0  0  0  0
   -1.7682    2.6421   -2.5953 H   0  0  0  0  0  0  0  0  0  0  0  0
   -1.5018   -1.6864   -5.0097 H   0  0  0  0  0  0  0  0  0  0  0  0
   -3.5120    2.0402   -4.2340 H   0  0  0  0  0  0  0  0  0  0  0  0
   -4.2451    0.5131   -5.6915 H   0  0  0  0  0  0  0  0  0  0  0  0
    2.3344    1.6186   -0.1968 N   0  0  0  0  0  0  0  0  0  0  0  0
    3.5670    2.0166    0.4443 C   0  0  2  0  0  0  0  0  0  0  0  0
    3.2250    2.5572    1.8265 C   0  0  0  0  0  0  0  0  0  0  0  0
    2.1130    2.9906    2.1209 O   0  0  0  0  0  0  0  0  0  0  0  0
    4.3075    3.0590   -0.3790 C   0  0  0  0  0  0  0  0  0  0  0  0
    2.1510    1.9522   -1.1385 H   0  0  0  0  0  0  0  0  0  0  0  0
    4.1770    1.1124    0.5459 H   0  0  0  0  0  0  0  0  0  0  0  0
    3.7119    3.9722   -0.4916 H   0  0  0  0  0  0  0  0  0  0  0  0
    5.2548    3.3384    0.0939 H   0  0  0  0  0  0  0  0  0  0  0  0
    4.5265    2.6791   -1.3828 H   0  0  0  0  0  0  0  0  0  0  0  0
    4.3194    2.5385    2.6797 N   0  0  0  0  0  0  0  0  0  0  0  0
    4.2535    3.0116    4.0427 C   0  0  0  0  0  0  0  0  0  0  0  0
    5.1979    2.1439    2.3569 H   0  0  0  0  0  0  0  0  0  0  0  0
    4.5446    4.0718    4.0780 H   0  0  0  0  0  0  0  0  0  0  0  0
    3.2261    2.9008    4.4199 H   0  0  0  0  0  0  0  0  0  0  0  0
    4.9394    2.4221    4.6689 H   0  0  0  0  0  0  0  0  0  0  0  0
 23 25  2  0  0  0  0
 22 23  1  0  0  0  0
 24 26  1  0  0  0  0
 22 24  2  0  0  0  0
 25 27  1  0  0  0  0
 26 27  2  0  0  0  0
 21 22  1  0  0  0  0
 27 28  1  0  0  0  0
  1  3  1  0  0  0  0
  1  7  1  0  0  0  0
  1  2  2  0  0  0  0
 39 40  1  0  0  0  0
 40 48  1  0  0  0  0
 40 41  2  0  0  0  0
  8  9  1  0  0  0  0
  9 17  1  0  0  0  0
  9 10  2  0  0  0  0
 18 19  1  0  0  0  0
 19 38  1  0  0  0  0
 19 20  2  0  0  0  0
 39 42  1  0  0  0  0
  8 11  1  0  0  0  0
 48 49  1  0  0  0  0
 18 21  1  0  0  0  0
 38 39  1  0  0  0  0
  7  8  1  0  0  0  0
 17 18  1  0  0  0  0
 23 33  1  0  0  0  0
 24 34  1  0  0  0  0
 25 35  1  0  0  0  0
 26 36  1  0  0  0  0
  3  4  1  0  0  0  0
  3  5  1  0  0  0  0
  3  6  1  0  0  0  0
 42 45  1  0  0  0  0
 42 46  1  0  0  0  0
 42 47  1  0  0  0  0
 11 14  1  0  0  0  0
 11 15  1  0  0  0  0
 11 16  1  0  0  0  0
 49 51  1  0  0  0  0
 49 52  1  0  0  0  0
 49 53  1  0  0  0  0
 21 31  1  0  0  0  0
 21 32  1  0  0  0  0
 39 44  1  0  0  0  0
  8 13  1  0  0  0  0
 18 30  1  0  0  0  0
 48 50  1  0  0  0  0
  7 12  1  0  0  0  0
 38 43  1  0  0  0  0
 17 29  1  0  0  0  0
 28 37  1  0  0  0  0
M  END
$$$$

  -OEChem-05262214473D

 53 53  0     1  0  0  0  0  0999 V2000
   -1.9298    0.2574    3.9747 C   0  0  0  0  0  0  0  0  0  0  0  0
   -0.9825   -0.3573    3.4990 O   0  0  0  0  0  0  0  0  0  0  0  0
   -2.3617   -0.0250    5.3754 C   0  0  0  0  0  0  0  0  0  0  0  0
   -3.1214   -0.8213    5.4288 H   0  0  0  0  0  0  0  0  0  0  0  0
   -1.5305   -0.3726    6.0097 H   0  0  0  0  0  0  0  0  0  0  0  0
   -2.7997    0.8299    5.9150 H   0  0  0  0  0  0  0  0  0  0  0  0
   -2.6795    1.2298    3.3336 N   0  0  0  0  0  0  0  0  0  0  0  0
   -2.4327    1.6559    1.9812 C   0  0  2  0  0  0  0  0  0  0  0  0
   -1.0977    1.0705    1.5400 C   0  0  0  0  0  0  0  0  0  0  0  0
   -0.2256    0.7177    2.3313 O   0  0  0  0  0  0  0  0  0  0  0  0
   -2.4239    3.1726    1.8718 C   0  0  0  0  0  0  0  0  0  0  0  0
   -3.4446    1.6657    3.8454 H   0  0  0  0  0  0  0  0  0  0  0  0
   -3.2368    1.2374    1.3661 H   0  0  0  0  0  0  0  0  0  0  0  0
   -1.6248    3.6099    2.4815 H   0  0  0  0  0  0  0  0  0  0  0  0
   -2.2644    3.4949    0.8375 H   0  0  0  0  0  0  0  0  0  0  0  0
   -3.3741    3.5939    2.2175 H   0  0  0  0  0  0  0  0  0  0  0  0
   -0.9750    1.0274    0.1566 N   0  0  0  0  0  0  0  0  0  0  0  0
    0.2023    0.5266   -0.5070 C   0  0  2  0  0  0  0  0  0  0  0  0
    1.3887    0.8034    0.4094 C   0  0  0  0  0  0  0  0  0  0  0  0
    1.6378    0.1262    1.4046 O   0  0  0  0  0  0  0  0  0  0  0  0
    0.4202    1.1846   -1.8744 C   0  0  0  0  0  0  0  0  0  0  0  0
   -0.6474    0.8169   -2.8758 C   0  0  0  0  0  0  0  0  0  0  0  0
   -0.5764   -0.3986   -3.5565 C   0  0  0  0  0  0  0  0  0  0  0  0
   -1.7047    1.6929   -3.1211 C   0  0  0  0  0  0  0  0  0  0  0  0
   -1.5628   -0.7381   -4.4824 C   0  0  0  0  0  0  0  0  0  0  0  0
   -2.6912    1.3534   -4.0471 C   0  0  0  0  0  0  0  0  0  0  0  0
   -2.6202    0.1379   -4.7277 C   0  0  0  0  0  0  0  0  0  0  0  0
   -3.5819   -0.1930   -5.6322 O   0  0  0  0  0  0  0  0  0  0  0  0
   -1.7582    1.3241   -0.4207 H   0  0  0  0  0  0  0  0  0  0  0  0
    0.0690   -0.5573   -0.6041 H   0  0  0  0  0  0  0  0  0  0  0  0
    1.4082    0.9164   -2.2725 H   0  0  0  0  0  0  0  0  0  0  0  0
    0.4368    2.2781   -1.7756 H   0  0  0  0  0  0  0  0  0  0  0  0
    0.2437   -1.0871   -3.3715 H   0  0  0  0  0  0  0  0  0  0  0  0
   -1.7682    2.6421   -2.5953 H   0  0  0  0  0  0  0  0  0  0  0  0
   -1.5018   -1.6864   -5.0097 H   0  0  0  0  0  0  0  0  0  0  0  0
   -3.5120    2.0402   -4.2340 H   0  0  0  0  0  0  0  0  0  0  0  0
   -4.2451    0.5131   -5.6915 H   0  0  0  0  0  0  0  0  0  0  0  0
    2.1607    1.8633   -0.0458 N   0  0  0  0  0  0  0  0  0  0  0  0
    3.3570    2.3191    0.6248 C   0  0  2  0  0  0  0  0  0  0  0  0
    3.0250    2.5137    2.0984 C   0  0  0  0  0  0  0  0  0  0  0  0
    1.8812    2.6963    2.5098 O   0  0  0  0  0  0  0  0  0  0  0  0
    3.8786    3.6087    0.0102 C   0  0  0  0  0  0  0  0  0  0  0  0
    1.8702    2.3427   -0.8929 H   0  0  0  0  0  0  0  0  0  0  0  0
    4.1016    1.5225    0.5197 H   0  0  0  0  0  0  0  0  0  0  0  0
    3.1462    4.4185    0.1060 H   0  0  0  0  0  0  0  0  0  0  0  0
    4.8008    3.9374    0.5007 H   0  0  0  0  0  0  0  0  0  0  0  0
    4.0887    3.4750   -1.0564 H   0  0  0  0  0  0  0  0  0  0  0  0
    4.1613    2.5026    2.8952 N   0  0  0  0  0  0  0  0  0  0  0  0
    4.1107    2.6800    4.3277 C   0  0  0  0  0  0  0  0  0  0  0  0
    5.0672    2.3257    2.4713 H   0  0  0  0  0  0  0  0  0  0  0  0
    4.2403    3.7450    4.5706 H   0  0  0  0  0  0  0  0  0  0  0  0
    3.1376    2.3335    4.7058 H   0  0  0  0  0  0  0  0  0  0  0  0
    4.9157    2.0962    4.7980 H   0  0  0  0  0  0  0  0  0  0  0  0
 23 25  2  0  0  0  0
 22 23  1  0  0  0  0
 24 26  1  0  0  0  0
 22 24  2  0  0  0  0
 25 27  1  0  0  0  0
 26 27  2  0  0  0  0
 21 22  1  0  0  0  0
 27 28  1  0  0  0  0
  1  3  1  0  0  0  0
  1  7  1  0  0  0  0
  1  2  2  0  0  0  0
 39 40  1  0  0  0  0
 40 48  1  0  0  0  0
 40 41  2  0  0  0  0
  8  9  1  0  0  0  0
  9 17  1  0  0  0  0
  9 10  2  0  0  0  0
 18 19  1  0  0  0  0
 19 38  1  0  0  0  0
 19 20  2  0  0  0  0
 39 42  1  0  0  0  0
  8 11  1  0  0  0  0
 48 49  1  0  0  0  0
 18 21  1  0  0  0  0
 38 39  1  0  0  0  0
  7  8  1  0  0  0  0
 17 18  1  0  0  0  0
 23 33  1  0  0  0  0
 24 34  1  0  0  0  0
 25 35  1  0  0  0  0
 26 36  1  0  0  0  0
  3  4  1  0  0  0  0
  3  5  1  0  0  0  0
  3  6  1  0  0  0  0
 42 45  1  0  0  0  0
 42 46  1  0  0  0  0
 42 47  1  0  0  0  0
 11 14  1  0  0  0  0
 11 15  1  0  0  0  0
 11 16  1  0  0  0  0
 49 51  1  0  0  0  0
 49 52  1  0  0  0  0
 49 53  1  0  0  0  0
 21 31  1  0  0  0  0
 21 32  1  0  0  0  0
 39 44  1  0  0  0  0
  8 13  1  0  0  0  0
 18 30  1  0  0  0  0
 48 50  1  0  0  0  0
  7 12  1  0  0  0  0
 38 43  1  0  0  0  0
 17 29  1  0  0  0  0
 28 37  1  0  0  0  0
M  END
$$$$

  -OEChem-05262214473D

 53 53  0     1  0  0  0  0  0999 V2000
   -1.9298    0.2574    3.9747 C   0  0  0  0  0  0  0  0  0  0  0  0
   -0.9825   -0.3573    3.4990 O   0  0  0  0  0  0  0  0  0  0  0  0
   -2.3617   -0.0250    5.3754 C   0  0  0  0  0  0  0  0  0  0  0  0
   -3.1214   -0.8213    5.4288 H   0  0  0  0  0  0  0  0  0  0  0  0
   -1.5305   -0.3726    6.0097 H   0  0  0  0  0  0  0  0  0  0  0  0
   -2.7997    0.8299    5.9150 H   0  0  0  0  0  0  0  0  0  0  0  0
   -2.6795    1.2298    3.3336 N   0  0  0  0  0  0  0  0  0  0  0  0
   -2.4327    1.6559    1.9812 C   0  0  2  0  0  0  0  0  0  0  0  0
   -1.0977    1.0705    1.5400 C   0  0  0  0  0  0  0  0  0  0  0  0
   -0.2256    0.7177    2.3313 O   0  0  0  0  0  0  0  0  0  0  0  0
   -2.4239    3.1726    1.8718 C   0  0  0  0  0  0  0  0  0  0  0  0
   -3.4446    1.6657    3.8454 H   0  0  0  0  0  0  0  0  0  0  0  0
   -3.2368    1.2374    1.3661 H   0  0  0  0  0  0  0  0  0  0  0  0
   -1.6248    3.6099    2.4815 H   0  0  0  0  0  0  0  0  0  0  0  0
   -2.2644    3.4949    0.8375 H   0  0  0  0  0  0  0  0  0  0  0  0
   -3.3741    3.5939    2.2175 H   0  0  0  0  0  0  0  0  0  0  0  0
   -0.9750    1.0274    0.1566 N   0  0  0  0  0  0  0  0  0  0  0  0
    0.2023    0.5266   -0.5070 C   0  0  2  0  0  0  0  0  0  0  0  0
    1.3887    0.8034    0.4094 C   0  0  0  0  0  0  0  0  0  0  0  0
    1.7992   -0.0082    1.2363 O   0  0  0  0  0  0  0  0  0  0  0  0
    0.4202    1.1846   -1.8744 C   0  0  0  0  0  0  0  0  0  0  0  0
   -0.6474    0.8169   -2.8758 C   0  0  0  0  0  0  0  0  0  0  0  0
   -0.5764   -0.3986   -3.5565 C   0  0  0  0  0  0  0  0  0  0  0  0
   -1.7047    1.6929   -3.1211 C   0  0  0  0  0  0  0  0  0  0  0  0
   -1.5628   -0.7381   -4.4824 C   0  0  0  0  0  0  0  0  0  0  0  0
   -2.6912    1.3534   -4.0471 C   0  0  0  0  0  0  0  0  0  0  0  0
   -2.6202    0.1379   -4.7277 C   0  0  0  0  0  0  0  0  0  0  0  0
   -3.5819   -0.1930   -5.6322 O   0  0  0  0  0  0  0  0  0  0  0  0
   -1.7582    1.3241   -0.4207 H   0  0  0  0  0  0  0  0  0  0  0  0
    0.0690   -0.5573   -0.6041 H   0  0  0  0  0  0  0  0  0  0  0  0
    1.4082    0.9164   -2.2725 H   0  0  0  0  0  0  0  0  0  0  0  0
    0.4368    2.2781   -1.7756 H   0  0  0  0  0  0  0  0  0  0  0  0
    0.2437   -1.0871   -3.3715 H   0  0  0  0  0  0  0  0  0  0  0  0
   -1.7682    2.6421   -2.5953 H   0  0  0  0  0  0  0  0  0  0  0  0
   -1.5018   -1.6864   -5.0097 H   0  0  0  0  0  0  0  0  0  0  0  0
   -3.5120    2.0402   -4.2340 H   0  0  0  0  0  0  0  0  0  0  0  0
   -4.2451    0.5131   -5.6915 H   0  0  0  0  0  0  0  0  0  0  0  0
    1.9619    2.0422    0.1576 N   0  0  0  0  0  0  0  0  0  0  0  0
    3.1156    2.5423    0.8700 C   0  0  2  0  0  0  0  0  0  0  0  0
    2.8515    2.3859    2.3617 C   0  0  0  0  0  0  0  0  0  0  0  0
    1.7213    2.2977    2.8372 O   0  0  0  0  0  0  0  0  0  0  0  0
    3.3971    3.9945    0.5171 C   0  0  0  0  0  0  0  0  0  0  0  0
    1.5497    2.6266   -0.5637 H   0  0  0  0  0  0  0  0  0  0  0  0
    3.9636    1.9121    0.5806 H   0  0  0  0  0  0  0  0  0  0  0  0
    2.5584    4.6413    0.7996 H   0  0  0  0  0  0  0  0  0  0  0  0
    4.2882    4.3634    1.0357 H   0  0  0  0  0  0  0  0  0  0  0  0
    3.5574    4.1098   -0.5603 H   0  0  0  0  0  0  0  0  0  0  0  0
    4.0243    2.3999    3.1036 N   0  0  0  0  0  0  0  0  0  0  0  0
    4.0378    2.2801    4.5429 C   0  0  0  0  0  0  0  0  0  0  0  0
    4.9180    2.4579    2.6245 H   0  0  0  0  0  0  0  0  0  0  0  0
    4.0203    3.2827    4.9950 H   0  0  0  0  0  0  0  0  0  0  0  0
    3.1537    1.7142    4.8719 H   0  0  0  0  0  0  0  0  0  0  0  0
    4.9496    1.7517    4.8582 H   0  0  0  0  0  0  0  0  0  0  0  0
 23 25  2  0  0  0  0
 22 23  1  0  0  0  0
 24 26  1  0  0  0  0
 22 24  2  0  0  0  0
 25 27  1  0  0  0  0
 26 27  2  0  0  0  0
 21 22  1  0  0  0  0
 27 28  1  0  0  0  0
  1  3  1  0  0  0  0
  1  7  1  0  0  0  0
  1  2  2  0  0  0  0
 39 40  1  0  0  0  0
 40 48  1  0  0  0  0
 40 41  2  0  0  0  0
  8  9  1  0  0  0  0
  9 17  1  0  0  0  0
  9 10  2  0  0  0  0
 18 19  1  0  0  0  0
 19 38  1  0  0  0  0
 19 20  2  0  0  0  0
 39 42  1  0  0  0  0
  8 11  1  0  0  0  0
 48 49  1  0  0  0  0
 18 21  1  0  0  0  0
 38 39  1  0  0  0  0
  7  8  1  0  0  0  0
 17 18  1  0  0  0  0
 23 33  1  0  0  0  0
 24 34  1  0  0  0  0
 25 35  1  0  0  0  0
 26 36  1  0  0  0  0
  3  4  1  0  0  0  0
  3  5  1  0  0  0  0
  3  6  1  0  0  0  0
 42 45  1  0  0  0  0
 42 46  1  0  0  0  0
 42 47  1  0  0  0  0
 11 14  1  0  0  0  0
 11 15  1  0  0  0  0
 11 16  1  0  0  0  0
 49 51  1  0  0  0  0
 49 52  1  0  0  0  0
 49 53  1  0  0  0  0
 21 31  1  0  0  0  0
 21 32  1  0  0  0  0
 39 44  1  0  0  0  0
  8 13  1  0  0  0  0
 18 30  1  0  0  0  0
 48 50  1  0  0  0  0
  7 12  1  0  0  0  0
 38 43  1  0  0  0  0
 17 29  1  0  0  0  0
 28 37  1  0  0  0  0
M  END
$$$$

  -OEChem-05262214473D

 53 53  0     1  0  0  0  0  0999 V2000
   -1.9298    0.2574    3.9747 C   0  0  0  0  0  0  0  0  0  0  0  0
   -0.9825   -0.3573    3.4990 O   0  0  0  0  0  0  0  0  0  0  0  0
   -2.3617   -0.0250    5.3754 C   0  0  0  0  0  0  0  0  0  0  0  0
   -3.1214   -0.8213    5.4288 H   0  0  0  0  0  0  0  0  0  0  0  0
   -1.5305   -0.3726    6.0097 H   0  0  0  0  0  0  0  0  0  0  0  0
   -2.7997    0.8299    5.9150 H   0  0  0  0  0  0  0  0  0  0  0  0
   -2.6795    1.2298    3.3336 N   0  0  0  0  0  0  0  0  0  0  0  0
   -2.4327    1.6559    1.9812 C   0  0  2  0  0  0  0  0  0  0  0  0
   -1.0977    1.0705    1.5400 C   0  0  0  0  0  0  0  0  0  0  0  0
   -0.2256    0.7177    2.3313 O   0  0  0  0  0  0  0  0  0  0  0  0
   -2.4239    3.1726    1.8718 C   0  0  0  0  0  0  0  0  0  0  0  0
   -3.4446    1.6657    3.8454 H   0  0  0  0  0  0  0  0  0  0  0  0
   -3.2368    1.2374    1.3661 H   0  0  0  0  0  0  0  0  0  0  0  0
   -1.6248    3.6099    2.4815 H   0  0  0  0  0  0  0  0  0  0  0  0
   -2.2644    3.4949    0.8375 H   0  0  0  0  0  0  0  0  0  0  0  0
   -3.3741    3.5939    2.2175 H   0  0  0  0  0  0  0  0  0  0  0  0
   -0.9750    1.0274    0.1566 N   0  0  0  0  0  0  0  0  0  0  0  0
    0.2023    0.5266   -0.5070 C   0  0  2  0  0  0  0  0  0  0  0  0
    1.3887    0.8034    0.4094 C   0  0  0  0  0  0  0  0  0  0  0  0
    1.9681   -0.0791    1.0390 O   0  0  0  0  0  0  0  0  0  0  0  0
    0.4202    1.1846   -1.8744 C   0  0  0  0  0  0  0  0  0  0  0  0
   -0.6474    0.8169   -2.8758 C   0  0  0  0  0  0  0  0  0  0  0  0
   -0.5764   -0.3986   -3.5565 C   0  0  0  0  0  0  0  0  0  0  0  0
   -1.7047    1.6929   -3.1211 C   0  0  0  0  0  0  0  0  0  0  0  0
   -1.5628   -0.7381   -4.4824 C   0  0  0  0  0  0  0  0  0  0  0  0
   -2.6912    1.3534   -4.0471 C   0  0  0  0  0  0  0  0  0  0  0  0
   -2.6202    0.1379   -4.7277 C   0  0  0  0  0  0  0  0  0  0  0  0
   -3.5819   -0.1930   -5.6322 O   0  0  0  0  0  0  0  0  0  0  0  0
   -1.7582    1.3241   -0.4207 H   0  0  0  0  0  0  0  0  0  0  0  0
    0.0690   -0.5573   -0.6041 H   0  0  0  0  0  0  0  0  0  0  0  0
    1.4082    0.9164   -2.2725 H   0  0  0  0  0  0  0  0  0  0  0  0
    0.4368    2.2781   -1.7756 H   0  0  0  0  0  0  0  0  0  0  0  0
    0.2437   -1.0871   -3.3715 H   0  0  0  0  0  0  0  0  0  0  0  0
   -1.7682    2.6421   -2.5953 H   0  0  0  0  0  0  0  0  0  0  0  0
   -1.5018   -1.6864   -5.0097 H   0  0  0  0  0  0  0  0  0  0  0  0
   -3.5120    2.0402   -4.2340 H   0  0  0  0  0  0  0  0  0  0  0  0
   -4.2451    0.5131   -5.6915 H   0  0  0  0  0  0  0  0  0  0  0  0
    1.7516    2.1431    0.3994 N   0  0  0  0  0  0  0  0  0  0  0  0
    2.8592    2.6710    1.1630 C   0  0  2  0  0  0  0  0  0  0  0  0
    2.7161    2.1824    2.5984 C   0  0  0  0  0  0  0  0  0  0  0  0
    1.6444    1.8218    3.0806 O   0  0  0  0  0  0  0  0  0  0  0  0
    2.8958    4.1902    1.1070 C   0  0  0  0  0  0  0  0  0  0  0  0
    1.2114    2.7848   -0.1735 H   0  0  0  0  0  0  0  0  0  0  0  0
    3.7727    2.2547    0.7244 H   0  0  0  0  0  0  0  0  0  0  0  0
    1.9886    4.6253    1.5421 H   0  0  0  0  0  0  0  0  0  0  0  0
    3.7519    4.5873    1.6624 H   0  0  0  0  0  0  0  0  0  0  0  0
    2.9687    4.5404    0.0717 H   0  0  0  0  0  0  0  0  0  0  0  0
    3.9177    2.2373    3.2907 N   0  0  0  0  0  0  0  0  0  0  0  0
    4.0397    1.8391    4.6736 C   0  0  0  0  0  0  0  0  0  0  0  0
    4.7606    2.5316    2.8061 H   0  0  0  0  0  0  0  0  0  0  0  0
    3.8997    2.7165    5.3221 H   0  0  0  0  0  0  0  0  0  0  0  0
    3.2735    1.0850    4.9069 H   0  0  0  0  0  0  0  0  0  0  0  0
    5.0388    1.4120    4.8453 H   0  0  0  0  0  0  0  0  0  0  0  0
 23 25  2  0  0  0  0
 22 23  1  0  0  0  0
 24 26  1  0  0  0  0
 22 24  2  0  0  0  0
 25 27  1  0  0  0  0
 26 27  2  0  0  0  0
 21 22  1  0  0  0  0
 27 28  1  0  0  0  0
  1  3  1  0  0  0  0
  1  7  1  0  0  0  0
  1  2  2  0  0  0  0
 39 40  1  0  0  0  0
 40 48  1  0  0  0  0
 40 41  2  0  0  0  0
  8  9  1  0  0  0  0
  9 17  1  0  0  0  0
  9 10  2  0  0  0  0
 18 19  1  0  0  0  0
 19 38  1  0  0  0  0
 19 20  2  0  0  0  0
 39 42  1  0  0  0  0
  8 11  1  0  0  0  0
 48 49  1  0  0  0  0
 18 21  1  0  0  0  0
 38 39  1  0  0  0  0
  7  8  1  0  0  0  0
 17 18  1  0  0  0  0
 23 33  1  0  0  0  0
 24 34  1  0  0  0  0
 25 35  1  0  0  0  0
 26 36  1  0  0  0  0
  3  4  1  0  0  0  0
  3  5  1  0  0  0  0
  3  6  1  0  0  0  0
 42 45  1  0  0  0  0
 42 46  1  0  0  0  0
 42 47  1  0  0  0  0
 11 14  1  0  0  0  0
 11 15  1  0  0  0  0
 11 16  1  0  0  0  0
 49 51  1  0  0  0  0
 49 52  1  0  0  0  0
 49 53  1  0  0  0  0
 21 31  1  0  0  0  0
 21 32  1  0  0  0  0
 39 44  1  0  0  0  0
  8 13  1  0  0  0  0
 18 30  1  0  0  0  0
 48 50  1  0  0  0  0
  7 12  1  0  0  0  0
 38 43  1  0  0  0  0
 17 29  1  0  0  0  0
 28 37  1  0  0  0  0
M  END
$$$$

  -OEChem-05262214473D

 53 53  0     1  0  0  0  0  0999 V2000
   -1.9298    0.2574    3.9747 C   0  0  0  0  0  0  0  0  0  0  0  0
   -0.9825   -0.3573    3.4990 O   0  0  0  0  0  0  0  0  0  0  0  0
   -2.3617   -0.0250    5.3754 C   0  0  0  0  0  0  0  0  0  0  0  0
   -3.1214   -0.8213    5.4288 H   0  0  0  0  0  0  0  0  0  0  0  0
   -1.5305   -0.3726    6.0097 H   0  0  0  0  0  0  0  0  0  0  0  0
   -2.7997    0.8299    5.9150 H   0  0  0  0  0  0  0  0  0  0  0  0
   -2.6795    1.2298    3.3336 N   0  0  0  0  0  0  0  0  0  0  0  0
   -2.4327    1.6559    1.9812 C   0  0  2  0  0  0  0  0  0  0  0  0
   -1.0977    1.0705    1.5400 C   0  0  0  0  0  0  0  0  0  0  0  0
   -0.2256    0.7177    2.3313 O   0  0  0  0  0  0  0  0  0  0  0  0
   -2.4239    3.1726    1.8718 C   0  0  0  0  0  0  0  0  0  0  0  0
   -3.4446    1.6657    3.8454 H   0  0  0  0  0  0  0  0  0  0  0  0
   -3.2368    1.2374    1.3661 H   0  0  0  0  0  0  0  0  0  0  0  0
   -1.6248    3.6099    2.4815 H   0  0  0  0  0  0  0  0  0  0  0  0
   -2.2644    3.4949    0.8375 H   0  0  0  0  0  0  0  0  0  0  0  0
   -3.3741    3.5939    2.2175 H   0  0  0  0  0  0  0  0  0  0  0  0
   -0.9750    1.0274    0.1566 N   0  0  0  0  0  0  0  0  0  0  0  0
    0.2023    0.5266   -0.5070 C   0  0  2  0  0  0  0  0  0  0  0  0
    1.3887    0.8034    0.4094 C   0  0  0  0  0  0  0  0  0  0  0  0
    2.1330   -0.0816    0.8263 O   0  0  0  0  0  0  0  0  0  0  0  0
    0.4202    1.1846   -1.8744 C   0  0  0  0  0  0  0  0  0  0  0  0
   -0.6474    0.8169   -2.8758 C   0  0  0  0  0  0  0  0  0  0  0  0
   -0.5764   -0.3986   -3.5565 C   0  0  0  0  0  0  0  0  0  0  0  0
   -1.7047    1.6929   -3.1211 C   0  0  0  0  0  0  0  0  0  0  0  0
   -1.5628   -0.7381   -4.4824 C   0  0  0  0  0  0  0  0  0  0  0  0
   -2.6912    1.3534   -4.0471 C   0  0  0  0  0  0  0  0  0  0  0  0
   -2.6202    0.1379   -4.7277 C   0  0  0  0  0  0  0  0  0  0  0  0
   -3.5819   -0.1930   -5.6322 O   0  0  0  0  0  0  0  0  0  0  0  0
   -1.7582    1.3241   -0.4207 H   0  0  0  0  0  0  0  0  0  0  0  0
    0.0690   -0.5573   -0.6041 H   0  0  0  0  0  0  0  0  0  0  0  0
    1.4082    0.9164   -2.2725 H   0  0  0  0  0  0  0  0  0  0  0  0
    0.4368    2.2781   -1.7756 H   0  0  0  0  0  0  0  0  0  0  0  0
    0.2437   -1.0871   -3.3715 H   0  0  0  0  0  0  0  0  0  0  0  0
   -1.7682    2.6421   -2.5953 H   0  0  0  0  0  0  0  0  0  0  0  0
   -1.5018   -1.6864   -5.0097 H   0  0  0  0  0  0  0  0  0  0  0  0
   -3.5120    2.0402   -4.2340 H   0  0  0  0  0  0  0  0  0  0  0  0
   -4.2451    0.5131   -5.6915 H   0  0  0  0  0  0  0  0  0  0  0  0
    1.5441    2.1591    0.6632 N   0  0  0  0  0  0  0  0  0  0  0  0
    2.6053    2.6963    1.4841 C   0  0  2  0  0  0  0  0  0  0  0  0
    2.6281    1.9171    2.7925 C   0  0  0  0  0  0  0  0  0  0  0  0
    1.6555    1.3012    3.2234 O   0  0  0  0  0  0  0  0  0  0  0  0
    2.4088    4.1824    1.7399 C   0  0  0  0  0  0  0  0  0  0  0  0
    0.8784    2.8063    0.2512 H   0  0  0  0  0  0  0  0  0  0  0  0
    3.5416    2.5270    0.9412 H   0  0  0  0  0  0  0  0  0  0  0  0
    1.4756    4.3717    2.2829 H   0  0  0  0  0  0  0  0  0  0  0  0
    3.2285    4.5939    2.3380 H   0  0  0  0  0  0  0  0  0  0  0  0
    2.3628    4.7375    0.7967 H   0  0  0  0  0  0  0  0  0  0  0  0
    3.8489    2.0261    3.4436 N   0  0  0  0  0  0  0  0  0  0  0  0
    4.1163    1.3871    4.7110 C   0  0  0  0  0  0  0  0  0  0  0  0
    4.6055    2.5416    3.0038 H   0  0  0  0  0  0  0  0  0  0  0  0
    3.8867    2.0850    5.5297 H   0  0  0  0  0  0  0  0  0  0  0  0
    3.4888    0.4889    4.8082 H   0  0  0  0  0  0  0  0  0  0  0  0
    5.1771    1.1004    4.7603 H   0  0  0  0  0  0  0  0  0  0  0  0
 23 25  2  0  0  0  0
 22 23  1  0  0  0  0
 24 26  1  0  0  0  0
 22 24  2  0  0  0  0
 25 27  1  0  0  0  0
 26 27  2  0  0  0  0
 21 22  1  0  0  0  0
 27 28  1  0  0  0  0
  1  3  1  0  0  0  0
  1  7  1  0  0  0  0
  1  2  2  0  0  0  0
 39 40  1  0  0  0  0
 40 48  1  0  0  0  0
 40 41  2  0  0  0  0
  8  9  1  0  0  0  0
  9 17  1  0  0  0  0
  9 10  2  0  0  0  0
 18 19  1  0  0  0  0
 19 38  1  0  0  0  0
 19 20  2  0  0  0  0
 39 42  1  0  0  0  0
  8 11  1  0  0  0  0
 48 49  1  0  0  0  0
 18 21  1  0  0  0  0
 38 39  1  0  0  0  0
  7  8  1  0  0  0  0
 17 18  1  0  0  0  0
 23 33  1  0  0  0  0
 24 34  1  0  0  0  0
 25 35  1  0  0  0  0
 26 36  1  0  0  0  0
  3  4  1  0  0  0  0
  3  5  1  0  0  0  0
  3  6  1  0  0  0  0
 42 45  1  0  0  0  0
 42 46  1  0  0  0  0
 42 47  1  0  0  0  0
 11 14  1  0  0  0  0
 11 15  1  0  0  0  0
 11 16  1  0  0  0  0
 49 51  1  0  0  0  0
 49 52  1  0  0  0  0
 49 53  1  0  0  0  0
 21 31  1  0  0  0  0
 21 32  1  0  0  0  0
 39 44  1  0  0  0  0
  8 13  1  0  0  0  0
 18 30  1  0  0  0  0
 48 50  1  0  0  0  0
  7 12  1  0  0  0  0
 38 43  1  0  0  0  0
 17 29  1  0  0  0  0
 28 37  1  0  0  0  0
M  END
$$$$

  -OEChem-05262214473D

 53 53  0     1  0  0  0  0  0999 V2000
   -1.9298    0.2574    3.9747 C   0  0  0  0  0  0  0  0  0  0  0  0
   -0.9825   -0.3573    3.4990 O   0  0  0  0  0  0  0  0  0  0  0  0
   -2.3617   -0.0250    5.3754 C   0  0  0  0  0  0  0  0  0  0  0  0
   -3.1214   -0.8213    5.4288 H   0  0  0  0  0  0  0  0  0  0  0  0
   -1.5305   -0.3726    6.0097 H   0  0  0  0  0  0  0  0  0  0  0  0
   -2.7997    0.8299    5.9150 H   0  0  0  0  0  0  0  0  0  0  0  0
   -2.6795    1.2298    3.3336 N   0  0  0  0  0  0  0  0  0  0  0  0
   -2.4327    1.6559    1.9812 C   0  0  2  0  0  0  0  0  0  0  0  0
   -1.0977    1.0705    1.5400 C   0  0  0  0  0  0  0  0  0  0  0  0
   -0.2256    0.7177    2.3313 O   0  0  0  0  0  0  0  0  0  0  0  0
   -2.4239    3.1726    1.8718 C   0  0  0  0  0  0  0  0  0  0  0  0
   -3.4446    1.6657    3.8454 H   0  0  0  0  0  0  0  0  0  0  0  0
   -3.2368    1.2374    1.3661 H   0  0  0  0  0  0  0  0  0  0  0  0
   -1.6248    3.6099    2.4815 H   0  0  0  0  0  0  0  0  0  0  0  0
   -2.2644    3.4949    0.8375 H   0  0  0  0  0  0  0  0  0  0  0  0
   -3.3741    3.5939    2.2175 H   0  0  0  0  0  0  0  0  0  0  0  0
   -0.9750    1.0274    0.1566 N   0  0  0  0  0  0  0  0  0  0  0  0
    0.2023    0.5266   -0.5070 C   0  0  2  0  0  0  0  0  0  0  0  0
    1.3887    0.8034    0.4094 C   0  0  0  0  0  0  0  0  0  0  0  0
    2.2826   -0.0155    0.6126 O   0  0  0  0  0  0  0  0  0  0  0  0
    0.4202    1.1846   -1.8744 C   0  0  0  0  0  0  0  0  0  0  0  0
   -0.6474    0.8169   -2.8758 C   0  0  0  0  0  0  0  0  0  0  0  0
   -0.5764   -0.3986   -3.5565 C   0  0  0  0  0  0  0  0  0  0  0  0
   -1.7047    1.6929   -3.1211 C   0  0  0  0  0  0  0  0  0  0  0  0
   -1.5628   -0.7381   -4.4824 C   0  0  0  0  0  0  0  0  0  0  0  0
   -2.6912    1.3534   -4.0471 C   0  0  0  0  0  0  0  0  0  0  0  0
   -2.6202    0.1379   -4.7277 C   0  0  0  0  0  0  0  0  0  0  0  0
   -3.5819   -0.1930   -5.6322 O   0  0  0  0  0  0  0  0  0  0  0  0
   -1.7582    1.3241   -0.4207 H   0  0  0  0  0  0  0  0  0  0  0  0
    0.0690   -0.5573   -0.6041 H   0  0  0  0  0  0  0  0  0  0  0  0
    1.4082    0.9164   -2.2725 H   0  0  0  0  0  0  0  0  0  0  0  0
    0.4368    2.2781   -1.7756 H   0  0  0  0  0  0  0  0  0  0  0  0
    0.2437   -1.0871   -3.3715 H   0  0  0  0  0  0  0  0  0  0  0  0
   -1.7682    2.6421   -2.5953 H   0  0  0  0  0  0  0  0  0  0  0  0
   -1.5018   -1.6864   -5.0097 H   0  0  0  0  0  0  0  0  0  0  0  0
   -3.5120    2.0402   -4.2340 H   0  0  0  0  0  0  0  0  0  0  0  0
   -4.2451    0.5131   -5.6915 H   0  0  0  0  0  0  0  0  0  0  0  0
    1.3535    2.0892    0.9310 N   0  0  0  0  0  0  0  0  0  0  0  0
    2.3712    2.6166    1.8113 C   0  0  2  0  0  0  0  0  0  0  0  0
    2.5935    1.6081    2.9306 C   0  0  0  0  0  0  0  0  0  0  0  0
    1.7539    0.7712    3.2560 O   0  0  0  0  0  0  0  0  0  0  0  0
    1.9693    3.9717    2.3724 C   0  0  0  0  0  0  0  0  0  0  0  0
    0.5733    2.6897    0.6814 H   0  0  0  0  0  0  0  0  0  0  0  0
    3.2863    2.7104    1.2164 H   0  0  0  0  0  0  0  0  0  0  0  0
    1.0544    3.8976    2.9715 H   0  0  0  0  0  0  0  0  0  0  0  0
    2.7537    4.3828    3.0165 H   0  0  0  0  0  0  0  0  0  0  0  0
    1.7809    4.6875    1.5651 H   0  0  0  0  0  0  0  0  0  0  0  0
    3.8224    1.7805    3.5520 N   0  0  0  0  0  0  0  0  0  0  0  0
    4.2623    0.9549    4.6524 C   0  0  0  0  0  0  0  0  0  0  0  0
    4.4635    2.4874    3.2040 H   0  0  0  0  0  0  0  0  0  0  0  0
    3.9822    1.4311    5.6036 H   0  0  0  0  0  0  0  0  0  0  0  0
    3.7848   -0.0336    4.5828 H   0  0  0  0  0  0  0  0  0  0  0  0
    5.3552    0.8381    4.6090 H   0  0  0  0  0  0  0  0  0  0  0  0
 23 25  2  0  0  0  0
 22 23  1  0  0  0  0
 24 26  1  0  0  0  0
 22 24  2  0  0  0  0
 25 27  1  0  0  0  0
 26 27  2  0  0  0  0
 21 22  1  0  0  0  0
 27 28  1  0  0  0  0
  1  3  1  0  0  0  0
  1  7  1  0  0  0  0
  1  2  2  0  0  0  0
 39 40  1  0  0  0  0
 40 48  1  0  0  0  0
 40 41  2  0  0  0  0
  8  9  1  0  0  0  0
  9 17  1  0  0  0  0
  9 10  2  0  0  0  0
 18 19  1  0  0  0  0
 19 38  1  0  0  0  0
 19 20  2  0  0  0  0
 39 42  1  0  0  0  0
  8 11  1  0  0  0  0
 48 49  1  0  0  0  0
 18 21  1  0  0  0  0
 38 39  1  0  0  0  0
  7  8  1  0  0  0  0
 17 18  1  0  0  0  0
 23 33  1  0  0  0  0
 24 34  1  0  0  0  0
 25 35  1  0  0  0  0
 26 36  1  0  0  0  0
  3  4  1  0  0  0  0
  3  5  1  0  0  0  0
  3  6  1  0  0  0  0
 42 45  1  0  0  0  0
 42 46  1  0  0  0  0
 42 47  1  0  0  0  0
 11 14  1  0  0  0  0
 11 15  1  0  0  0  0
 11 16  1  0  0  0  0
 49 51  1  0  0  0  0
 49 52  1  0  0  0  0
 49 53  1  0  0  0  0
 21 31  1  0  0  0  0
 21 32  1  0  0  0  0
 39 44  1  0  0  0  0
  8 13  1  0  0  0  0
 18 30  1  0  0  0  0
 48 50  1  0  0  0  0
  7 12  1  0  0  0  0
 38 43  1  0  0  0  0
 17 29  1  0  0  0  0
 28 37  1  0  0  0  0
M  END
$$$$

  -OEChem-05262214473D

 53 53  0     1  0  0  0  0  0999 V2000
   -1.9298    0.2574    3.9747 C   0  0  0  0  0  0  0  0  0  0  0  0
   -0.9825   -0.3573    3.4990 O   0  0  0  0  0  0  0  0  0  0  0  0
   -2.3617   -0.0250    5.3754 C   0  0  0  0  0  0  0  0  0  0  0  0
   -3.1214   -0.8213    5.4288 H   0  0  0  0  0  0  0  0  0  0  0  0
   -1.5305   -0.3726    6.0097 H   0  0  0  0  0  0  0  0  0  0  0  0
   -2.7997    0.8299    5.9150 H   0  0  0  0  0  0  0  0  0  0  0  0
   -2.6795    1.2298    3.3336 N   0  0  0  0  0  0  0  0  0  0  0  0
   -2.4327    1.6559    1.9812 C   0  0  2  0  0  0  0  0  0  0  0  0
   -1.0977    1.0705    1.5400 C   0  0  0  0  0  0  0  0  0  0  0  0
   -0.2256    0.7177    2.3313 O   0  0  0  0  0  0  0  0  0  0  0  0
   -2.4239    3.1726    1.8718 C   0  0  0  0  0  0  0  0  0  0  0  0
   -3.4446    1.6657    3.8454 H   0  0  0  0  0  0  0  0  0  0  0  0
   -3.2368    1.2374    1.3661 H   0  0  0  0  0  0  0  0  0  0  0  0
   -1.6248    3.6099    2.4815 H   0  0  0  0  0  0  0  0  0  0  0  0
   -2.2644    3.4949    0.8375 H   0  0  0  0  0  0  0  0  0  0  0  0
   -3.3741    3.5939    2.2175 H   0  0  0  0  0  0  0  0  0  0  0  0
   -0.9750    1.0274    0.1566 N   0  0  0  0  0  0  0  0  0  0  0  0
    0.2023    0.5266   -0.5070 C   0  0  2  0  0  0  0  0  0  0  0  0
    1.3887    0.8034    0.4094 C   0  0  0  0  0  0  0  0  0  0  0  0
    2.4069    0.1147    0.4124 O   0  0  0  0  0  0  0  0  0  0  0  0
    0.4202    1.1846   -1.8744 C   0  0  0  0  0  0  0  0  0  0  0  0
   -0.6474    0.8169   -2.8758 C   0  0  0  0  0  0  0  0  0  0  0  0
   -0.5764   -0.3986   -3.5565 C   0  0  0  0  0  0  0  0  0  0  0  0
   -1.7047    1.6929   -3.1211 C   0  0  0  0  0  0  0  0  0  0  0  0
   -1.5628   -0.7381   -4.4824 C   0  0  0  0  0  0  0  0  0  0  0  0
   -2.6912    1.3534   -4.0471 C   0  0  0  0  0  0  0  0  0  0  0  0
   -2.6202    0.1379   -4.7277 C   0  0  0  0  0  0  0  0  0  0  0  0
   -3.5819   -0.1930   -5.6322 O   0  0  0  0  0  0  0  0  0  0  0  0
   -1.7582    1.3241   -0.4207 H   0  0  0  0  0  0  0  0  0  0  0  0
    0.0690   -0.5573   -0.6041 H   0  0  0  0  0  0  0  0  0  0  0  0
    1.4082    0.9164   -2.2725 H   0  0  0  0  0  0  0  0  0  0  0  0
    0.4368    2.2781   -1.7756 H   0  0  0  0  0  0  0  0  0  0  0  0
    0.2437   -1.0871   -3.3715 H   0  0  0  0  0  0  0  0  0  0  0  0
   -1.7682    2.6421   -2.5953 H   0  0  0  0  0  0  0  0  0  0  0  0
   -1.5018   -1.6864   -5.0097 H   0  0  0  0  0  0  0  0  0  0  0  0
   -3.5120    2.0402   -4.2340 H   0  0  0  0  0  0  0  0  0  0  0  0
   -4.2451    0.5131   -5.6915 H   0  0  0  0  0  0  0  0  0  0  0  0
    1.1930    1.9381    1.1845 N   0  0  0  0  0  0  0  0  0  0  0  0
    2.1729    2.4373    2.1222 C   0  0  2  0  0  0  0  0  0  0  0  0
    2.6147    1.2763    3.0034 C   0  0  0  0  0  0  0  0  0  0  0  0
    1.9330    0.2680    3.1761 O   0  0  0  0  0  0  0  0  0  0  0  0
    1.6074    3.5723    2.9616 C   0  0  0  0  0  0  0  0  0  0  0  0
    0.3169    2.4430    1.0877 H   0  0  0  0  0  0  0  0  0  0  0  0
    3.0241    2.7924    1.5311 H   0  0  0  0  0  0  0  0  0  0  0  0
    0.7536    3.2355    3.5609 H   0  0  0  0  0  0  0  0  0  0  0  0
    2.3597    3.9684    3.6517 H   0  0  0  0  0  0  0  0  0  0  0  0
    1.2628    4.3940    2.3245 H   0  0  0  0  0  0  0  0  0  0  0  0
    3.8402    1.5174    3.6085 N   0  0  0  0  0  0  0  0  0  0  0  0
    4.4679    0.5720    4.5020 C   0  0  0  0  0  0  0  0  0  0  0  0
    4.3442    2.3726    3.3932 H   0  0  0  0  0  0  0  0  0  0  0  0
    4.1796    0.7995    5.5388 H   0  0  0  0  0  0  0  0  0  0  0  0
    4.1415   -0.4468    4.2459 H   0  0  0  0  0  0  0  0  0  0  0  0
    5.5610    0.6429    4.4015 H   0  0  0  0  0  0  0  0  0  0  0  0
 23 25  2  0  0  0  0
 22 23  1  0  0  0  0
 24 26  1  0  0  0  0
 22 24  2  0  0  0  0
 25 27  1  0  0  0  0
 26 27  2  0  0  0  0
 21 22  1  0  0  0  0
 27 28  1  0  0  0  0
  1  3  1  0  0  0  0
  1  7  1  0  0  0  0
  1  2  2  0  0  0  0
 39 40  1  0  0  0  0
 40 48  1  0  0  0  0
 40 41  2  0  0  0  0
  8  9  1  0  0  0  0
  9 17  1  0  0  0  0
  9 10  2  0  0  0  0
 18 19  1  0  0  0  0
 19 38  1  0  0  0  0
 19 20  2  0  0  0  0
 39 42  1  0  0  0  0
  8 11  1  0  0  0  0
 48 49  1  0  0  0  0
 18 21  1  0  0  0  0
 38 39  1  0  0  0  0
  7  8  1  0  0  0  0
 17 18  1  0  0  0  0
 23 33  1  0  0  0  0
 24 34  1  0  0  0  0
 25 35  1  0  0  0  0
 26 36  1  0  0  0  0
  3  4  1  0  0  0  0
  3  5  1  0  0  0  0
  3  6  1  0  0  0  0
 42 45  1  0  0  0  0
 42 46  1  0  0  0  0
 42 47  1  0  0  0  0
 11 14  1  0  0  0  0
 11 15  1  0  0  0  0
 11 16  1  0  0  0  0
 49 51  1  0  0  0  0
 49 52  1  0  0  0  0
 49 53  1  0  0  0  0
 21 31  1  0  0  0  0
 21 32  1  0  0  0  0
 39 44  1  0  0  0  0
  8 13  1  0  0  0  0
 18 30  1  0  0  0  0
 48 50  1  0  0  0  0
  7 12  1  0  0  0  0
 38 43  1  0  0  0  0
 17 29  1  0  0  0  0
 28 37  1  0  0  0  0
M  END
$$$$

  -OEChem-05262214473D

 53 53  0     1  0  0  0  0  0999 V2000
   -1.9298    0.2574    3.9747 C   0  0  0  0  0  0  0  0  0  0  0  0
   -0.9825   -0.3573    3.4990 O   0  0  0  0  0  0  0  0  0  0  0  0
   -2.3617   -0.0250    5.3754 C   0  0  0  0  0  0  0  0  0  0  0  0
   -3.1214   -0.8213    5.4288 H   0  0  0  0  0  0  0  0  0  0  0  0
   -1.5305   -0.3726    6.0097 H   0  0  0  0  0  0  0  0  0  0  0  0
   -2.7997    0.8299    5.9150 H   0  0  0  0  0  0  0  0  0  0  0  0
   -2.6795    1.2298    3.3336 N   0  0  0  0  0  0  0  0  0  0  0  0
   -2.4327    1.6559    1.9812 C   0  0  2  0  0  0  0  0  0  0  0  0
   -1.0977    1.0705    1.5400 C   0  0  0  0  0  0  0  0  0  0  0  0
   -0.2256    0.7177    2.3313 O   0  0  0  0  0  0  0  0  0  0  0  0
   -2.4239    3.1726    1.8718 C   0  0  0  0  0  0  0  0  0  0  0  0
   -3.4446    1.6657    3.8454 H   0  0  0  0  0  0  0  0  0  0  0  0
   -3.2368    1.2374    1.3661 H   0  0  0  0  0  0  0  0  0  0  0  0
   -1.6248    3.6099    2.4815 H   0  0  0  0  0  0  0  0  0  0  0  0
   -2.2644    3.4949    0.8375 H   0  0  0  0  0  0  0  0  0  0  0  0
   -3.3741    3.5939    2.2175 H   0  0  0  0  0  0  0  0  0  0  0  0
   -0.9750    1.0274    0.1566 N   0  0  0  0  0  0  0  0  0  0  0  0
    0.2023    0.5266   -0.5070 C   0  0  2  0  0  0  0  0  0  0  0  0
    1.3887    0.8034    0.4094 C   0  0  0  0  0  0  0  0  0  0  0  0
    2.4972    0.3001    0.2394 O   0  0  0  0  0  0  0  0  0  0  0  0
    0.4202    1.1846   -1.8744 C   0  0  0  0  0  0  0  0  0  0  0  0
   -0.6474    0.8169   -2.8758 C   0  0  0  0  0  0  0  0  0  0  0  0
   -0.5764   -0.3986   -3.5565 C   0  0  0  0  0  0  0  0  0  0  0  0
   -1.7047    1.6929   -3.1211 C   0  0  0  0  0  0  0  0  0  0  0  0
   -1.5628   -0.7381   -4.4824 C   0  0  0  0  0  0  0  0  0  0  0  0
   -2.6912    1.3534   -4.0471 C   0  0  0  0  0  0  0  0  0  0  0  0
   -2.6202    0.1379   -4.7277 C   0  0  0  0  0  0  0  0  0  0  0  0
   -3.5819   -0.1930   -5.6322 O   0  0  0  0  0  0  0  0  0  0  0  0
   -1.7582    1.3241   -0.4207 H   0  0  0  0  0  0  0  0  0  0  0  0
    0.0690   -0.5573   -0.6041 H   0  0  0  0  0  0  0  0  0  0  0  0
    1.4082    0.9164   -2.2725 H   0  0  0  0  0  0  0  0  0  0  0  0
    0.4368    2.2781   -1.7756 H   0  0  0  0  0  0  0  0  0  0  0  0
    0.2437   -1.0871   -3.3715 H   0  0  0  0  0  0  0  0  0  0  0  0
   -1.7682    2.6421   -2.5953 H   0  0  0  0  0  0  0  0  0  0  0  0
   -1.5018   -1.6864   -5.0097 H   0  0  0  0  0  0  0  0  0  0  0  0
   -3.5120    2.0402   -4.2340 H   0  0  0  0  0  0  0  0  0  0  0  0
   -4.2451    0.5131   -5.6915 H   0  0  0  0  0  0  0  0  0  0  0  0
    1.0733    1.7160    1.4064 N   0  0  0  0  0  0  0  0  0  0  0  0
    2.0238    2.1706    2.3958 C   0  0  2  0  0  0  0  0  0  0  0  0
    2.6901    0.9445    3.0059 C   0  0  0  0  0  0  0  0  0  0  0  0
    2.1805   -0.1740    2.9892 O   0  0  0  0  0  0  0  0  0  0  0  0
    1.3476    3.0115    3.4673 C   0  0  0  0  0  0  0  0  0  0  0  0
    0.1268    2.0829    1.4426 H   0  0  0  0  0  0  0  0  0  0  0  0
    2.7728    2.7674    1.8640 H   0  0  0  0  0  0  0  0  0  0  0  0
    0.5938    2.4304    4.0109 H   0  0  0  0  0  0  0  0  0  0  0  0
    2.0735    3.3788    4.2003 H   0  0  0  0  0  0  0  0  0  0  0  0
    0.8437    3.8768    3.0234 H   0  0  0  0  0  0  0  0  0  0  0  0
    3.9009    1.2546    3.6093 N   0  0  0  0  0  0  0  0  0  0  0  0
    4.7190    0.2644    4.2698 C   0  0  0  0  0  0  0  0  0  0  0  0
    4.2557    2.2050    3.5584 H   0  0  0  0  0  0  0  0  0  0  0  0
    4.4655    0.2331    5.3398 H   0  0  0  0  0  0  0  0  0  0  0  0
    4.5344   -0.7225    3.8204 H   0  0  0  0  0  0  0  0  0  0  0  0
    5.7804    0.5281    4.1522 H   0  0  0  0  0  0  0  0  0  0  0  0
 23 25  2  0  0  0  0
 22 23  1  0  0  0  0
 24 26  1  0  0  0  0
 22 24  2  0  0  0  0
 25 27  1  0  0  0  0
 26 27  2  0  0  0  0
 21 22  1  0  0  0  0
 27 28  1  0  0  0  0
  1  3  1  0  0  0  0
  1  7  1  0  0  0  0
  1  2  2  0  0  0  0
 39 40  1  0  0  0  0
 40 48  1  0  0  0  0
 40 41  2  0  0  0  0
  8  9  1  0  0  0  0
  9 17  1  0  0  0  0
  9 10  2  0  0  0  0
 18 19  1  0  0  0  0
 19 38  1  0  0  0  0
 19 20  2  0  0  0  0
 39 42  1  0  0  0  0
  8 11  1  0  0  0  0
 48 49  1  0  0  0  0
 18 21  1  0  0  0  0
 38 39  1  0  0  0  0
  7  8  1  0  0  0  0
 17 18  1  0  0  0  0
 23 33  1  0  0  0  0
 24 34  1  0  0  0  0
 25 35  1  0  0  0  0
 26 36  1  0  0  0  0
  3  4  1  0  0  0  0
  3  5  1  0  0  0  0
  3  6  1  0  0  0  0
 42 45  1  0  0  0  0
 42 46  1  0  0  0  0
 42 47  1  0  0  0  0
 11 14  1  0  0  0  0
 11 15  1  0  0  0  0
 11 16  1  0  0  0  0
 49 51  1  0  0  0  0
 49 52  1  0  0  0  0
 49 53  1  0  0  0  0
 21 31  1  0  0  0  0
 21 32  1  0  0  0  0
 39 44  1  0  0  0  0
  8 13  1  0  0  0  0
 18 30  1  0  0  0  0
 48 50  1  0  0  0  0
  7 12  1  0  0  0  0
 38 43  1  0  0  0  0
 17 29  1  0  0  0  0
 28 37  1  0  0  0  0
M  END
$$$$

  -OEChem-05262214473D

 53 53  0     1  0  0  0  0  0999 V2000
   -1.9298    0.2574    3.9747 C   0  0  0  0  0  0  0  0  0  0  0  0
   -0.9825   -0.3573    3.4990 O   0  0  0  0  0  0  0  0  0  0  0  0
   -2.3617   -0.0250    5.3754 C   0  0  0  0  0  0  0  0  0  0  0  0
   -3.1214   -0.8213    5.4288 H   0  0  0  0  0  0  0  0  0  0  0  0
   -1.5305   -0.3726    6.0097 H   0  0  0  0  0  0  0  0  0  0  0  0
   -2.7997    0.8299    5.9150 H   0  0  0  0  0  0  0  0  0  0  0  0
   -2.6795    1.2298    3.3336 N   0  0  0  0  0  0  0  0  0  0  0  0
   -2.4327    1.6559    1.9812 C   0  0  2  0  0  0  0  0  0  0  0  0
   -1.0977    1.0705    1.5400 C   0  0  0  0  0  0  0  0  0  0  0  0
   -0.2256    0.7177    2.3313 O   0  0  0  0  0  0  0  0  0  0  0  0
   -2.4239    3.1726    1.8718 C   0  0  0  0  0  0  0  0  0  0  0  0
   -3.4446    1.6657    3.8454 H   0  0  0  0  0  0  0  0  0  0  0  0
   -3.2368    1.2374    1.3661 H   0  0  0  0  0  0  0  0  0  0  0  0
   -1.6248    3.6099    2.4815 H   0  0  0  0  0  0  0  0  0  0  0  0
   -2.2644    3.4949    0.8375 H   0  0  0  0  0  0  0  0  0  0  0  0
   -3.3741    3.5939    2.2175 H   0  0  0  0  0  0  0  0  0  0  0  0
   -0.9750    1.0274    0.1566 N   0  0  0  0  0  0  0  0  0  0  0  0
    0.2023    0.5266   -0.5070 C   0  0  2  0  0  0  0  0  0  0  0  0
    1.3887    0.8034    0.4094 C   0  0  0  0  0  0  0  0  0  0  0  0
    2.5475    0.5281    0.1055 O   0  0  0  0  0  0  0  0  0  0  0  0
    0.4202    1.1846   -1.8744 C   0  0  0  0  0  0  0  0  0  0  0  0
   -0.6474    0.8169   -2.8758 C   0  0  0  0  0  0  0  0  0  0  0  0
   -0.5764   -0.3986   -3.5565 C   0  0  0  0  0  0  0  0  0  0  0  0
   -1.7047    1.6929   -3.1211 C   0  0  0  0  0  0  0  0  0  0  0  0
   -1.5628   -0.7381   -4.4824 C   0  0  0  0  0  0  0  0  0  0  0  0
   -2.6912    1.3534   -4.0471 C   0  0  0  0  0  0  0  0  0  0  0  0
   -2.6202    0.1379   -4.7277 C   0  0  0  0  0  0  0  0  0  0  0  0
   -3.5819   -0.1930   -5.6322 O   0  0  0  0  0  0  0  0  0  0  0  0
   -1.7582    1.3241   -0.4207 H   0  0  0  0  0  0  0  0  0  0  0  0
    0.0690   -0.5573   -0.6041 H   0  0  0  0  0  0  0  0  0  0  0  0
    1.4082    0.9164   -2.2725 H   0  0  0  0  0  0  0  0  0  0  0  0
    0.4368    2.2781   -1.7756 H   0  0  0  0  0  0  0  0  0  0  0  0
    0.2437   -1.0871   -3.3715 H   0  0  0  0  0  0  0  0  0  0  0  0
   -1.7682    2.6421   -2.5953 H   0  0  0  0  0  0  0  0  0  0  0  0
   -1.5018   -1.6864   -5.0097 H   0  0  0  0  0  0  0  0  0  0  0  0
   -3.5120    2.0402   -4.2340 H   0  0  0  0  0  0  0  0  0  0  0  0
   -4.2451    0.5131   -5.6915 H   0  0  0  0  0  0  0  0  0  0  0  0
    1.0027    1.4383    1.5818 N   0  0  0  0  0  0  0  0  0  0  0  0
    1.9341    1.8347    2.6133 C   0  0  2  0  0  0  0  0  0  0  0  0
    2.8148    0.6353    2.9380 C   0  0  0  0  0  0  0  0  0  0  0  0
    2.4796   -0.5248    2.7080 O   0  0  0  0  0  0  0  0  0  0  0  0
    1.2077    2.3276    3.8551 C   0  0  0  0  0  0  0  0  0  0  0  0
    0.0159    1.6341    1.7218 H   0  0  0  0  0  0  0  0  0  0  0  0
    2.5496    2.6371    2.1923 H   0  0  0  0  0  0  0  0  0  0  0  0
    0.5858    1.5372    4.2910 H   0  0  0  0  0  0  0  0  0  0  0  0
    1.9146    2.6543    4.6249 H   0  0  0  0  0  0  0  0  0  0  0  0
    0.5521    3.1713    3.6139 H   0  0  0  0  0  0  0  0  0  0  0  0
    4.0005    1.0100    3.5542 N   0  0  0  0  0  0  0  0  0  0  0  0
    4.9984    0.0531    3.9718 C   0  0  0  0  0  0  0  0  0  0  0  0
    4.2040    1.9961    3.6884 H   0  0  0  0  0  0  0  0  0  0  0  0
    4.8204   -0.2293    5.0200 H   0  0  0  0  0  0  0  0  0  0  0  0
    4.9369   -0.8421    3.3355 H   0  0  0  0  0  0  0  0  0  0  0  0
    5.9984    0.5016    3.8779 H   0  0  0  0  0  0  0  0  0  0  0  0
 23 25  2  0  0  0  0
 22 23  1  0  0  0  0
 24 26  1  0  0  0  0
 22 24  2  0  0  0  0
 25 27  1  0  0  0  0
 26 27  2  0  0  0  0
 21 22  1  0  0  0  0
 27 28  1  0  0  0  0
  1  3  1  0  0  0  0
  1  7  1  0  0  0  0
  1  2  2  0  0  0  0
 39 40  1  0  0  0  0
 40 48  1  0  0  0  0
 40 41  2  0  0  0  0
  8  9  1  0  0  0  0
  9 17  1  0  0  0  0
  9 10  2  0  0  0  0
 18 19  1  0  0  0  0
 19 38  1  0  0  0  0
 19 20  2  0  0  0  0
 39 42  1  0  0  0  0
  8 11  1  0  0  0  0
 48 49  1  0  0  0  0
 18 21  1  0  0  0  0
 38 39  1  0  0  0  0
  7  8  1  0  0  0  0
 17 18  1  0  0  0  0
 23 33  1  0  0  0  0
 24 34  1  0  0  0  0
 25 35  1  0  0  0  0
 26 36  1  0  0  0  0
  3  4  1  0  0  0  0
  3  5  1  0  0  0  0
  3  6  1  0  0  0  0
 42 45  1  0  0  0  0
 42 46  1  0  0  0  0
 42 47  1  0  0  0  0
 11 14  1  0  0  0  0
 11 15  1  0  0  0  0
 11 16  1  0  0  0  0
 49 51  1  0  0  0  0
 49 52  1  0  0  0  0
 49 53  1  0  0  0  0
 21 31  1  0  0  0  0
 21 32  1  0  0  0  0
 39 44  1  0  0  0  0
  8 13  1  0  0  0  0
 18 30  1  0  0  0  0
 48 50  1  0  0  0  0
  7 12  1  0  0  0  0
 38 43  1  0  0  0  0
 17 29  1  0  0  0  0
 28 37  1  0  0  0  0
M  END
$$$$

  -OEChem-05262214473D

 53 53  0     1  0  0  0  0  0999 V2000
   -1.9298    0.2574    3.9747 C   0  0  0  0  0  0  0  0  0  0  0  0
   -0.9825   -0.3573    3.4990 O   0  0  0  0  0  0  0  0  0  0  0  0
   -2.3617   -0.0250    5.3754 C   0  0  0  0  0  0  0  0  0  0  0  0
   -3.1214   -0.8213    5.4288 H   0  0  0  0  0  0  0  0  0  0  0  0
   -1.5305   -0.3726    6.0097 H   0  0  0  0  0  0  0  0  0  0  0  0
   -2.7997    0.8299    5.9150 H   0  0  0  0  0  0  0  0  0  0  0  0
   -2.6795    1.2298    3.3336 N   0  0  0  0  0  0  0  0  0  0  0  0
   -2.4327    1.6559    1.9812 C   0  0  2  0  0  0  0  0  0  0  0  0
   -1.0977    1.0705    1.5400 C   0  0  0  0  0  0  0  0  0  0  0  0
   -0.2256    0.7177    2.3313 O   0  0  0  0  0  0  0  0  0  0  0  0
   -2.4239    3.1726    1.8718 C   0  0  0  0  0  0  0  0  0  0  0  0
   -3.4446    1.6657    3.8454 H   0  0  0  0  0  0  0  0  0  0  0  0
   -3.2368    1.2374    1.3661 H   0  0  0  0  0  0  0  0  0  0  0  0
   -1.6248    3.6099    2.4815 H   0  0  0  0  0  0  0  0  0  0  0  0
   -2.2644    3.4949    0.8375 H   0  0  0  0  0  0  0  0  0  0  0  0
   -3.3741    3.5939    2.2175 H   0  0  0  0  0  0  0  0  0  0  0  0
   -0.9750    1.0274    0.1566 N   0  0  0  0  0  0  0  0  0  0  0  0
    0.2023    0.5266   -0.5070 C   0  0  2  0  0  0  0  0  0  0  0  0
    1.3887    0.8034    0.4094 C   0  0  0  0  0  0  0  0  0  0  0  0
    2.5543    0.7832    0.0196 O   0  0  0  0  0  0  0  0  0  0  0  0
    0.4202    1.1846   -1.8744 C   0  0  0  0  0  0  0  0  0  0  0  0
   -0.6474    0.8169   -2.8758 C   0  0  0  0  0  0  0  0  0  0  0  0
   -0.5764   -0.3986   -3.5565 C   0  0  0  0  0  0  0  0  0  0  0  0
   -1.7047    1.6929   -3.1211 C   0  0  0  0  0  0  0  0  0  0  0  0
   -1.5628   -0.7381   -4.4824 C   0  0  0  0  0  0  0  0  0  0  0  0
   -2.6912    1.3534   -4.0471 C   0  0  0  0  0  0  0  0  0  0  0  0
   -2.6202    0.1379   -4.7277 C   0  0  0  0  0  0  0  0  0  0  0  0
   -3.5819   -0.1930   -5.6322 O   0  0  0  0  0  0  0  0  0  0  0  0
   -1.7582    1.3241   -0.4207 H   0  0  0  0  0  0  0  0  0  0  0  0
    0.0690   -0.5573   -0.6041 H   0  0  0  0  0  0  0  0  0  0  0  0
    1.4082    0.9164   -2.2725 H   0  0  0  0  0  0  0  0  0  0  0  0
    0.4368    2.2781   -1.7756 H   0  0  0  0  0  0  0  0  0  0  0  0
    0.2437   -1.0871   -3.3715 H   0  0  0  0  0  0  0  0  0  0  0  0
   -1.7682    2.6421   -2.5953 H   0  0  0  0  0  0  0  0  0  0  0  0
   -1.5018   -1.6864   -5.0097 H   0  0  0  0  0  0  0  0  0  0  0  0
   -3.5120    2.0402   -4.2340 H   0  0  0  0  0  0  0  0  0  0  0  0
   -4.2451    0.5131   -5.6915 H   0  0  0  0  0  0  0  0  0  0  0  0
    0.9860    1.1236    1.6985 N   0  0  0  0  0  0  0  0  0  0  0  0
    1.9100    1.4524    2.7600 C   0  0  2  0  0  0  0  0  0  0  0  0
    2.9801    0.3696    2.8042 C   0  0  0  0  0  0  0  0  0  0  0  0
    2.8099   -0.7605    2.3516 O   0  0  0  0  0  0  0  0  0  0  0  0
    1.1971    1.5671    4.0984 C   0  0  0  0  0  0  0  0  0  0  0  0
   -0.0083    1.1271    1.9063 H   0  0  0  0  0  0  0  0  0  0  0  0
    2.3698    2.4104    2.4936 H   0  0  0  0  0  0  0  0  0  0  0  0
    0.7302    0.6169    4.3820 H   0  0  0  0  0  0  0  0  0  0  0  0
    1.8938    1.8443    4.8965 H   0  0  0  0  0  0  0  0  0  0  0  0
    0.4080    2.3256    4.0559 H   0  0  0  0  0  0  0  0  0  0  0  0
    4.1322    0.8004    3.4470 N   0  0  0  0  0  0  0  0  0  0  0  0
    5.2872   -0.0475    3.6283 C   0  0  0  0  0  0  0  0  0  0  0  0
    4.1927    1.7601    3.7743 H   0  0  0  0  0  0  0  0  0  0  0  0
    5.2201   -0.5564    4.6012 H   0  0  0  0  0  0  0  0  0  0  0  0
    5.3214   -0.7972    2.8241 H   0  0  0  0  0  0  0  0  0  0  0  0
    6.2003    0.5652    3.5974 H   0  0  0  0  0  0  0  0  0  0  0  0
 23 25  2  0  0  0  0
 22 23  1  0  0  0  0
 24 26  1  0  0  0  0
 22 24  2  0  0  0  0
 25 27  1  0  0  0  0
 26 27  2  0  0  0  0
 21 22  1  0  0  0  0
 27 28  1  0  0  0  0
  1  3  1  0  0  0  0
  1  7  1  0  0  0  0
  1  2  2  0  0  0  0
 39 40  1  0  0  0  0
 40 48  1  0  0  0  0
 40 41  2  0  0  0  0
  8  9  1  0  0  0  0
  9 17  1  0  0  0  0
  9 10  2  0  0  0  0
 18 19  1  0  0  0  0
 19 38  1  0  0  0  0
 19 20  2  0  0  0  0
 39 42  1  0  0  0  0
  8 11  1  0  0  0  0
 48 49  1  0  0  0  0
 18 21  1  0  0  0  0
 38 39  1  0  0  0  0
  7  8  1  0  0  0  0
 17 18  1  0  0  0  0
 23 33  1  0  0  0  0
 24 34  1  0  0  0  0
 25 35  1  0  0  0  0
 26 36  1  0  0  0  0
  3  4  1  0  0  0  0
  3  5  1  0  0  0  0
  3  6  1  0  0  0  0
 42 45  1  0  0  0  0
 42 46  1  0  0  0  0
 42 47  1  0  0  0  0
 11 14  1  0  0  0  0
 11 15  1  0  0  0  0
 11 16  1  0  0  0  0
 49 51  1  0  0  0  0
 49 52  1  0  0  0  0
 49 53  1  0  0  0  0
 21 31  1  0  0  0  0
 21 32  1  0  0  0  0
 39 44  1  0  0  0  0
  8 13  1  0  0  0  0
 18 30  1  0  0  0  0
 48 50  1  0  0  0  0
  7 12  1  0  0  0  0
 38 43  1  0  0  0  0
 17 29  1  0  0  0  0
 28 37  1  0  0  0  0
M  END
$$$$

  -OEChem-05262214473D

 53 53  0     1  0  0  0  0  0999 V2000
   -1.9298    0.2574    3.9747 C   0  0  0  0  0  0  0  0  0  0  0  0
   -0.9825   -0.3573    3.4990 O   0  0  0  0  0  0  0  0  0  0  0  0
   -2.3617   -0.0250    5.3754 C   0  0  0  0  0  0  0  0  0  0  0  0
   -3.1214   -0.8213    5.4288 H   0  0  0  0  0  0  0  0  0  0  0  0
   -1.5305   -0.3726    6.0097 H   0  0  0  0  0  0  0  0  0  0  0  0
   -2.7997    0.8299    5.9150 H   0  0  0  0  0  0  0  0  0  0  0  0
   -2.6795    1.2298    3.3336 N   0  0  0  0  0  0  0  0  0  0  0  0
   -2.4327    1.6559    1.9812 C   0  0  2  0  0  0  0  0  0  0  0  0
   -1.0977    1.0705    1.5400 C   0  0  0  0  0  0  0  0  0  0  0  0
   -0.2256    0.7177    2.3313 O   0  0  0  0  0  0  0  0  0  0  0  0
   -2.4239    3.1726    1.8718 C   0  0  0  0  0  0  0  0  0  0  0  0
   -3.4446    1.6657    3.8454 H   0  0  0  0  0  0  0  0  0  0  0  0
   -3.2368    1.2374    1.3661 H   0  0  0  0  0  0  0  0  0  0  0  0
   -1.6248    3.6099    2.4815 H   0  0  0  0  0  0  0  0  0  0  0  0
   -2.2644    3.4949    0.8375 H   0  0  0  0  0  0  0  0  0  0  0  0
   -3.3741    3.5939    2.2175 H   0  0  0  0  0  0  0  0  0  0  0  0
   -0.9750    1.0274    0.1566 N   0  0  0  0  0  0  0  0  0  0  0  0
    0.2023    0.5266   -0.5070 C   0  0  2  0  0  0  0  0  0  0  0  0
    1.3887    0.8034    0.4094 C   0  0  0  0  0  0  0  0  0  0  0  0
    2.5172    1.0478   -0.0122 O   0  0  0  0  0  0  0  0  0  0  0  0
    0.4202    1.1846   -1.8744 C   0  0  0  0  0  0  0  0  0  0  0  0
   -0.6474    0.8169   -2.8758 C   0  0  0  0  0  0  0  0  0  0  0  0
   -0.5764   -0.3986   -3.5565 C   0  0  0  0  0  0  0  0  0  0  0  0
   -1.7047    1.6929   -3.1211 C   0  0  0  0  0  0  0  0  0  0  0  0
   -1.5628   -0.7381   -4.4824 C   0  0  0  0  0  0  0  0  0  0  0  0
   -2.6912    1.3534   -4.0471 C   0  0  0  0  0  0  0  0  0  0  0  0
   -2.6202    0.1379   -4.7277 C   0  0  0  0  0  0  0  0  0  0  0  0
   -3.5819   -0.1930   -5.6322 O   0  0  0  0  0  0  0  0  0  0  0  0
   -1.7582    1.3241   -0.4207 H   0  0  0  0  0  0  0  0  0  0  0  0
    0.0690   -0.5573   -0.6041 H   0  0  0  0  0  0  0  0  0  0  0  0
    1.4082    0.9164   -2.2725 H   0  0  0  0  0  0  0  0  0  0  0  0
    0.4368    2.2781   -1.7756 H   0  0  0  0  0  0  0  0  0  0  0  0
    0.2437   -1.0871   -3.3715 H   0  0  0  0  0  0  0  0  0  0  0  0
   -1.7682    2.6421   -2.5953 H   0  0  0  0  0  0  0  0  0  0  0  0
   -1.5018   -1.6864   -5.0097 H   0  0  0  0  0  0  0  0  0  0  0  0
   -3.5120    2.0402   -4.2340 H   0  0  0  0  0  0  0  0  0  0  0  0
   -4.2451    0.5131   -5.6915 H   0  0  0  0  0  0  0  0  0  0  0  0
    1.0242    0.7936    1.7486 N   0  0  0  0  0  0  0  0  0  0  0  0
    1.9531    1.0500    2.8258 C   0  0  2  0  0  0  0  0  0  0  0  0
    3.1748    0.1657    2.6137 C   0  0  0  0  0  0  0  0  0  0  0  0
    3.1488   -0.8650    1.9444 O   0  0  0  0  0  0  0  0  0  0  0  0
    1.3167    0.7819    4.1807 C   0  0  0  0  0  0  0  0  0  0  0  0
    0.0559    0.5964    1.9835 H   0  0  0  0  0  0  0  0  0  0  0  0
    2.2455    2.1028    2.7475 H   0  0  0  0  0  0  0  0  0  0  0  0
    1.0172   -0.2680    4.2778 H   0  0  0  0  0  0  0  0  0  0  0  0
    2.0124    1.0038    4.9967 H   0  0  0  0  0  0  0  0  0  0  0  0
    0.4212    1.3972    4.3193 H   0  0  0  0  0  0  0  0  0  0  0  0
    4.2869    0.6400    3.2951 N   0  0  0  0  0  0  0  0  0  0  0  0
    5.5657   -0.0306    3.2627 C   0  0  0  0  0  0  0  0  0  0  0  0
    4.2225    1.5130    3.8103 H   0  0  0  0  0  0  0  0  0  0  0  0
    5.6375   -0.7258    4.1121 H   0  0  0  0  0  0  0  0  0  0  0  0
    5.6619   -0.5911    2.3211 H   0  0  0  0  0  0  0  0  0  0  0  0
    6.3721    0.7146    3.3297 H   0  0  0  0  0  0  0  0  0  0  0  0
 23 25  2  0  0  0  0
 22 23  1  0  0  0  0
 24 26  1  0  0  0  0
 22 24  2  0  0  0  0
 25 27  1  0  0  0  0
 26 27  2  0  0  0  0
 21 22  1  0  0  0  0
 27 28  1  0  0  0  0
  1  3  1  0  0  0  0
  1  7  1  0  0  0  0
  1  2  2  0  0  0  0
 39 40  1  0  0  0  0
 40 48  1  0  0  0  0
 40 41  2  0  0  0  0
  8  9  1  0  0  0  0
  9 17  1  0  0  0  0
  9 10  2  0  0  0  0
 18 19  1  0  0  0  0
 19 38  1  0  0  0  0
 19 20  2  0  0  0  0
 39 42  1  0  0  0  0
  8 11  1  0  0  0  0
 48 49  1  0  0  0  0
 18 21  1  0  0  0  0
 38 39  1  0  0  0  0
  7  8  1  0  0  0  0
 17 18  1  0  0  0  0
 23 33  1  0  0  0  0
 24 34  1  0  0  0  0
 25 35  1  0  0  0  0
 26 36  1  0  0  0  0
  3  4  1  0  0  0  0
  3  5  1  0  0  0  0
  3  6  1  0  0  0  0
 42 45  1  0  0  0  0
 42 46  1  0  0  0  0
 42 47  1  0  0  0  0
 11 14  1  0  0  0  0
 11 15  1  0  0  0  0
 11 16  1  0  0  0  0
 49 51  1  0  0  0  0
 49 52  1  0  0  0  0
 49 53  1  0  0  0  0
 21 31  1  0  0  0  0
 21 32  1  0  0  0  0
 39 44  1  0  0  0  0
  8 13  1  0  0  0  0
 18 30  1  0  0  0  0
 48 50  1  0  0  0  0
  7 12  1  0  0  0  0
 38 43  1  0  0  0  0
 17 29  1  0  0  0  0
 28 37  1  0  0  0  0
M  END
$$$$

  -OEChem-05262214473D

 53 53  0     1  0  0  0  0  0999 V2000
   -1.9298    0.2574    3.9747 C   0  0  0  0  0  0  0  0  0  0  0  0
   -0.9825   -0.3573    3.4990 O   0  0  0  0  0  0  0  0  0  0  0  0
   -2.3617   -0.0250    5.3754 C   0  0  0  0  0  0  0  0  0  0  0  0
   -3.1214   -0.8213    5.4288 H   0  0  0  0  0  0  0  0  0  0  0  0
   -1.5305   -0.3726    6.0097 H   0  0  0  0  0  0  0  0  0  0  0  0
   -2.7997    0.8299    5.9150 H   0  0  0  0  0  0  0  0  0  0  0  0
   -2.6795    1.2298    3.3336 N   0  0  0  0  0  0  0  0  0  0  0  0
   -2.4327    1.6559    1.9812 C   0  0  2  0  0  0  0  0  0  0  0  0
   -1.0977    1.0705    1.5400 C   0  0  0  0  0  0  0  0  0  0  0  0
   -0.2256    0.7177    2.3313 O   0  0  0  0  0  0  0  0  0  0  0  0
   -2.4239    3.1726    1.8718 C   0  0  0  0  0  0  0  0  0  0  0  0
   -3.4446    1.6657    3.8454 H   0  0  0  0  0  0  0  0  0  0  0  0
   -3.2368    1.2374    1.3661 H   0  0  0  0  0  0  0  0  0  0  0  0
   -1.6248    3.6099    2.4815 H   0  0  0  0  0  0  0  0  0  0  0  0
   -2.2644    3.4949    0.8375 H   0  0  0  0  0  0  0  0  0  0  0  0
   -3.3741    3.5939    2.2175 H   0  0  0  0  0  0  0  0  0  0  0  0
   -0.9750    1.0274    0.1566 N   0  0  0  0  0  0  0  0  0  0  0  0
    0.2023    0.5266   -0.5070 C   0  0  2  0  0  0  0  0  0  0  0  0
    1.3887    0.8034    0.4094 C   0  0  0  0  0  0  0  0  0  0  0  0
    2.4386    1.3041    0.0121 O   0  0  0  0  0  0  0  0  0  0  0  0
    0.4202    1.1846   -1.8744 C   0  0  0  0  0  0  0  0  0  0  0  0
   -0.6474    0.8169   -2.8758 C   0  0  0  0  0  0  0  0  0  0  0  0
   -0.5764   -0.3986   -3.5565 C   0  0  0  0  0  0  0  0  0  0  0  0
   -1.7047    1.6929   -3.1211 C   0  0  0  0  0  0  0  0  0  0  0  0
   -1.5628   -0.7381   -4.4824 C   0  0  0  0  0  0  0  0  0  0  0  0
   -2.6912    1.3534   -4.0471 C   0  0  0  0  0  0  0  0  0  0  0  0
   -2.6202    0.1379   -4.7277 C   0  0  0  0  0  0  0  0  0  0  0  0
   -3.5819   -0.1930   -5.6322 O   0  0  0  0  0  0  0  0  0  0  0  0
   -1.7582    1.3241   -0.4207 H   0  0  0  0  0  0  0  0  0  0  0  0
    0.0690   -0.5573   -0.6041 H   0  0  0  0  0  0  0  0  0  0  0  0
    1.4082    0.9164   -2.2725 H   0  0  0  0  0  0  0  0  0  0  0  0
    0.4368    2.2781   -1.7756 H   0  0  0  0  0  0  0  0  0  0  0  0
    0.2437   -1.0871   -3.3715 H   0  0  0  0  0  0  0  0  0  0  0  0
   -1.7682    2.6421   -2.5953 H   0  0  0  0  0  0  0  0  0  0  0  0
   -1.5018   -1.6864   -5.0097 H   0  0  0  0  0  0  0  0  0  0  0  0
   -3.5120    2.0402   -4.2340 H   0  0  0  0  0  0  0  0  0  0  0  0
   -4.2451    0.5131   -5.6915 H   0  0  0  0  0  0  0  0  0  0  0  0
    1.1149    0.4707    1.7288 N   0  0  0  0  0  0  0  0  0  0  0  0
    2.0604    0.6546    2.8063 C   0  0  2  0  0  0  0  0  0  0  0  0
    3.3857    0.0374    2.3794 C   0  0  0  0  0  0  0  0  0  0  0  0
    3.4733   -0.8312    1.5140 O   0  0  0  0  0  0  0  0  0  0  0  0
    1.5583    0.0254    4.0965 C   0  0  0  0  0  0  0  0  0  0  0  0
    0.2040    0.0782    1.9481 H   0  0  0  0  0  0  0  0  0  0  0  0
    2.1852    1.7351    2.9365 H   0  0  0  0  0  0  0  0  0  0  0  0
    1.4272   -1.0571    3.9853 H   0  0  0  0  0  0  0  0  0  0  0  0
    2.2625    0.1903    4.9186 H   0  0  0  0  0  0  0  0  0  0  0  0
    0.5907    0.4494    4.3861 H   0  0  0  0  0  0  0  0  0  0  0  0
    4.4542    0.5397    3.1088 N   0  0  0  0  0  0  0  0  0  0  0  0
    5.8149    0.1028    2.8998 C   0  0  0  0  0  0  0  0  0  0  0  0
    4.2915    1.2718    3.7939 H   0  0  0  0  0  0  0  0  0  0  0  0
    6.0440   -0.7259    3.5859 H   0  0  0  0  0  0  0  0  0  0  0  0
    5.9350   -0.2377    1.8607 H   0  0  0  0  0  0  0  0  0  0  0  0
    6.5024    0.9395    3.0932 H   0  0  0  0  0  0  0  0  0  0  0  0
 23 25  2  0  0  0  0
 22 23  1  0  0  0  0
 24 26  1  0  0  0  0
 22 24  2  0  0  0  0
 25 27  1  0  0  0  0
 26 27  2  0  0  0  0
 21 22  1  0  0  0  0
 27 28  1  0  0  0  0
  1  3  1  0  0  0  0
  1  7  1  0  0  0  0
  1  2  2  0  0  0  0
 39 40  1  0  0  0  0
 40 48  1  0  0  0  0
 40 41  2  0  0  0  0
  8  9  1  0  0  0  0
  9 17  1  0  0  0  0
  9 10  2  0  0  0  0
 18 19  1  0  0  0  0
 19 38  1  0  0  0  0
 19 20  2  0  0  0  0
 39 42  1  0  0  0  0
  8 11  1  0  0  0  0
 48 49  1  0  0  0  0
 18 21  1  0  0  0  0
 38 39  1  0  0  0  0
  7  8  1  0  0  0  0
 17 18  1  0  0  0  0
 23 33  1  0  0  0  0
 24 34  1  0  0  0  0
 25 35  1  0  0  0  0
 26 36  1  0  0  0  0
  3  4  1  0  0  0  0
  3  5  1  0  0  0  0
  3  6  1  0  0  0  0
 42 45  1  0  0  0  0
 42 46  1  0  0  0  0
 42 47  1  0  0  0  0
 11 14  1  0  0  0  0
 11 15  1  0  0  0  0
 11 16  1  0  0  0  0
 49 51  1  0  0  0  0
 49 52  1  0  0  0  0
 49 53  1  0  0  0  0
 21 31  1  0  0  0  0
 21 32  1  0  0  0  0
 39 44  1  0  0  0  0
  8 13  1  0  0  0  0
 18 30  1  0  0  0  0
 48 50  1  0  0  0  0
  7 12  1  0  0  0  0
 38 43  1  0  0  0  0
 17 29  1  0  0  0  0
 28 37  1  0  0  0  0
M  END
$$$$

  -OEChem-05262214473D

 53 53  0     1  0  0  0  0  0999 V2000
   -1.9298    0.2574    3.9747 C   0  0  0  0  0  0  0  0  0  0  0  0
   -0.9825   -0.3573    3.4990 O   0  0  0  0  0  0  0  0  0  0  0  0
   -2.3617   -0.0250    5.3754 C   0  0  0  0  0  0  0  0  0  0  0  0
   -3.1214   -0.8213    5.4288 H   0  0  0  0  0  0  0  0  0  0  0  0
   -1.5305   -0.3726    6.0097 H   0  0  0  0  0  0  0  0  0  0  0  0
   -2.7997    0.8299    5.9150 H   0  0  0  0  0  0  0  0  0  0  0  0
   -2.6795    1.2298    3.3336 N   0  0  0  0  0  0  0  0  0  0  0  0
   -2.4327    1.6559    1.9812 C   0  0  2  0  0  0  0  0  0  0  0  0
   -1.0977    1.0705    1.5400 C   0  0  0  0  0  0  0  0  0  0  0  0
   -0.2256    0.7177    2.3313 O   0  0  0  0  0  0  0  0  0  0  0  0
   -2.4239    3.1726    1.8718 C   0  0  0  0  0  0  0  0  0  0  0  0
   -3.4446    1.6657    3.8454 H   0  0  0  0  0  0  0  0  0  0  0  0
   -3.2368    1.2374    1.3661 H   0  0  0  0  0  0  0  0  0  0  0  0
   -1.6248    3.6099    2.4815 H   0  0  0  0  0  0  0  0  0  0  0  0
   -2.2644    3.4949    0.8375 H   0  0  0  0  0  0  0  0  0  0  0  0
   -3.3741    3.5939    2.2175 H   0  0  0  0  0  0  0  0  0  0  0  0
   -0.9750    1.0274    0.1566 N   0  0  0  0  0  0  0  0  0  0  0  0
    0.2023    0.5266   -0.5070 C   0  0  2  0  0  0  0  0  0  0  0  0
    1.3887    0.8034    0.4094 C   0  0  0  0  0  0  0  0  0  0  0  0
    2.3240    1.5346    0.0908 O   0  0  0  0  0  0  0  0  0  0  0  0
    0.4202    1.1846   -1.8744 C   0  0  0  0  0  0  0  0  0  0  0  0
   -0.6474    0.8169   -2.8758 C   0  0  0  0  0  0  0  0  0  0  0  0
   -0.5764   -0.3986   -3.5565 C   0  0  0  0  0  0  0  0  0  0  0  0
   -1.7047    1.6929   -3.1211 C   0  0  0  0  0  0  0  0  0  0  0  0
   -1.5628   -0.7381   -4.4824 C   0  0  0  0  0  0  0  0  0  0  0  0
   -2.6912    1.3534   -4.0471 C   0  0  0  0  0  0  0  0  0  0  0  0
   -2.6202    0.1379   -4.7277 C   0  0  0  0  0  0  0  0  0  0  0  0
   -3.5819   -0.1930   -5.6322 O   0  0  0  0  0  0  0  0  0  0  0  0
   -1.7582    1.3241   -0.4207 H   0  0  0  0  0  0  0  0  0  0  0  0
    0.0690   -0.5573   -0.6041 H   0  0  0  0  0  0  0  0  0  0  0  0
    1.4082    0.9164   -2.2725 H   0  0  0  0  0  0  0  0  0  0  0  0
    0.4368    2.2781   -1.7756 H   0  0  0  0  0  0  0  0  0  0  0  0
    0.2437   -1.0871   -3.3715 H   0  0  0  0  0  0  0  0  0  0  0  0
   -1.7682    2.6421   -2.5953 H   0  0  0  0  0  0  0  0  0  0  0  0
   -1.5018   -1.6864   -5.0097 H   0  0  0  0  0  0  0  0  0  0  0  0
   -3.5120    2.0402   -4.2340 H   0  0  0  0  0  0  0  0  0  0  0  0
   -4.2451    0.5131   -5.6915 H   0  0  0  0  0  0  0  0  0  0  0  0
    1.2517    0.1769    1.6403 N   0  0  0  0  0  0  0  0  0  0  0  0
    2.2246    0.2934    2.7027 C   0  0  2  0  0  0  0  0  0  0  0  0
    3.5983   -0.0065    2.1174 C   0  0  0  0  0  0  0  0  0  0  0  0
    3.7612   -0.6614    1.0900 O   0  0  0  0  0  0  0  0  0  0  0  0
    1.9053   -0.6507    3.8514 C   0  0  0  0  0  0  0  0  0  0  0  0
    0.4261   -0.3921    1.8027 H   0  0  0  0  0  0  0  0  0  0  0  0
    2.1930    1.3325    3.0480 H   0  0  0  0  0  0  0  0  0  0  0  0
    1.9322   -1.6966    3.5246 H   0  0  0  0  0  0  0  0  0  0  0  0
    2.6270   -0.5408    4.6676 H   0  0  0  0  0  0  0  0  0  0  0  0
    0.9051   -0.4532    4.2517 H   0  0  0  0  0  0  0  0  0  0  0  0
    4.6227    0.5064    2.9008 N   0  0  0  0  0  0  0  0  0  0  0  0
    6.0178    0.3435    2.5644 C   0  0  0  0  0  0  0  0  0  0  0  0
    4.3949    1.0529    3.7262 H   0  0  0  0  0  0  0  0  0  0  0  0
    6.4119   -0.5569    3.0585 H   0  0  0  0  0  0  0  0  0  0  0  0
    6.1222    0.2389    1.4744 H   0  0  0  0  0  0  0  0  0  0  0  0
    6.5820    1.2246    2.9040 H   0  0  0  0  0  0  0  0  0  0  0  0
 23 25  2  0  0  0  0
 22 23  1  0  0  0  0
 24 26  1  0  0  0  0
 22 24  2  0  0  0  0
 25 27  1  0  0  0  0
 26 27  2  0  0  0  0
 21 22  1  0  0  0  0
 27 28  1  0  0  0  0
  1  3  1  0  0  0  0
  1  7  1  0  0  0  0
  1  2  2  0  0  0  0
 39 40  1  0  0  0  0
 40 48  1  0  0  0  0
 40 41  2  0  0  0  0
  8  9  1  0  0  0  0
  9 17  1  0  0  0  0
  9 10  2  0  0  0  0
 18 19  1  0  0  0  0
 19 38  1  0  0  0  0
 19 20  2  0  0  0  0
 39 42  1  0  0  0  0
  8 11  1  0  0  0  0
 48 49  1  0  0  0  0
 18 21  1  0  0  0  0
 38 39  1  0  0  0  0
  7  8  1  0  0  0  0
 17 18  1  0  0  0  0
 23 33  1  0  0  0  0
 24 34  1  0  0  0  0
 25 35  1  0  0  0  0
 26 36  1  0  0  0  0
  3  4  1  0  0  0  0
  3  5  1  0  0  0  0
  3  6  1  0  0  0  0
 42 45  1  0  0  0  0
 42 46  1  0  0  0  0
 42 47  1  0  0  0  0
 11 14  1  0  0  0  0
 11 15  1  0  0  0  0
 11 16  1  0  0  0  0
 49 51  1  0  0  0  0
 49 52  1  0  0  0  0
 49 53  1  0  0  0  0
 21 31  1  0  0  0  0
 21 32  1  0  0  0  0
 39 44  1  0  0  0  0
  8 13  1  0  0  0  0
 18 30  1  0  0  0  0
 48 50  1  0  0  0  0
  7 12  1  0  0  0  0
 38 43  1  0  0  0  0
 17 29  1  0  0  0  0
 28 37  1  0  0  0  0
M  END
$$$$

  -OEChem-05262214473D

 53 53  0     1  0  0  0  0  0999 V2000
   -1.9298    0.2574    3.9747 C   0  0  0  0  0  0  0  0  0  0  0  0
   -0.9825   -0.3573    3.4990 O   0  0  0  0  0  0  0  0  0  0  0  0
   -2.3617   -0.0250    5.3754 C   0  0  0  0  0  0  0  0  0  0  0  0
   -3.1214   -0.8213    5.4288 H   0  0  0  0  0  0  0  0  0  0  0  0
   -1.5305   -0.3726    6.0097 H   0  0  0  0  0  0  0  0  0  0  0  0
   -2.7997    0.8299    5.9150 H   0  0  0  0  0  0  0  0  0  0  0  0
   -2.6795    1.2298    3.3336 N   0  0  0  0  0  0  0  0  0  0  0  0
   -2.4327    1.6559    1.9812 C   0  0  2  0  0  0  0  0  0  0  0  0
   -1.0977    1.0705    1.5400 C   0  0  0  0  0  0  0  0  0  0  0  0
   -0.2256    0.7177    2.3313 O   0  0  0  0  0  0  0  0  0  0  0  0
   -2.4239    3.1726    1.8718 C   0  0  0  0  0  0  0  0  0  0  0  0
   -3.4446    1.6657    3.8454 H   0  0  0  0  0  0  0  0  0  0  0  0
   -3.2368    1.2374    1.3661 H   0  0  0  0  0  0  0  0  0  0  0  0
   -1.6248    3.6099    2.4815 H   0  0  0  0  0  0  0  0  0  0  0  0
   -2.2644    3.4949    0.8375 H   0  0  0  0  0  0  0  0  0  0  0  0
   -3.3741    3.5939    2.2175 H   0  0  0  0  0  0  0  0  0  0  0  0
   -0.9750    1.0274    0.1566 N   0  0  0  0  0  0  0  0  0  0  0  0
    0.2023    0.5266   -0.5070 C   0  0  2  0  0  0  0  0  0  0  0  0
    1.3887    0.8034    0.4094 C   0  0  0  0  0  0  0  0  0  0  0  0
    2.1811    1.7235    0.2187 O   0  0  0  0  0  0  0  0  0  0  0  0
    0.4202    1.1846   -1.8744 C   0  0  0  0  0  0  0  0  0  0  0  0
   -0.6474    0.8169   -2.8758 C   0  0  0  0  0  0  0  0  0  0  0  0
   -0.5764   -0.3986   -3.5565 C   0  0  0  0  0  0  0  0  0  0  0  0
   -1.7047    1.6929   -3.1211 C   0  0  0  0  0  0  0  0  0  0  0  0
   -1.5628   -0.7381   -4.4824 C   0  0  0  0  0  0  0  0  0  0  0  0
   -2.6912    1.3534   -4.0471 C   0  0  0  0  0  0  0  0  0  0  0  0
   -2.6202    0.1379   -4.7277 C   0  0  0  0  0  0  0  0  0  0  0  0
   -3.5819   -0.1930   -5.6322 O   0  0  0  0  0  0  0  0  0  0  0  0
   -1.7582    1.3241   -0.4207 H   0  0  0  0  0  0  0  0  0  0  0  0
    0.0690   -0.5573   -0.6041 H   0  0  0  0  0  0  0  0  0  0  0  0
    1.4082    0.9164   -2.2725 H   0  0  0  0  0  0  0  0  0  0  0  0
    0.4368    2.2781   -1.7756 H   0  0  0  0  0  0  0  0  0  0  0  0
    0.2437   -1.0871   -3.3715 H   0  0  0  0  0  0  0  0  0  0  0  0
   -1.7682    2.6421   -2.5953 H   0  0  0  0  0  0  0  0  0  0  0  0
   -1.5018   -1.6864   -5.0097 H   0  0  0  0  0  0  0  0  0  0  0  0
   -3.5120    2.0402   -4.2340 H   0  0  0  0  0  0  0  0  0  0  0  0
   -4.2451    0.5131   -5.6915 H   0  0  0  0  0  0  0  0  0  0  0  0
    1.4255   -0.0678    1.4893 N   0  0  0  0  0  0  0  0  0  0  0  0
    2.4346   -0.0091    2.5222 C   0  0  2  0  0  0  0  0  0  0  0  0
    3.7982    0.0369    1.8455 C   0  0  0  0  0  0  0  0  0  0  0  0
    3.9930   -0.3671    0.7010 O   0  0  0  0  0  0  0  0  0  0  0  0
    2.3342   -1.2004    3.4622 C   0  0  0  0  0  0  0  0  0  0  0  0
    0.7070   -0.7826    1.5570 H   0  0  0  0  0  0  0  0  0  0  0  0
    2.2685    0.9225    3.0741 H   0  0  0  0  0  0  0  0  0  0  0  0
    2.4979   -2.1430    2.9271 H   0  0  0  0  0  0  0  0  0  0  0  0
    3.0810   -1.1398    4.2607 H   0  0  0  0  0  0  0  0  0  0  0  0
    1.3428   -1.2490    3.9253 H   0  0  0  0  0  0  0  0  0  0  0  0
    4.7808    0.5424    2.6852 N   0  0  0  0  0  0  0  0  0  0  0  0
    6.1606    0.6751    2.2794 C   0  0  0  0  0  0  0  0  0  0  0  0
    4.5256    0.8711    3.6118 H   0  0  0  0  0  0  0  0  0  0  0  0
    6.7162   -0.2301    2.5658 H   0  0  0  0  0  0  0  0  0  0  0  0
    6.2107    0.8062    1.1884 H   0  0  0  0  0  0  0  0  0  0  0  0
    6.6057    1.5505    2.7748 H   0  0  0  0  0  0  0  0  0  0  0  0
 23 25  2  0  0  0  0
 22 23  1  0  0  0  0
 24 26  1  0  0  0  0
 22 24  2  0  0  0  0
 25 27  1  0  0  0  0
 26 27  2  0  0  0  0
 21 22  1  0  0  0  0
 27 28  1  0  0  0  0
  1  3  1  0  0  0  0
  1  7  1  0  0  0  0
  1  2  2  0  0  0  0
 39 40  1  0  0  0  0
 40 48  1  0  0  0  0
 40 41  2  0  0  0  0
  8  9  1  0  0  0  0
  9 17  1  0  0  0  0
  9 10  2  0  0  0  0
 18 19  1  0  0  0  0
 19 38  1  0  0  0  0
 19 20  2  0  0  0  0
 39 42  1  0  0  0  0
  8 11  1  0  0  0  0
 48 49  1  0  0  0  0
 18 21  1  0  0  0  0
 38 39  1  0  0  0  0
  7  8  1  0  0  0  0
 17 18  1  0  0  0  0
 23 33  1  0  0  0  0
 24 34  1  0  0  0  0
 25 35  1  0  0  0  0
 26 36  1  0  0  0  0
  3  4  1  0  0  0  0
  3  5  1  0  0  0  0
  3  6  1  0  0  0  0
 42 45  1  0  0  0  0
 42 46  1  0  0  0  0
 42 47  1  0  0  0  0
 11 14  1  0  0  0  0
 11 15  1  0  0  0  0
 11 16  1  0  0  0  0
 49 51  1  0  0  0  0
 49 52  1  0  0  0  0
 49 53  1  0  0  0  0
 21 31  1  0  0  0  0
 21 32  1  0  0  0  0
 39 44  1  0  0  0  0
  8 13  1  0  0  0  0
 18 30  1  0  0  0  0
 48 50  1  0  0  0  0
  7 12  1  0  0  0  0
 38 43  1  0  0  0  0
 17 29  1  0  0  0  0
 28 37  1  0  0  0  0
M  END
$$$$

  -OEChem-05262214473D

 53 53  0     1  0  0  0  0  0999 V2000
   -1.9298    0.2574    3.9747 C   0  0  0  0  0  0  0  0  0  0  0  0
   -0.9825   -0.3573    3.4990 O   0  0  0  0  0  0  0  0  0  0  0  0
   -2.3617   -0.0250    5.3754 C   0  0  0  0  0  0  0  0  0  0  0  0
   -3.1214   -0.8213    5.4288 H   0  0  0  0  0  0  0  0  0  0  0  0
   -1.5305   -0.3726    6.0097 H   0  0  0  0  0  0  0  0  0  0  0  0
   -2.7997    0.8299    5.9150 H   0  0  0  0  0  0  0  0  0  0  0  0
   -2.6795    1.2298    3.3336 N   0  0  0  0  0  0  0  0  0  0  0  0
   -2.4327    1.6559    1.9812 C   0  0  2  0  0  0  0  0  0  0  0  0
   -1.0977    1.0705    1.5400 C   0  0  0  0  0  0  0  0  0  0  0  0
   -0.2256    0.7177    2.3313 O   0  0  0  0  0  0  0  0  0  0  0  0
   -2.4239    3.1726    1.8718 C   0  0  0  0  0  0  0  0  0  0  0  0
   -3.4446    1.6657    3.8454 H   0  0  0  0  0  0  0  0  0  0  0  0
   -3.2368    1.2374    1.3661 H   0  0  0  0  0  0  0  0  0  0  0  0
   -1.6248    3.6099    2.4815 H   0  0  0  0  0  0  0  0  0  0  0  0
   -2.2644    3.4949    0.8375 H   0  0  0  0  0  0  0  0  0  0  0  0
   -3.3741    3.5939    2.2175 H   0  0  0  0  0  0  0  0  0  0  0  0
   -0.9750    1.0274    0.1566 N   0  0  0  0  0  0  0  0  0  0  0  0
    0.2023    0.5266   -0.5070 C   0  0  2  0  0  0  0  0  0  0  0  0
    1.3887    0.8034    0.4094 C   0  0  0  0  0  0  0  0  0  0  0  0
    2.0198    1.8580    0.3870 O   0  0  0  0  0  0  0  0  0  0  0  0
    0.4202    1.1846   -1.8744 C   0  0  0  0  0  0  0  0  0  0  0  0
   -0.6474    0.8169   -2.8758 C   0  0  0  0  0  0  0  0  0  0  0  0
   -0.5764   -0.3986   -3.5565 C   0  0  0  0  0  0  0  0  0  0  0  0
   -1.7047    1.6929   -3.1211 C   0  0  0  0  0  0  0  0  0  0  0  0
   -1.5628   -0.7381   -4.4824 C   0  0  0  0  0  0  0  0  0  0  0  0
   -2.6912    1.3534   -4.0471 C   0  0  0  0  0  0  0  0  0  0  0  0
   -2.6202    0.1379   -4.7277 C   0  0  0  0  0  0  0  0  0  0  0  0
   -3.5819   -0.1930   -5.6322 O   0  0  0  0  0  0  0  0  0  0  0  0
   -1.7582    1.3241   -0.4207 H   0  0  0  0  0  0  0  0  0  0  0  0
    0.0690   -0.5573   -0.6041 H   0  0  0  0  0  0  0  0  0  0  0  0
    1.4082    0.9164   -2.2725 H   0  0  0  0  0  0  0  0  0  0  0  0
    0.4368    2.2781   -1.7756 H   0  0  0  0  0  0  0  0  0  0  0  0
    0.2437   -1.0871   -3.3715 H   0  0  0  0  0  0  0  0  0  0  0  0
   -1.7682    2.6421   -2.5953 H   0  0  0  0  0  0  0  0  0  0  0  0
   -1.5018   -1.6864   -5.0097 H   0  0  0  0  0  0  0  0  0  0  0  0
   -3.5120    2.0402   -4.2340 H   0  0  0  0  0  0  0  0  0  0  0  0
   -4.2451    0.5131   -5.6915 H   0  0  0  0  0  0  0  0  0  0  0  0
    1.6243   -0.2467    1.2859 N   0  0  0  0  0  0  0  0  0  0  0  0
    2.6760   -0.2323    2.2771 C   0  0  2  0  0  0  0  0  0  0  0  0
    3.9718    0.1647    1.5822 C   0  0  0  0  0  0  0  0  0  0  0  0
    4.1529    0.0316    0.3737 O   0  0  0  0  0  0  0  0  0  0  0  0
    2.8158   -1.5863    2.9553 C   0  0  0  0  0  0  0  0  0  0  0  0
    1.0275   -1.0666    1.2278 H   0  0  0  0  0  0  0  0  0  0  0  0
    2.4064    0.5328    3.0132 H   0  0  0  0  0  0  0  0  0  0  0  0
    3.0856   -2.3658    2.2334 H   0  0  0  0  0  0  0  0  0  0  0  0
    3.5936   -1.5658    3.7257 H   0  0  0  0  0  0  0  0  0  0  0  0
    1.8741   -1.8838    3.4292 H   0  0  0  0  0  0  0  0  0  0  0  0
    4.9178    0.6451    2.4768 N   0  0  0  0  0  0  0  0  0  0  0  0
    6.2335    1.0750    2.0643 C   0  0  0  0  0  0  0  0  0  0  0  0
    4.6748    0.7389    3.4586 H   0  0  0  0  0  0  0  0  0  0  0  0
    6.9361    0.2322    2.1414 H   0  0  0  0  0  0  0  0  0  0  0  0
    6.1946    1.4255    1.0223 H   0  0  0  0  0  0  0  0  0  0  0  0
    6.5719    1.8950    2.7146 H   0  0  0  0  0  0  0  0  0  0  0  0
 23 25  2  0  0  0  0
 22 23  1  0  0  0  0
 24 26  1  0  0  0  0
 22 24  2  0  0  0  0
 25 27  1  0  0  0  0
 26 27  2  0  0  0  0
 21 22  1  0  0  0  0
 27 28  1  0  0  0  0
  1  3  1  0  0  0  0
  1  7  1  0  0  0  0
  1  2  2  0  0  0  0
 39 40  1  0  0  0  0
 40 48  1  0  0  0  0
 40 41  2  0  0  0  0
  8  9  1  0  0  0  0
  9 17  1  0  0  0  0
  9 10  2  0  0  0  0
 18 19  1  0  0  0  0
 19 38  1  0  0  0  0
 19 20  2  0  0  0  0
 39 42  1  0  0  0  0
  8 11  1  0  0  0  0
 48 49  1  0  0  0  0
 18 21  1  0  0  0  0
 38 39  1  0  0  0  0
  7  8  1  0  0  0  0
 17 18  1  0  0  0  0
 23 33  1  0  0  0  0
 24 34  1  0  0  0  0
 25 35  1  0  0  0  0
 26 36  1  0  0  0  0
  3  4  1  0  0  0  0
  3  5  1  0  0  0  0
  3  6  1  0  0  0  0
 42 45  1  0  0  0  0
 42 46  1  0  0  0  0
 42 47  1  0  0  0  0
 11 14  1  0  0  0  0
 11 15  1  0  0  0  0
 11 16  1  0  0  0  0
 49 51  1  0  0  0  0
 49 52  1  0  0  0  0
 49 53  1  0  0  0  0
 21 31  1  0  0  0  0
 21 32  1  0  0  0  0
 39 44  1  0  0  0  0
  8 13  1  0  0  0  0
 18 30  1  0  0  0  0
 48 50  1  0  0  0  0
  7 12  1  0  0  0  0
 38 43  1  0  0  0  0
 17 29  1  0  0  0  0
 28 37  1  0  0  0  0
M  END
$$$$

  -OEChem-05262214473D

 53 53  0     1  0  0  0  0  0999 V2000
   -1.9298    0.2574    3.9747 C   0  0  0  0  0  0  0  0  0  0  0  0
   -0.9825   -0.3573    3.4990 O   0  0  0  0  0  0  0  0  0  0  0  0
   -2.3617   -0.0250    5.3754 C   0  0  0  0  0  0  0  0  0  0  0  0
   -3.1214   -0.8213    5.4288 H   0  0  0  0  0  0  0  0  0  0  0  0
   -1.5305   -0.3726    6.0097 H   0  0  0  0  0  0  0  0  0  0  0  0
   -2.7997    0.8299    5.9150 H   0  0  0  0  0  0  0  0  0  0  0  0
   -2.6795    1.2298    3.3336 N   0  0  0  0  0  0  0  0  0  0  0  0
   -2.4327    1.6559    1.9812 C   0  0  2  0  0  0  0  0  0  0  0  0
   -1.0977    1.0705    1.5400 C   0  0  0  0  0  0  0  0  0  0  0  0
   -0.2256    0.7177    2.3313 O   0  0  0  0  0  0  0  0  0  0  0  0
   -2.4239    3.1726    1.8718 C   0  0  0  0  0  0  0  0  0  0  0  0
   -3.4446    1.6657    3.8454 H   0  0  0  0  0  0  0  0  0  0  0  0
   -3.2368    1.2374    1.3661 H   0  0  0  0  0  0  0  0  0  0  0  0
   -1.6248    3.6099    2.4815 H   0  0  0  0  0  0  0  0  0  0  0  0
   -2.2644    3.4949    0.8375 H   0  0  0  0  0  0  0  0  0  0  0  0
   -3.3741    3.5939    2.2175 H   0  0  0  0  0  0  0  0  0  0  0  0
   -0.9750    1.0274    0.1566 N   0  0  0  0  0  0  0  0  0  0  0  0
    0.2023    0.5266   -0.5070 C   0  0  2  0  0  0  0  0  0  0  0  0
    1.3887    0.8034    0.4094 C   0  0  0  0  0  0  0  0  0  0  0  0
    1.8509    1.9289    0.5843 O   0  0  0  0  0  0  0  0  0  0  0  0
    0.4202    1.1846   -1.8744 C   0  0  0  0  0  0  0  0  0  0  0  0
   -0.6474    0.8169   -2.8758 C   0  0  0  0  0  0  0  0  0  0  0  0
   -0.5764   -0.3986   -3.5565 C   0  0  0  0  0  0  0  0  0  0  0  0
   -1.7047    1.6929   -3.1211 C   0  0  0  0  0  0  0  0  0  0  0  0
   -1.5628   -0.7381   -4.4824 C   0  0  0  0  0  0  0  0  0  0  0  0
   -2.6912    1.3534   -4.0471 C   0  0  0  0  0  0  0  0  0  0  0  0
   -2.6202    0.1379   -4.7277 C   0  0  0  0  0  0  0  0  0  0  0  0
   -3.5819   -0.1930   -5.6322 O   0  0  0  0  0  0  0  0  0  0  0  0
   -1.7582    1.3241   -0.4207 H   0  0  0  0  0  0  0  0  0  0  0  0
    0.0690   -0.5573   -0.6041 H   0  0  0  0  0  0  0  0  0  0  0  0
    1.4082    0.9164   -2.2725 H   0  0  0  0  0  0  0  0  0  0  0  0
    0.4368    2.2781   -1.7756 H   0  0  0  0  0  0  0  0  0  0  0  0
    0.2437   -1.0871   -3.3715 H   0  0  0  0  0  0  0  0  0  0  0  0
   -1.7682    2.6421   -2.5953 H   0  0  0  0  0  0  0  0  0  0  0  0
   -1.5018   -1.6864   -5.0097 H   0  0  0  0  0  0  0  0  0  0  0  0
   -3.5120    2.0402   -4.2340 H   0  0  0  0  0  0  0  0  0  0  0  0
   -4.2451    0.5131   -5.6915 H   0  0  0  0  0  0  0  0  0  0  0  0
    1.8346   -0.3476    1.0441 N   0  0  0  0  0  0  0  0  0  0  0  0
    2.9324   -0.3610    1.9840 C   0  0  2  0  0  0  0  0  0  0  0  0
    4.1072    0.3682    1.3454 C   0  0  0  0  0  0  0  0  0  0  0  0
    4.2299    0.5074    0.1303 O   0  0  0  0  0  0  0  0  0  0  0  0
    3.3171   -1.7820    2.3653 C   0  0  0  0  0  0  0  0  0  0  0  0
    1.3658   -1.2247    0.8376 H   0  0  0  0  0  0  0  0  0  0  0  0
    2.5974    0.1902    2.8695 H   0  0  0  0  0  0  0  0  0  0  0  0
    3.6554   -2.3498    1.4909 H   0  0  0  0  0  0  0  0  0  0  0  0
    4.1299   -1.7897    3.0991 H   0  0  0  0  0  0  0  0  0  0  0  0
    2.4628   -2.3145    2.7971 H   0  0  0  0  0  0  0  0  0  0  0  0
    5.0244    0.8076    2.2898 N   0  0  0  0  0  0  0  0  0  0  0  0
    6.2316    1.5159    1.9335 C   0  0  0  0  0  0  0  0  0  0  0  0
    4.8322    0.6652    3.2770 H   0  0  0  0  0  0  0  0  0  0  0  0
    7.0567    0.7984    1.8143 H   0  0  0  0  0  0  0  0  0  0  0  0
    6.0748    2.0547    0.9874 H   0  0  0  0  0  0  0  0  0  0  0  0
    6.4827    2.2347    2.7275 H   0  0  0  0  0  0  0  0  0  0  0  0
 23 25  2  0  0  0  0
 22 23  1  0  0  0  0
 24 26  1  0  0  0  0
 22 24  2  0  0  0  0
 25 27  1  0  0  0  0
 26 27  2  0  0  0  0
 21 22  1  0  0  0  0
 27 28  1  0  0  0  0
  1  3  1  0  0  0  0
  1  7  1  0  0  0  0
  1  2  2  0  0  0  0
 39 40  1  0  0  0  0
 40 48  1  0  0  0  0
 40 41  2  0  0  0  0
  8  9  1  0  0  0  0
  9 17  1  0  0  0  0
  9 10  2  0  0  0  0
 18 19  1  0  0  0  0
 19 38  1  0  0  0  0
 19 20  2  0  0  0  0
 39 42  1  0  0  0  0
  8 11  1  0  0  0  0
 48 49  1  0  0  0  0
 18 21  1  0  0  0  0
 38 39  1  0  0  0  0
  7  8  1  0  0  0  0
 17 18  1  0  0  0  0
 23 33  1  0  0  0  0
 24 34  1  0  0  0  0
 25 35  1  0  0  0  0
 26 36  1  0  0  0  0
  3  4  1  0  0  0  0
  3  5  1  0  0  0  0
  3  6  1  0  0  0  0
 42 45  1  0  0  0  0
 42 46  1  0  0  0  0
 42 47  1  0  0  0  0
 11 14  1  0  0  0  0
 11 15  1  0  0  0  0
 11 16  1  0  0  0  0
 49 51  1  0  0  0  0
 49 52  1  0  0  0  0
 49 53  1  0  0  0  0
 21 31  1  0  0  0  0
 21 32  1  0  0  0  0
 39 44  1  0  0  0  0
  8 13  1  0  0  0  0
 18 30  1  0  0  0  0
 48 50  1  0  0  0  0
  7 12  1  0  0  0  0
 38 43  1  0  0  0  0
 17 29  1  0  0  0  0
 28 37  1  0  0  0  0
M  END
$$$$

  -OEChem-05262214473D

 53 53  0     1  0  0  0  0  0999 V2000
   -1.9298    0.2574    3.9747 C   0  0  0  0  0  0  0  0  0  0  0  0
   -0.9825   -0.3573    3.4990 O   0  0  0  0  0  0  0  0  0  0  0  0
   -2.3617   -0.0250    5.3754 C   0  0  0  0  0  0  0  0  0  0  0  0
   -3.1214   -0.8213    5.4288 H   0  0  0  0  0  0  0  0  0  0  0  0
   -1.5305   -0.3726    6.0097 H   0  0  0  0  0  0  0  0  0  0  0  0
   -2.7997    0.8299    5.9150 H   0  0  0  0  0  0  0  0  0  0  0  0
   -2.6795    1.2298    3.3336 N   0  0  0  0  0  0  0  0  0  0  0  0
   -2.4327    1.6559    1.9812 C   0  0  2  0  0  0  0  0  0  0  0  0
   -1.0977    1.0705    1.5400 C   0  0  0  0  0  0  0  0  0  0  0  0
   -0.2256    0.7177    2.3313 O   0  0  0  0  0  0  0  0  0  0  0  0
   -2.4239    3.1726    1.8718 C   0  0  0  0  0  0  0  0  0  0  0  0
   -3.4446    1.6657    3.8454 H   0  0  0  0  0  0  0  0  0  0  0  0
   -3.2368    1.2374    1.3661 H   0  0  0  0  0  0  0  0  0  0  0  0
   -1.6248    3.6099    2.4815 H   0  0  0  0  0  0  0  0  0  0  0  0
   -2.2644    3.4949    0.8375 H   0  0  0  0  0  0  0  0  0  0  0  0
   -3.3741    3.5939    2.2175 H   0  0  0  0  0  0  0  0  0  0  0  0
   -0.9750    1.0274    0.1566 N   0  0  0  0  0  0  0  0  0  0  0  0
    0.2023    0.5266   -0.5070 C   0  0  2  0  0  0  0  0  0  0  0  0
    1.3887    0.8034    0.4094 C   0  0  0  0  0  0  0  0  0  0  0  0
    1.6860    1.9314    0.7970 O   0  0  0  0  0  0  0  0  0  0  0  0
    0.4202    1.1846   -1.8744 C   0  0  0  0  0  0  0  0  0  0  0  0
   -0.6474    0.8169   -2.8758 C   0  0  0  0  0  0  0  0  0  0  0  0
   -0.5764   -0.3986   -3.5565 C   0  0  0  0  0  0  0  0  0  0  0  0
   -1.7047    1.6929   -3.1211 C   0  0  0  0  0  0  0  0  0  0  0  0
   -1.5628   -0.7381   -4.4824 C   0  0  0  0  0  0  0  0  0  0  0  0
   -2.6912    1.3534   -4.0471 C   0  0  0  0  0  0  0  0  0  0  0  0
   -2.6202    0.1379   -4.7277 C   0  0  0  0  0  0  0  0  0  0  0  0
   -3.5819   -0.1930   -5.6322 O   0  0  0  0  0  0  0  0  0  0  0  0
   -1.7582    1.3241   -0.4207 H   0  0  0  0  0  0  0  0  0  0  0  0
    0.0690   -0.5573   -0.6041 H   0  0  0  0  0  0  0  0  0  0  0  0
    1.4082    0.9164   -2.2725 H   0  0  0  0  0  0  0  0  0  0  0  0
    0.4368    2.2781   -1.7756 H   0  0  0  0  0  0  0  0  0  0  0  0
    0.2437   -1.0871   -3.3715 H   0  0  0  0  0  0  0  0  0  0  0  0
   -1.7682    2.6421   -2.5953 H   0  0  0  0  0  0  0  0  0  0  0  0
   -1.5018   -1.6864   -5.0097 H   0  0  0  0  0  0  0  0  0  0  0  0
   -3.5120    2.0402   -4.2340 H   0  0  0  0  0  0  0  0  0  0  0  0
   -4.2451    0.5131   -5.6915 H   0  0  0  0  0  0  0  0  0  0  0  0
    2.0421   -0.3636    0.7803 N   0  0  0  0  0  0  0  0  0  0  0  0
    3.1863   -0.3863    1.6629 C   0  0  2  0  0  0  0  0  0  0  0  0
    4.1952    0.6335    1.1514 C   0  0  0  0  0  0  0  0  0  0  0  0
    4.2187    1.0281   -0.0126 O   0  0  0  0  0  0  0  0  0  0  0  0
    3.8041   -1.7742    1.7325 C   0  0  0  0  0  0  0  0  0  0  0  0
    1.6988   -1.2462    0.4130 H   0  0  0  0  0  0  0  0  0  0  0  0
    2.8284   -0.0821    2.6526 H   0  0  0  0  0  0  0  0  0  0  0  0
    4.1685   -2.0961    0.7501 H   0  0  0  0  0  0  0  0  0  0  0  0
    4.6533   -1.7963    2.4235 H   0  0  0  0  0  0  0  0  0  0  0  0
    3.0687   -2.5115    2.0722 H   0  0  0  0  0  0  0  0  0  0  0  0
    5.0932    1.0189    2.1369 N   0  0  0  0  0  0  0  0  0  0  0  0
    6.1550    1.9679    1.8962 C   0  0  0  0  0  0  0  0  0  0  0  0
    4.9873    0.6552    3.0793 H   0  0  0  0  0  0  0  0  0  0  0  0
    7.0697    1.4299    1.6067 H   0  0  0  0  0  0  0  0  0  0  0  0
    5.8595    2.6508    1.0860 H   0  0  0  0  0  0  0  0  0  0  0  0
    6.3443    2.5463    2.8125 H   0  0  0  0  0  0  0  0  0  0  0  0
 23 25  2  0  0  0  0
 22 23  1  0  0  0  0
 24 26  1  0  0  0  0
 22 24  2  0  0  0  0
 25 27  1  0  0  0  0
 26 27  2  0  0  0  0
 21 22  1  0  0  0  0
 27 28  1  0  0  0  0
  1  3  1  0  0  0  0
  1  7  1  0  0  0  0
  1  2  2  0  0  0  0
 39 40  1  0  0  0  0
 40 48  1  0  0  0  0
 40 41  2  0  0  0  0
  8  9  1  0  0  0  0
  9 17  1  0  0  0  0
  9 10  2  0  0  0  0
 18 19  1  0  0  0  0
 19 38  1  0  0  0  0
 19 20  2  0  0  0  0
 39 42  1  0  0  0  0
  8 11  1  0  0  0  0
 48 49  1  0  0  0  0
 18 21  1  0  0  0  0
 38 39  1  0  0  0  0
  7  8  1  0  0  0  0
 17 18  1  0  0  0  0
 23 33  1  0  0  0  0
 24 34  1  0  0  0  0
 25 35  1  0  0  0  0
 26 36  1  0  0  0  0
  3  4  1  0  0  0  0
  3  5  1  0  0  0  0
  3  6  1  0  0  0  0
 42 45  1  0  0  0  0
 42 46  1  0  0  0  0
 42 47  1  0  0  0  0
 11 14  1  0  0  0  0
 11 15  1  0  0  0  0
 11 16  1  0  0  0  0
 49 51  1  0  0  0  0
 49 52  1  0  0  0  0
 49 53  1  0  0  0  0
 21 31  1  0  0  0  0
 21 32  1  0  0  0  0
 39 44  1  0  0  0  0
  8 13  1  0  0  0  0
 18 30  1  0  0  0  0
 48 50  1  0  0  0  0
  7 12  1  0  0  0  0
 38 43  1  0  0  0  0
 17 29  1  0  0  0  0
 28 37  1  0  0  0  0
M  END
$$$$

  -OEChem-05262214473D

 53 53  0     1  0  0  0  0  0999 V2000
   -1.9298    0.2574    3.9747 C   0  0  0  0  0  0  0  0  0  0  0  0
   -0.9825   -0.3573    3.4990 O   0  0  0  0  0  0  0  0  0  0  0  0
   -2.3617   -0.0250    5.3754 C   0  0  0  0  0  0  0  0  0  0  0  0
   -3.1214   -0.8213    5.4288 H   0  0  0  0  0  0  0  0  0  0  0  0
   -1.5305   -0.3726    6.0097 H   0  0  0  0  0  0  0  0  0  0  0  0
   -2.7997    0.8299    5.9150 H   0  0  0  0  0  0  0  0  0  0  0  0
   -2.6795    1.2298    3.3336 N   0  0  0  0  0  0  0  0  0  0  0  0
   -2.4327    1.6559    1.9812 C   0  0  2  0  0  0  0  0  0  0  0  0
   -1.0977    1.0705    1.5400 C   0  0  0  0  0  0  0  0  0  0  0  0
   -0.2256    0.7177    2.3313 O   0  0  0  0  0  0  0  0  0  0  0  0
   -2.4239    3.1726    1.8718 C   0  0  0  0  0  0  0  0  0  0  0  0
   -3.4446    1.6657    3.8454 H   0  0  0  0  0  0  0  0  0  0  0  0
   -3.2368    1.2374    1.3661 H   0  0  0  0  0  0  0  0  0  0  0  0
   -1.6248    3.6099    2.4815 H   0  0  0  0  0  0  0  0  0  0  0  0
   -2.2644    3.4949    0.8375 H   0  0  0  0  0  0  0  0  0  0  0  0
   -3.3741    3.5939    2.2175 H   0  0  0  0  0  0  0  0  0  0  0  0
   -0.9750    1.0274    0.1566 N   0  0  0  0  0  0  0  0  0  0  0  0
    0.2023    0.5266   -0.5070 C   0  0  2  0  0  0  0  0  0  0  0  0
    1.3887    0.8034    0.4094 C   0  0  0  0  0  0  0  0  0  0  0  0
    1.5363    1.8652    1.0107 O   0  0  0  0  0  0  0  0  0  0  0  0
    0.4202    1.1846   -1.8744 C   0  0  0  0  0  0  0  0  0  0  0  0
   -0.6474    0.8169   -2.8758 C   0  0  0  0  0  0  0  0  0  0  0  0
   -0.5764   -0.3986   -3.5565 C   0  0  0  0  0  0  0  0  0  0  0  0
   -1.7047    1.6929   -3.1211 C   0  0  0  0  0  0  0  0  0  0  0  0
   -1.5628   -0.7381   -4.4824 C   0  0  0  0  0  0  0  0  0  0  0  0
   -2.6912    1.3534   -4.0471 C   0  0  0  0  0  0  0  0  0  0  0  0
   -2.6202    0.1379   -4.7277 C   0  0  0  0  0  0  0  0  0  0  0  0
   -3.5819   -0.1930   -5.6322 O   0  0  0  0  0  0  0  0  0  0  0  0
   -1.7582    1.3241   -0.4207 H   0  0  0  0  0  0  0  0  0  0  0  0
    0.0690   -0.5573   -0.6041 H   0  0  0  0  0  0  0  0  0  0  0  0
    1.4082    0.9164   -2.2725 H   0  0  0  0  0  0  0  0  0  0  0  0
    0.4368    2.2781   -1.7756 H   0  0  0  0  0  0  0  0  0  0  0  0
    0.2437   -1.0871   -3.3715 H   0  0  0  0  0  0  0  0  0  0  0  0
   -1.7682    2.6421   -2.5953 H   0  0  0  0  0  0  0  0  0  0  0  0
   -1.5018   -1.6864   -5.0097 H   0  0  0  0  0  0  0  0  0  0  0  0
   -3.5120    2.0402   -4.2340 H   0  0  0  0  0  0  0  0  0  0  0  0
   -4.2451    0.5131   -5.6915 H   0  0  0  0  0  0  0  0  0  0  0  0
    2.2326   -0.2937    0.5126 N   0  0  0  0  0  0  0  0  0  0  0  0
    3.4204   -0.3066    1.3358 C   0  0  2  0  0  0  0  0  0  0  0  0
    4.2298    0.9426    1.0133 C   0  0  0  0  0  0  0  0  0  0  0  0
    4.1203    1.5580   -0.0452 O   0  0  0  0  0  0  0  0  0  0  0  0
    4.2435   -1.5634    1.1000 C   0  0  0  0  0  0  0  0  0  0  0  0
    2.0039   -1.1296   -0.0172 H   0  0  0  0  0  0  0  0  0  0  0  0
    3.0838   -0.2655    2.3774 H   0  0  0  0  0  0  0  0  0  0  0  0
    4.5897   -1.6221    0.0616 H   0  0  0  0  0  0  0  0  0  0  0  0
    5.1281   -1.5852    1.7450 H   0  0  0  0  0  0  0  0  0  0  0  0
    3.6506   -2.4616    1.3038 H   0  0  0  0  0  0  0  0  0  0  0  0
    5.1197    1.2644    2.0285 N   0  0  0  0  0  0  0  0  0  0  0  0
    6.0089    2.4001    1.9547 C   0  0  0  0  0  0  0  0  0  0  0  0
    5.1293    0.7094    2.8791 H   0  0  0  0  0  0  0  0  0  0  0  0
    6.9743    2.0838    1.5328 H   0  0  0  0  0  0  0  0  0  0  0  0
    5.5635    3.1733    1.3115 H   0  0  0  0  0  0  0  0  0  0  0  0
    6.1662    2.8086    2.9639 H   0  0  0  0  0  0  0  0  0  0  0  0
 23 25  2  0  0  0  0
 22 23  1  0  0  0  0
 24 26  1  0  0  0  0
 22 24  2  0  0  0  0
 25 27  1  0  0  0  0
 26 27  2  0  0  0  0
 21 22  1  0  0  0  0
 27 28  1  0  0  0  0
  1  3  1  0  0  0  0
  1  7  1  0  0  0  0
  1  2  2  0  0  0  0
 39 40  1  0  0  0  0
 40 48  1  0  0  0  0
 40 41  2  0  0  0  0
  8  9  1  0  0  0  0
  9 17  1  0  0  0  0
  9 10  2  0  0  0  0
 18 19  1  0  0  0  0
 19 38  1  0  0  0  0
 19 20  2  0  0  0  0
 39 42  1  0  0  0  0
  8 11  1  0  0  0  0
 48 49  1  0  0  0  0
 18 21  1  0  0  0  0
 38 39  1  0  0  0  0
  7  8  1  0  0  0  0
 17 18  1  0  0  0  0
 23 33  1  0  0  0  0
 24 34  1  0  0  0  0
 25 35  1  0  0  0  0
 26 36  1  0  0  0  0
  3  4  1  0  0  0  0
  3  5  1  0  0  0  0
  3  6  1  0  0  0  0
 42 45  1  0  0  0  0
 42 46  1  0  0  0  0
 42 47  1  0  0  0  0
 11 14  1  0  0  0  0
 11 15  1  0  0  0  0
 11 16  1  0  0  0  0
 49 51  1  0  0  0  0
 49 52  1  0  0  0  0
 49 53  1  0  0  0  0
 21 31  1  0  0  0  0
 21 32  1  0  0  0  0
 39 44  1  0  0  0  0
  8 13  1  0  0  0  0
 18 30  1  0  0  0  0
 48 50  1  0  0  0  0
  7 12  1  0  0  0  0
 38 43  1  0  0  0  0
 17 29  1  0  0  0  0
 28 37  1  0  0  0  0
M  END
$$$$

  -OEChem-05262214473D

 53 53  0     1  0  0  0  0  0999 V2000
   -1.9298    0.2574    3.9747 C   0  0  0  0  0  0  0  0  0  0  0  0
   -0.9825   -0.3573    3.4990 O   0  0  0  0  0  0  0  0  0  0  0  0
   -2.3617   -0.0250    5.3754 C   0  0  0  0  0  0  0  0  0  0  0  0
   -3.1214   -0.8213    5.4288 H   0  0  0  0  0  0  0  0  0  0  0  0
   -1.5305   -0.3726    6.0097 H   0  0  0  0  0  0  0  0  0  0  0  0
   -2.7997    0.8299    5.9150 H   0  0  0  0  0  0  0  0  0  0  0  0
   -2.6795    1.2298    3.3336 N   0  0  0  0  0  0  0  0  0  0  0  0
   -2.4327    1.6559    1.9812 C   0  0  2  0  0  0  0  0  0  0  0  0
   -1.0977    1.0705    1.5400 C   0  0  0  0  0  0  0  0  0  0  0  0
   -0.2256    0.7177    2.3313 O   0  0  0  0  0  0  0  0  0  0  0  0
   -2.4239    3.1726    1.8718 C   0  0  0  0  0  0  0  0  0  0  0  0
   -3.4446    1.6657    3.8454 H   0  0  0  0  0  0  0  0  0  0  0  0
   -3.2368    1.2374    1.3661 H   0  0  0  0  0  0  0  0  0  0  0  0
   -1.6248    3.6099    2.4815 H   0  0  0  0  0  0  0  0  0  0  0  0
   -2.2644    3.4949    0.8375 H   0  0  0  0  0  0  0  0  0  0  0  0
   -3.3741    3.5939    2.2175 H   0  0  0  0  0  0  0  0  0  0  0  0
   -0.9750    1.0274    0.1566 N   0  0  0  0  0  0  0  0  0  0  0  0
    0.2023    0.5266   -0.5070 C   0  0  2  0  0  0  0  0  0  0  0  0
    1.3887    0.8034    0.4094 C   0  0  0  0  0  0  0  0  0  0  0  0
    1.4121    1.7350    1.2109 O   0  0  0  0  0  0  0  0  0  0  0  0
    0.4202    1.1846   -1.8744 C   0  0  0  0  0  0  0  0  0  0  0  0
   -0.6474    0.8169   -2.8758 C   0  0  0  0  0  0  0  0  0  0  0  0
   -0.5764   -0.3986   -3.5565 C   0  0  0  0  0  0  0  0  0  0  0  0
   -1.7047    1.6929   -3.1211 C   0  0  0  0  0  0  0  0  0  0  0  0
   -1.5628   -0.7381   -4.4824 C   0  0  0  0  0  0  0  0  0  0  0  0
   -2.6912    1.3534   -4.0471 C   0  0  0  0  0  0  0  0  0  0  0  0
   -2.6202    0.1379   -4.7277 C   0  0  0  0  0  0  0  0  0  0  0  0
   -3.5819   -0.1930   -5.6322 O   0  0  0  0  0  0  0  0  0  0  0  0
   -1.7582    1.3241   -0.4207 H   0  0  0  0  0  0  0  0  0  0  0  0
    0.0690   -0.5573   -0.6041 H   0  0  0  0  0  0  0  0  0  0  0  0
    1.4082    0.9164   -2.2725 H   0  0  0  0  0  0  0  0  0  0  0  0
    0.4368    2.2781   -1.7756 H   0  0  0  0  0  0  0  0  0  0  0  0
    0.2437   -1.0871   -3.3715 H   0  0  0  0  0  0  0  0  0  0  0  0
   -1.7682    2.6421   -2.5953 H   0  0  0  0  0  0  0  0  0  0  0  0
   -1.5018   -1.6864   -5.0097 H   0  0  0  0  0  0  0  0  0  0  0  0
   -3.5120    2.0402   -4.2340 H   0  0  0  0  0  0  0  0  0  0  0  0
   -4.2451    0.5131   -5.6915 H   0  0  0  0  0  0  0  0  0  0  0  0
    2.3932   -0.1426    0.2590 N   0  0  0  0  0  0  0  0  0  0  0  0
    3.6188   -0.1273    1.0248 C   0  0  2  0  0  0  0  0  0  0  0  0
    4.2086    1.2743    0.9405 C   0  0  0  0  0  0  0  0  0  0  0  0
    3.9412    2.0612    0.0347 O   0  0  0  0  0  0  0  0  0  0  0  0
    4.6055   -1.1641    0.5107 C   0  0  0  0  0  0  0  0  0  0  0  0
    2.2602   -0.8829   -0.4236 H   0  0  0  0  0  0  0  0  0  0  0  0
    3.3460   -0.3475    2.0627 H   0  0  0  0  0  0  0  0  0  0  0  0
    4.8905   -0.9599   -0.5278 H   0  0  0  0  0  0  0  0  0  0  0  0
    5.5221   -1.1708    1.1098 H   0  0  0  0  0  0  0  0  0  0  0  0
    4.1687   -2.1680    0.5443 H   0  0  0  0  0  0  0  0  0  0  0  0
    5.1019    1.5276    1.9720 N   0  0  0  0  0  0  0  0  0  0  0  0
    5.8034    2.7831    2.1052 C   0  0  0  0  0  0  0  0  0  0  0  0
    5.2486    0.8242    2.6899 H   0  0  0  0  0  0  0  0  0  0  0  0
    6.7769    2.7154    1.5976 H   0  0  0  0  0  0  0  0  0  0  0  0
    5.2069    3.5865    1.6484 H   0  0  0  0  0  0  0  0  0  0  0  0
    5.9604    3.0038    3.1713 H   0  0  0  0  0  0  0  0  0  0  0  0
 23 25  2  0  0  0  0
 22 23  1  0  0  0  0
 24 26  1  0  0  0  0
 22 24  2  0  0  0  0
 25 27  1  0  0  0  0
 26 27  2  0  0  0  0
 21 22  1  0  0  0  0
 27 28  1  0  0  0  0
  1  3  1  0  0  0  0
  1  7  1  0  0  0  0
  1  2  2  0  0  0  0
 39 40  1  0  0  0  0
 40 48  1  0  0  0  0
 40 41  2  0  0  0  0
  8  9  1  0  0  0  0
  9 17  1  0  0  0  0
  9 10  2  0  0  0  0
 18 19  1  0  0  0  0
 19 38  1  0  0  0  0
 19 20  2  0  0  0  0
 39 42  1  0  0  0  0
  8 11  1  0  0  0  0
 48 49  1  0  0  0  0
 18 21  1  0  0  0  0
 38 39  1  0  0  0  0
  7  8  1  0  0  0  0
 17 18  1  0  0  0  0
 23 33  1  0  0  0  0
 24 34  1  0  0  0  0
 25 35  1  0  0  0  0
 26 36  1  0  0  0  0
  3  4  1  0  0  0  0
  3  5  1  0  0  0  0
  3  6  1  0  0  0  0
 42 45  1  0  0  0  0
 42 46  1  0  0  0  0
 42 47  1  0  0  0  0
 11 14  1  0  0  0  0
 11 15  1  0  0  0  0
 11 16  1  0  0  0  0
 49 51  1  0  0  0  0
 49 52  1  0  0  0  0
 49 53  1  0  0  0  0
 21 31  1  0  0  0  0
 21 32  1  0  0  0  0
 39 44  1  0  0  0  0
  8 13  1  0  0  0  0
 18 30  1  0  0  0  0
 48 50  1  0  0  0  0
  7 12  1  0  0  0  0
 38 43  1  0  0  0  0
 17 29  1  0  0  0  0
 28 37  1  0  0  0  0
M  END
$$$$

  -OEChem-05262214473D

 53 53  0     1  0  0  0  0  0999 V2000
   -1.9298    0.2574    3.9747 C   0  0  0  0  0  0  0  0  0  0  0  0
   -0.9825   -0.3573    3.4990 O   0  0  0  0  0  0  0  0  0  0  0  0
   -2.3617   -0.0250    5.3754 C   0  0  0  0  0  0  0  0  0  0  0  0
   -3.1214   -0.8213    5.4288 H   0  0  0  0  0  0  0  0  0  0  0  0
   -1.5305   -0.3726    6.0097 H   0  0  0  0  0  0  0  0  0  0  0  0
   -2.7997    0.8299    5.9150 H   0  0  0  0  0  0  0  0  0  0  0  0
   -2.6795    1.2298    3.3336 N   0  0  0  0  0  0  0  0  0  0  0  0
   -2.4327    1.6559    1.9812 C   0  0  2  0  0  0  0  0  0  0  0  0
   -1.0977    1.0705    1.5400 C   0  0  0  0  0  0  0  0  0  0  0  0
   -0.2256    0.7177    2.3313 O   0  0  0  0  0  0  0  0  0  0  0  0
   -2.4239    3.1726    1.8718 C   0  0  0  0  0  0  0  0  0  0  0  0
   -3.4446    1.6657    3.8454 H   0  0  0  0  0  0  0  0  0  0  0  0
   -3.2368    1.2374    1.3661 H   0  0  0  0  0  0  0  0  0  0  0  0
   -1.6248    3.6099    2.4815 H   0  0  0  0  0  0  0  0  0  0  0  0
   -2.2644    3.4949    0.8375 H   0  0  0  0  0  0  0  0  0  0  0  0
   -3.3741    3.5939    2.2175 H   0  0  0  0  0  0  0  0  0  0  0  0
   -0.9750    1.0274    0.1566 N   0  0  0  0  0  0  0  0  0  0  0  0
    0.2023    0.5266   -0.5070 C   0  0  2  0  0  0  0  0  0  0  0  0
    1.3887    0.8034    0.4094 C   0  0  0  0  0  0  0  0  0  0  0  0
    1.3217    1.5496    1.3839 O   0  0  0  0  0  0  0  0  0  0  0  0
    0.4202    1.1846   -1.8744 C   0  0  0  0  0  0  0  0  0  0  0  0
   -0.6474    0.8169   -2.8758 C   0  0  0  0  0  0  0  0  0  0  0  0
   -0.5764   -0.3986   -3.5565 C   0  0  0  0  0  0  0  0  0  0  0  0
   -1.7047    1.6929   -3.1211 C   0  0  0  0  0  0  0  0  0  0  0  0
   -1.5628   -0.7381   -4.4824 C   0  0  0  0  0  0  0  0  0  0  0  0
   -2.6912    1.3534   -4.0471 C   0  0  0  0  0  0  0  0  0  0  0  0
   -2.6202    0.1379   -4.7277 C   0  0  0  0  0  0  0  0  0  0  0  0
   -3.5819   -0.1930   -5.6322 O   0  0  0  0  0  0  0  0  0  0  0  0
   -1.7582    1.3241   -0.4207 H   0  0  0  0  0  0  0  0  0  0  0  0
    0.0690   -0.5573   -0.6041 H   0  0  0  0  0  0  0  0  0  0  0  0
    1.4082    0.9164   -2.2725 H   0  0  0  0  0  0  0  0  0  0  0  0
    0.4368    2.2781   -1.7756 H   0  0  0  0  0  0  0  0  0  0  0  0
    0.2437   -1.0871   -3.3715 H   0  0  0  0  0  0  0  0  0  0  0  0
   -1.7682    2.6421   -2.5953 H   0  0  0  0  0  0  0  0  0  0  0  0
   -1.5018   -1.6864   -5.0097 H   0  0  0  0  0  0  0  0  0  0  0  0
   -3.5120    2.0402   -4.2340 H   0  0  0  0  0  0  0  0  0  0  0  0
   -4.2451    0.5131   -5.6915 H   0  0  0  0  0  0  0  0  0  0  0  0
    2.5129    0.0794    0.0371 N   0  0  0  0  0  0  0  0  0  0  0  0
    3.7679    0.1394    0.7513 C   0  0  2  0  0  0  0  0  0  0  0  0
    4.1331    1.6061    0.9379 C   0  0  0  0  0  0  0  0  0  0  0  0
    3.6937    2.5032    0.2216 O   0  0  0  0  0  0  0  0  0  0  0  0
    4.8653   -0.6033    0.0050 C   0  0  0  0  0  0  0  0  0  0  0  0
    2.4503   -0.5229   -0.7785 H   0  0  0  0  0  0  0  0  0  0  0  0
    3.5973   -0.3225    1.7298 H   0  0  0  0  0  0  0  0  0  0  0  0
    5.0503   -0.1549   -0.9779 H   0  0  0  0  0  0  0  0  0  0  0  0
    5.8082   -0.5812    0.5612 H   0  0  0  0  0  0  0  0  0  0  0  0
    4.5879   -1.6509   -0.1545 H   0  0  0  0  0  0  0  0  0  0  0  0
    5.0412    1.7904    1.9712 N   0  0  0  0  0  0  0  0  0  0  0  0
    5.5523    3.0907    2.3373 C   0  0  0  0  0  0  0  0  0  0  0  0
    5.3372    0.9918    2.5247 H   0  0  0  0  0  0  0  0  0  0  0  0
    6.4910    3.2818    1.7967 H   0  0  0  0  0  0  0  0  0  0  0  0
    4.8139    3.8623    2.0738 H   0  0  0  0  0  0  0  0  0  0  0  0
    5.7411    3.1186    3.4207 H   0  0  0  0  0  0  0  0  0  0  0  0
 23 25  2  0  0  0  0
 22 23  1  0  0  0  0
 24 26  1  0  0  0  0
 22 24  2  0  0  0  0
 25 27  1  0  0  0  0
 26 27  2  0  0  0  0
 21 22  1  0  0  0  0
 27 28  1  0  0  0  0
  1  3  1  0  0  0  0
  1  7  1  0  0  0  0
  1  2  2  0  0  0  0
 39 40  1  0  0  0  0
 40 48  1  0  0  0  0
 40 41  2  0  0  0  0
  8  9  1  0  0  0  0
  9 17  1  0  0  0  0
  9 10  2  0  0  0  0
 18 19  1  0  0  0  0
 19 38  1  0  0  0  0
 19 20  2  0  0  0  0
 39 42  1  0  0  0  0
  8 11  1  0  0  0  0
 48 49  1  0  0  0  0
 18 21  1  0  0  0  0
 38 39  1  0  0  0  0
  7  8  1  0  0  0  0
 17 18  1  0  0  0  0
 23 33  1  0  0  0  0
 24 34  1  0  0  0  0
 25 35  1  0  0  0  0
 26 36  1  0  0  0  0
  3  4  1  0  0  0  0
  3  5  1  0  0  0  0
  3  6  1  0  0  0  0
 42 45  1  0  0  0  0
 42 46  1  0  0  0  0
 42 47  1  0  0  0  0
 11 14  1  0  0  0  0
 11 15  1  0  0  0  0
 11 16  1  0  0  0  0
 49 51  1  0  0  0  0
 49 52  1  0  0  0  0
 49 53  1  0  0  0  0
 21 31  1  0  0  0  0
 21 32  1  0  0  0  0
 39 44  1  0  0  0  0
  8 13  1  0  0  0  0
 18 30  1  0  0  0  0
 48 50  1  0  0  0  0
  7 12  1  0  0  0  0
 38 43  1  0  0  0  0
 17 29  1  0  0  0  0
 28 37  1  0  0  0  0
M  END
$$$$

  -OEChem-05262214473D

 53 53  0     1  0  0  0  0  0999 V2000
   -1.9298    0.2574    3.9747 C   0  0  0  0  0  0  0  0  0  0  0  0
   -0.9825   -0.3573    3.4990 O   0  0  0  0  0  0  0  0  0  0  0  0
   -2.3617   -0.0250    5.3754 C   0  0  0  0  0  0  0  0  0  0  0  0
   -3.1214   -0.8213    5.4288 H   0  0  0  0  0  0  0  0  0  0  0  0
   -1.5305   -0.3726    6.0097 H   0  0  0  0  0  0  0  0  0  0  0  0
   -2.7997    0.8299    5.9150 H   0  0  0  0  0  0  0  0  0  0  0  0
   -2.6795    1.2298    3.3336 N   0  0  0  0  0  0  0  0  0  0  0  0
   -2.4327    1.6559    1.9812 C   0  0  2  0  0  0  0  0  0  0  0  0
   -1.0977    1.0705    1.5400 C   0  0  0  0  0  0  0  0  0  0  0  0
   -0.2256    0.7177    2.3313 O   0  0  0  0  0  0  0  0  0  0  0  0
   -2.4239    3.1726    1.8718 C   0  0  0  0  0  0  0  0  0  0  0  0
   -3.4446    1.6657    3.8454 H   0  0  0  0  0  0  0  0  0  0  0  0
   -3.2368    1.2374    1.3661 H   0  0  0  0  0  0  0  0  0  0  0  0
   -1.6248    3.6099    2.4815 H   0  0  0  0  0  0  0  0  0  0  0  0
   -2.2644    3.4949    0.8375 H   0  0  0  0  0  0  0  0  0  0  0  0
   -3.3741    3.5939    2.2175 H   0  0  0  0  0  0  0  0  0  0  0  0
   -0.9750    1.0274    0.1566 N   0  0  0  0  0  0  0  0  0  0  0  0
    0.2023    0.5266   -0.5070 C   0  0  2  0  0  0  0  0  0  0  0  0
    1.3114    0.4535    0.5363 C   0  0  0  0  0  0  0  0  0  0  0  0
    1.1383    0.7430    1.7183 O   0  0  0  0  0  0  0  0  0  0  0  0
    0.6303    1.4184   -1.6782 C   0  0  0  0  0  0  0  0  0  0  0  0
   -0.3626    1.4055   -2.8148 C   0  0  0  0  0  0  0  0  0  0  0  0
   -0.3556    0.3575   -3.7353 C   0  0  0  0  0  0  0  0  0  0  0  0
   -1.2868    2.4421   -2.9451 C   0  0  0  0  0  0  0  0  0  0  0  0
   -1.2728    0.3460   -4.7860 C   0  0  0  0  0  0  0  0  0  0  0  0
   -2.2041    2.4306   -3.9959 C   0  0  0  0  0  0  0  0  0  0  0  0
   -2.1971    1.3825   -4.9163 C   0  0  0  0  0  0  0  0  0  0  0  0
   -3.0912    1.3718   -5.9425 O   0  0  0  0  0  0  0  0  0  0  0  0
   -1.7582    1.3241   -0.4207 H   0  0  0  0  0  0  0  0  0  0  0  0
   -0.0383   -0.4877   -0.8468 H   0  0  0  0  0  0  0  0  0  0  0  0
    1.6186    1.1130   -2.0475 H   0  0  0  0  0  0  0  0  0  0  0  0
    0.7563    2.4567   -1.3436 H   0  0  0  0  0  0  0  0  0  0  0  0
    0.3609   -0.4541   -3.6414 H   0  0  0  0  0  0  0  0  0  0  0  0
   -1.2997    3.2627   -2.2324 H   0  0  0  0  0  0  0  0  0  0  0  0
   -1.2622   -0.4731   -5.5002 H   0  0  0  0  0  0  0  0  0  0  0  0
   -2.9212    3.2410   -4.0921 H   0  0  0  0  0  0  0  0  0  0  0  0
   -3.6635    2.1544   -5.8981 H   0  0  0  0  0  0  0  0  0  0  0  0
    2.5000   -0.0205   -0.0013 N   0  0  0  0  0  0  0  0  0  0  0  0
    3.7035   -0.2085    0.7766 C   0  0  2  0  0  0  0  0  0  0  0  0
    3.9620    1.0717    1.5600 C   0  0  0  0  0  0  0  0  0  0  0  0
    3.5095    2.1650    1.2267 O   0  0  0  0  0  0  0  0  0  0  0  0
    4.8891   -0.5505   -0.1124 C   0  0  0  0  0  0  0  0  0  0  0  0
    2.5253   -0.2466   -0.9912 H   0  0  0  0  0  0  0  0  0  0  0  0
    3.5046   -1.0299    1.4735 H   0  0  0  0  0  0  0  0  0  0  0  0
    5.1036    0.2609   -0.8174 H   0  0  0  0  0  0  0  0  0  0  0  0
    5.7937   -0.7206    0.4808 H   0  0  0  0  0  0  0  0  0  0  0  0
    4.6896   -1.4549   -0.6972 H   0  0  0  0  0  0  0  0  0  0  0  0
    4.7927    0.8573    2.6509 N   0  0  0  0  0  0  0  0  0  0  0  0
    5.1964    1.9183    3.5438 C   0  0  0  0  0  0  0  0  0  0  0  0
    5.1057   -0.0855    2.8629 H   0  0  0  0  0  0  0  0  0  0  0  0
    6.1516    2.3429    3.2014 H   0  0  0  0  0  0  0  0  0  0  0  0
    4.4271    2.7045    3.5503 H   0  0  0  0  0  0  0  0  0  0  0  0
    5.3177    1.5156    4.5603 H   0  0  0  0  0  0  0  0  0  0  0  0
 23 25  2  0  0  0  0
 22 23  1  0  0  0  0
 24 26  1  0  0  0  0
 22 24  2  0  0  0  0
 25 27  1  0  0  0  0
 26 27  2  0  0  0  0
 21 22  1  0  0  0  0
 27 28  1  0  0  0  0
  1  3  1  0  0  0  0
  1  7  1  0  0  0  0
  1  2  2  0  0  0  0
 39 40  1  0  0  0  0
 40 48  1  0  0  0  0
 40 41  2  0  0  0  0
  8  9  1  0  0  0  0
  9 17  1  0  0  0  0
  9 10  2  0  0  0  0
 18 19  1  0  0  0  0
 19 38  1  0  0  0  0
 19 20  2  0  0  0  0
 39 42  1  0  0  0  0
  8 11  1  0  0  0  0
 48 49  1  0  0  0  0
 18 21  1  0  0  0  0
 38 39  1  0  0  0  0
  7  8  1  0  0  0  0
 17 18  1  0  0  0  0
 23 33  1  0  0  0  0
 24 34  1  0  0  0  0
 25 35  1  0  0  0  0
 26 36  1  0  0  0  0
  3  4  1  0  0  0  0
  3  5  1  0  0  0  0
  3  6  1  0  0  0  0
 42 45  1  0  0  0  0
 42 46  1  0  0  0  0
 42 47  1  0  0  0  0
 11 14  1  0  0  0  0
 11 15  1  0  0  0  0
 11 16  1  0  0  0  0
 49 51  1  0  0  0  0
 49 52  1  0  0  0  0
 49 53  1  0  0  0  0
 21 31  1  0  0  0  0
 21 32  1  0  0  0  0
 39 44  1  0  0  0  0
  8 13  1  0  0  0  0
 18 30  1  0  0  0  0
 48 50  1  0  0  0  0
  7 12  1  0  0  0  0
 38 43  1  0  0  0  0
 17 29  1  0  0  0  0
 28 37  1  0  0  0  0
M  END
$$$$

  -OEChem-05262214473D

 53 53  0     1  0  0  0  0  0999 V2000
   -1.9298    0.2574    3.9747 C   0  0  0  0  0  0  0  0  0  0  0  0
   -0.9825   -0.3573    3.4990 O   0  0  0  0  0  0  0  0  0  0  0  0
   -2.3617   -0.0250    5.3754 C   0  0  0  0  0  0  0  0  0  0  0  0
   -3.1214   -0.8213    5.4288 H   0  0  0  0  0  0  0  0  0  0  0  0
   -1.5305   -0.3726    6.0097 H   0  0  0  0  0  0  0  0  0  0  0  0
   -2.7997    0.8299    5.9150 H   0  0  0  0  0  0  0  0  0  0  0  0
   -2.6795    1.2298    3.3336 N   0  0  0  0  0  0  0  0  0  0  0  0
   -2.4327    1.6559    1.9812 C   0  0  2  0  0  0  0  0  0  0  0  0
   -1.0977    1.0705    1.5400 C   0  0  0  0  0  0  0  0  0  0  0  0
   -0.2256    0.7177    2.3313 O   0  0  0  0  0  0  0  0  0  0  0  0
   -2.4239    3.1726    1.8718 C   0  0  0  0  0  0  0  0  0  0  0  0
   -3.4446    1.6657    3.8454 H   0  0  0  0  0  0  0  0  0  0  0  0
   -3.2368    1.2374    1.3661 H   0  0  0  0  0  0  0  0  0  0  0  0
   -1.6248    3.6099    2.4815 H   0  0  0  0  0  0  0  0  0  0  0  0
   -2.2644    3.4949    0.8375 H   0  0  0  0  0  0  0  0  0  0  0  0
   -3.3741    3.5939    2.2175 H   0  0  0  0  0  0  0  0  0  0  0  0
   -0.9750    1.0274    0.1566 N   0  0  0  0  0  0  0  0  0  0  0  0
    0.2023    0.5266   -0.5070 C   0  0  2  0  0  0  0  0  0  0  0  0
    1.3114    0.4535    0.5363 C   0  0  0  0  0  0  0  0  0  0  0  0
    1.0949    0.4788    1.7460 O   0  0  0  0  0  0  0  0  0  0  0  0
    0.6303    1.4184   -1.6782 C   0  0  0  0  0  0  0  0  0  0  0  0
   -0.3626    1.4055   -2.8148 C   0  0  0  0  0  0  0  0  0  0  0  0
   -0.3556    0.3575   -3.7353 C   0  0  0  0  0  0  0  0  0  0  0  0
   -1.2868    2.4421   -2.9451 C   0  0  0  0  0  0  0  0  0  0  0  0
   -1.2728    0.3460   -4.7860 C   0  0  0  0  0  0  0  0  0  0  0  0
   -2.2041    2.4306   -3.9959 C   0  0  0  0  0  0  0  0  0  0  0  0
   -2.1971    1.3825   -4.9163 C   0  0  0  0  0  0  0  0  0  0  0  0
   -3.0912    1.3718   -5.9425 O   0  0  0  0  0  0  0  0  0  0  0  0
   -1.7582    1.3241   -0.4207 H   0  0  0  0  0  0  0  0  0  0  0  0
   -0.0383   -0.4877   -0.8468 H   0  0  0  0  0  0  0  0  0  0  0  0
    1.6186    1.1130   -2.0475 H   0  0  0  0  0  0  0  0  0  0  0  0
    0.7563    2.4567   -1.3436 H   0  0  0  0  0  0  0  0  0  0  0  0
    0.3609   -0.4541   -3.6414 H   0  0  0  0  0  0  0  0  0  0  0  0
   -1.2997    3.2627   -2.2324 H   0  0  0  0  0  0  0  0  0  0  0  0
   -1.2622   -0.4731   -5.5002 H   0  0  0  0  0  0  0  0  0  0  0  0
   -2.9212    3.2410   -4.0921 H   0  0  0  0  0  0  0  0  0  0  0  0
   -3.6635    2.1544   -5.8981 H   0  0  0  0  0  0  0  0  0  0  0  0
    2.5630    0.3066   -0.0453 N   0  0  0  0  0  0  0  0  0  0  0  0
    3.7843    0.1894    0.7186 C   0  0  2  0  0  0  0  0  0  0  0  0
    3.8139    1.3232    1.7350 C   0  0  0  0  0  0  0  0  0  0  0  0
    3.1722    2.3628    1.5991 O   0  0  0  0  0  0  0  0  0  0  0  0
    5.0078    0.2360   -0.1834 C   0  0  0  0  0  0  0  0  0  0  0  0
    2.6237    0.2801   -1.0589 H   0  0  0  0  0  0  0  0  0  0  0  0
    3.7382   -0.7712    1.2432 H   0  0  0  0  0  0  0  0  0  0  0  0
    5.0709    1.1911   -0.7175 H   0  0  0  0  0  0  0  0  0  0  0  0
    5.9309    0.1184    0.3937 H   0  0  0  0  0  0  0  0  0  0  0  0
    4.9702   -0.5620   -0.9328 H   0  0  0  0  0  0  0  0  0  0  0  0
    4.6745    1.0556    2.7904 N   0  0  0  0  0  0  0  0  0  0  0  0
    4.8866    1.9823    3.8777 C   0  0  0  0  0  0  0  0  0  0  0  0
    5.1515    0.1597    2.8314 H   0  0  0  0  0  0  0  0  0  0  0  0
    5.7492    2.6255    3.6490 H   0  0  0  0  0  0  0  0  0  0  0  0
    3.9894    2.6052    4.0086 H   0  0  0  0  0  0  0  0  0  0  0  0
    5.0824    1.4221    4.8039 H   0  0  0  0  0  0  0  0  0  0  0  0
 23 25  2  0  0  0  0
 22 23  1  0  0  0  0
 24 26  1  0  0  0  0
 22 24  2  0  0  0  0
 25 27  1  0  0  0  0
 26 27  2  0  0  0  0
 21 22  1  0  0  0  0
 27 28  1  0  0  0  0
  1  3  1  0  0  0  0
  1  7  1  0  0  0  0
  1  2  2  0  0  0  0
 39 40  1  0  0  0  0
 40 48  1  0  0  0  0
 40 41  2  0  0  0  0
  8  9  1  0  0  0  0
  9 17  1  0  0  0  0
  9 10  2  0  0  0  0
 18 19  1  0  0  0  0
 19 38  1  0  0  0  0
 19 20  2  0  0  0  0
 39 42  1  0  0  0  0
  8 11  1  0  0  0  0
 48 49  1  0  0  0  0
 18 21  1  0  0  0  0
 38 39  1  0  0  0  0
  7  8  1  0  0  0  0
 17 18  1  0  0  0  0
 23 33  1  0  0  0  0
 24 34  1  0  0  0  0
 25 35  1  0  0  0  0
 26 36  1  0  0  0  0
  3  4  1  0  0  0  0
  3  5  1  0  0  0  0
  3  6  1  0  0  0  0
 42 45  1  0  0  0  0
 42 46  1  0  0  0  0
 42 47  1  0  0  0  0
 11 14  1  0  0  0  0
 11 15  1  0  0  0  0
 11 16  1  0  0  0  0
 49 51  1  0  0  0  0
 49 52  1  0  0  0  0
 49 53  1  0  0  0  0
 21 31  1  0  0  0  0
 21 32  1  0  0  0  0
 39 44  1  0  0  0  0
  8 13  1  0  0  0  0
 18 30  1  0  0  0  0
 48 50  1  0  0  0  0
  7 12  1  0  0  0  0
 38 43  1  0  0  0  0
 17 29  1  0  0  0  0
 28 37  1  0  0  0  0
M  END
$$$$

  -OEChem-05262214473D

 53 53  0     1  0  0  0  0  0999 V2000
   -1.9298    0.2574    3.9747 C   0  0  0  0  0  0  0  0  0  0  0  0
   -0.9825   -0.3573    3.4990 O   0  0  0  0  0  0  0  0  0  0  0  0
   -2.3617   -0.0250    5.3754 C   0  0  0  0  0  0  0  0  0  0  0  0
   -3.1214   -0.8213    5.4288 H   0  0  0  0  0  0  0  0  0  0  0  0
   -1.5305   -0.3726    6.0097 H   0  0  0  0  0  0  0  0  0  0  0  0
   -2.7997    0.8299    5.9150 H   0  0  0  0  0  0  0  0  0  0  0  0
   -2.6795    1.2298    3.3336 N   0  0  0  0  0  0  0  0  0  0  0  0
   -2.4327    1.6559    1.9812 C   0  0  2  0  0  0  0  0  0  0  0  0
   -1.0977    1.0705    1.5400 C   0  0  0  0  0  0  0  0  0  0  0  0
   -0.2256    0.7177    2.3313 O   0  0  0  0  0  0  0  0  0  0  0  0
   -2.4239    3.1726    1.8718 C   0  0  0  0  0  0  0  0  0  0  0  0
   -3.4446    1.6657    3.8454 H   0  0  0  0  0  0  0  0  0  0  0  0
   -3.2368    1.2374    1.3661 H   0  0  0  0  0  0  0  0  0  0  0  0
   -1.6248    3.6099    2.4815 H   0  0  0  0  0  0  0  0  0  0  0  0
   -2.2644    3.4949    0.8375 H   0  0  0  0  0  0  0  0  0  0  0  0
   -3.3741    3.5939    2.2175 H   0  0  0  0  0  0  0  0  0  0  0  0
   -0.9750    1.0274    0.1566 N   0  0  0  0  0  0  0  0  0  0  0  0
    0.2023    0.5266   -0.5070 C   0  0  2  0  0  0  0  0  0  0  0  0
    1.3114    0.4535    0.5363 C   0  0  0  0  0  0  0  0  0  0  0  0
    1.0993    0.2107    1.7225 O   0  0  0  0  0  0  0  0  0  0  0  0
    0.6303    1.4184   -1.6782 C   0  0  0  0  0  0  0  0  0  0  0  0
   -0.3626    1.4055   -2.8148 C   0  0  0  0  0  0  0  0  0  0  0  0
   -0.3556    0.3575   -3.7353 C   0  0  0  0  0  0  0  0  0  0  0  0
   -1.2868    2.4421   -2.9451 C   0  0  0  0  0  0  0  0  0  0  0  0
   -1.2728    0.3460   -4.7860 C   0  0  0  0  0  0  0  0  0  0  0  0
   -2.2041    2.4306   -3.9959 C   0  0  0  0  0  0  0  0  0  0  0  0
   -2.1971    1.3825   -4.9163 C   0  0  0  0  0  0  0  0  0  0  0  0
   -3.0912    1.3718   -5.9425 O   0  0  0  0  0  0  0  0  0  0  0  0
   -1.7582    1.3241   -0.4207 H   0  0  0  0  0  0  0  0  0  0  0  0
   -0.0383   -0.4877   -0.8468 H   0  0  0  0  0  0  0  0  0  0  0  0
    1.6186    1.1130   -2.0475 H   0  0  0  0  0  0  0  0  0  0  0  0
    0.7563    2.4567   -1.3436 H   0  0  0  0  0  0  0  0  0  0  0  0
    0.3609   -0.4541   -3.6414 H   0  0  0  0  0  0  0  0  0  0  0  0
   -1.2997    3.2627   -2.2324 H   0  0  0  0  0  0  0  0  0  0  0  0
   -1.2622   -0.4731   -5.5002 H   0  0  0  0  0  0  0  0  0  0  0  0
   -2.9212    3.2410   -4.0921 H   0  0  0  0  0  0  0  0  0  0  0  0
   -3.6635    2.1544   -5.8981 H   0  0  0  0  0  0  0  0  0  0  0  0
    2.5665    0.6420   -0.0255 N   0  0  0  0  0  0  0  0  0  0  0  0
    3.7926    0.5989    0.7385 C   0  0  2  0  0  0  0  0  0  0  0  0
    3.6241    1.5068    1.9496 C   0  0  0  0  0  0  0  0  0  0  0  0
    2.8067    2.4240    1.9919 O   0  0  0  0  0  0  0  0  0  0  0  0
    4.9840    1.0301   -0.1025 C   0  0  0  0  0  0  0  0  0  0  0  0
    2.6263    0.8191   -1.0239 H   0  0  0  0  0  0  0  0  0  0  0  0
    3.9209   -0.4365    1.0725 H   0  0  0  0  0  0  0  0  0  0  0  0
    4.8734    2.0650   -0.4463 H   0  0  0  0  0  0  0  0  0  0  0  0
    5.9159    0.9696    0.4693 H   0  0  0  0  0  0  0  0  0  0  0  0
    5.0859    0.3945   -0.9888 H   0  0  0  0  0  0  0  0  0  0  0  0
    4.5234    1.1998    2.9611 N   0  0  0  0  0  0  0  0  0  0  0  0
    4.5718    1.9264    4.2084 C   0  0  0  0  0  0  0  0  0  0  0  0
    5.1528    0.4106    2.8477 H   0  0  0  0  0  0  0  0  0  0  0  0
    5.3049    2.7428    4.1296 H   0  0  0  0  0  0  0  0  0  0  0  0
    3.5786    2.3455    4.4272 H   0  0  0  0  0  0  0  0  0  0  0  0
    4.8686    1.2443    5.0187 H   0  0  0  0  0  0  0  0  0  0  0  0
 23 25  2  0  0  0  0
 22 23  1  0  0  0  0
 24 26  1  0  0  0  0
 22 24  2  0  0  0  0
 25 27  1  0  0  0  0
 26 27  2  0  0  0  0
 21 22  1  0  0  0  0
 27 28  1  0  0  0  0
  1  3  1  0  0  0  0
  1  7  1  0  0  0  0
  1  2  2  0  0  0  0
 39 40  1  0  0  0  0
 40 48  1  0  0  0  0
 40 41  2  0  0  0  0
  8  9  1  0  0  0  0
  9 17  1  0  0  0  0
  9 10  2  0  0  0  0
 18 19  1  0  0  0  0
 19 38  1  0  0  0  0
 19 20  2  0  0  0  0
 39 42  1  0  0  0  0
  8 11  1  0  0  0  0
 48 49  1  0  0  0  0
 18 21  1  0  0  0  0
 38 39  1  0  0  0  0
  7  8  1  0  0  0  0
 17 18  1  0  0  0  0
 23 33  1  0  0  0  0
 24 34  1  0  0  0  0
 25 35  1  0  0  0  0
 26 36  1  0  0  0  0
  3  4  1  0  0  0  0
  3  5  1  0  0  0  0
  3  6  1  0  0  0  0
 42 45  1  0  0  0  0
 42 46  1  0  0  0  0
 42 47  1  0  0  0  0
 11 14  1  0  0  0  0
 11 15  1  0  0  0  0
 11 16  1  0  0  0  0
 49 51  1  0  0  0  0
 49 52  1  0  0  0  0
 49 53  1  0  0  0  0
 21 31  1  0  0  0  0
 21 32  1  0  0  0  0
 39 44  1  0  0  0  0
  8 13  1  0  0  0  0
 18 30  1  0  0  0  0
 48 50  1  0  0  0  0
  7 12  1  0  0  0  0
 38 43  1  0  0  0  0
 17 29  1  0  0  0  0
 28 37  1  0  0  0  0
M  END
$$$$

  -OEChem-05262214473D

 53 53  0     1  0  0  0  0  0999 V2000
   -1.9298    0.2574    3.9747 C   0  0  0  0  0  0  0  0  0  0  0  0
   -0.9825   -0.3573    3.4990 O   0  0  0  0  0  0  0  0  0  0  0  0
   -2.3617   -0.0250    5.3754 C   0  0  0  0  0  0  0  0  0  0  0  0
   -3.1214   -0.8213    5.4288 H   0  0  0  0  0  0  0  0  0  0  0  0
   -1.5305   -0.3726    6.0097 H   0  0  0  0  0  0  0  0  0  0  0  0
   -2.7997    0.8299    5.9150 H   0  0  0  0  0  0  0  0  0  0  0  0
   -2.6795    1.2298    3.3336 N   0  0  0  0  0  0  0  0  0  0  0  0
   -2.4327    1.6559    1.9812 C   0  0  2  0  0  0  0  0  0  0  0  0
   -1.0977    1.0705    1.5400 C   0  0  0  0  0  0  0  0  0  0  0  0
   -0.2256    0.7177    2.3313 O   0  0  0  0  0  0  0  0  0  0  0  0
   -2.4239    3.1726    1.8718 C   0  0  0  0  0  0  0  0  0  0  0  0
   -3.4446    1.6657    3.8454 H   0  0  0  0  0  0  0  0  0  0  0  0
   -3.2368    1.2374    1.3661 H   0  0  0  0  0  0  0  0  0  0  0  0
   -1.6248    3.6099    2.4815 H   0  0  0  0  0  0  0  0  0  0  0  0
   -2.2644    3.4949    0.8375 H   0  0  0  0  0  0  0  0  0  0  0  0
   -3.3741    3.5939    2.2175 H   0  0  0  0  0  0  0  0  0  0  0  0
   -0.9750    1.0274    0.1566 N   0  0  0  0  0  0  0  0  0  0  0  0
    0.2023    0.5266   -0.5070 C   0  0  2  0  0  0  0  0  0  0  0  0
    1.3114    0.4535    0.5363 C   0  0  0  0  0  0  0  0  0  0  0  0
    1.1514   -0.0430    1.6493 O   0  0  0  0  0  0  0  0  0  0  0  0
    0.6303    1.4184   -1.6782 C   0  0  0  0  0  0  0  0  0  0  0  0
   -0.3626    1.4055   -2.8148 C   0  0  0  0  0  0  0  0  0  0  0  0
   -0.3556    0.3575   -3.7353 C   0  0  0  0  0  0  0  0  0  0  0  0
   -1.2868    2.4421   -2.9451 C   0  0  0  0  0  0  0  0  0  0  0  0
   -1.2728    0.3460   -4.7860 C   0  0  0  0  0  0  0  0  0  0  0  0
   -2.2041    2.4306   -3.9959 C   0  0  0  0  0  0  0  0  0  0  0  0
   -2.1971    1.3825   -4.9163 C   0  0  0  0  0  0  0  0  0  0  0  0
   -3.0912    1.3718   -5.9425 O   0  0  0  0  0  0  0  0  0  0  0  0
   -1.7582    1.3241   -0.4207 H   0  0  0  0  0  0  0  0  0  0  0  0
   -0.0383   -0.4877   -0.8468 H   0  0  0  0  0  0  0  0  0  0  0  0
    1.6186    1.1130   -2.0475 H   0  0  0  0  0  0  0  0  0  0  0  0
    0.7563    2.4567   -1.3436 H   0  0  0  0  0  0  0  0  0  0  0  0
    0.3609   -0.4541   -3.6414 H   0  0  0  0  0  0  0  0  0  0  0  0
   -1.2997    3.2627   -2.2324 H   0  0  0  0  0  0  0  0  0  0  0  0
   -1.2622   -0.4731   -5.5002 H   0  0  0  0  0  0  0  0  0  0  0  0
   -2.9212    3.2410   -4.0921 H   0  0  0  0  0  0  0  0  0  0  0  0
   -3.6635    2.1544   -5.8981 H   0  0  0  0  0  0  0  0  0  0  0  0
    2.5102    0.9628    0.0568 N   0  0  0  0  0  0  0  0  0  0  0  0
    3.7278    0.9922    0.8350 C   0  0  2  0  0  0  0  0  0  0  0  0
    3.4056    1.6102    2.1892 C   0  0  0  0  0  0  0  0  0  0  0  0
    2.4380    2.3443    2.3783 O   0  0  0  0  0  0  0  0  0  0  0  0
    4.8194    1.7776    0.1249 C   0  0  0  0  0  0  0  0  0  0  0  0
    2.5330    1.3336   -0.8886 H   0  0  0  0  0  0  0  0  0  0  0  0
    4.0402   -0.0486    0.9729 H   0  0  0  0  0  0  0  0  0  0  0  0
    4.5244    2.8230   -0.0222 H   0  0  0  0  0  0  0  0  0  0  0  0
    5.7497    1.7749    0.7024 H   0  0  0  0  0  0  0  0  0  0  0  0
    5.0289    1.3495   -0.8613 H   0  0  0  0  0  0  0  0  0  0  0  0
    4.3499    1.2803    3.1513 N   0  0  0  0  0  0  0  0  0  0  0  0
    4.2736    1.7544    4.5134 C   0  0  0  0  0  0  0  0  0  0  0  0
    5.1093    0.6501    2.9106 H   0  0  0  0  0  0  0  0  0  0  0  0
    4.8489    2.6869    4.6103 H   0  0  0  0  0  0  0  0  0  0  0  0
    3.2226    1.9431    4.7775 H   0  0  0  0  0  0  0  0  0  0  0  0
    4.6909    0.9942    5.1901 H   0  0  0  0  0  0  0  0  0  0  0  0
 23 25  2  0  0  0  0
 22 23  1  0  0  0  0
 24 26  1  0  0  0  0
 22 24  2  0  0  0  0
 25 27  1  0  0  0  0
 26 27  2  0  0  0  0
 21 22  1  0  0  0  0
 27 28  1  0  0  0  0
  1  3  1  0  0  0  0
  1  7  1  0  0  0  0
  1  2  2  0  0  0  0
 39 40  1  0  0  0  0
 40 48  1  0  0  0  0
 40 41  2  0  0  0  0
  8  9  1  0  0  0  0
  9 17  1  0  0  0  0
  9 10  2  0  0  0  0
 18 19  1  0  0  0  0
 19 38  1  0  0  0  0
 19 20  2  0  0  0  0
 39 42  1  0  0  0  0
  8 11  1  0  0  0  0
 48 49  1  0  0  0  0
 18 21  1  0  0  0  0
 38 39  1  0  0  0  0
  7  8  1  0  0  0  0
 17 18  1  0  0  0  0
 23 33  1  0  0  0  0
 24 34  1  0  0  0  0
 25 35  1  0  0  0  0
 26 36  1  0  0  0  0
  3  4  1  0  0  0  0
  3  5  1  0  0  0  0
  3  6  1  0  0  0  0
 42 45  1  0  0  0  0
 42 46  1  0  0  0  0
 42 47  1  0  0  0  0
 11 14  1  0  0  0  0
 11 15  1  0  0  0  0
 11 16  1  0  0  0  0
 49 51  1  0  0  0  0
 49 52  1  0  0  0  0
 49 53  1  0  0  0  0
 21 31  1  0  0  0  0
 21 32  1  0  0  0  0
 39 44  1  0  0  0  0
  8 13  1  0  0  0  0
 18 30  1  0  0  0  0
 48 50  1  0  0  0  0
  7 12  1  0  0  0  0
 38 43  1  0  0  0  0
 17 29  1  0  0  0  0
 28 37  1  0  0  0  0
M  END
$$$$

  -OEChem-05262214473D

 53 53  0     1  0  0  0  0  0999 V2000
   -1.9298    0.2574    3.9747 C   0  0  0  0  0  0  0  0  0  0  0  0
   -0.9825   -0.3573    3.4990 O   0  0  0  0  0  0  0  0  0  0  0  0
   -2.3617   -0.0250    5.3754 C   0  0  0  0  0  0  0  0  0  0  0  0
   -3.1214   -0.8213    5.4288 H   0  0  0  0  0  0  0  0  0  0  0  0
   -1.5305   -0.3726    6.0097 H   0  0  0  0  0  0  0  0  0  0  0  0
   -2.7997    0.8299    5.9150 H   0  0  0  0  0  0  0  0  0  0  0  0
   -2.6795    1.2298    3.3336 N   0  0  0  0  0  0  0  0  0  0  0  0
   -2.4327    1.6559    1.9812 C   0  0  2  0  0  0  0  0  0  0  0  0
   -1.0977    1.0705    1.5400 C   0  0  0  0  0  0  0  0  0  0  0  0
   -0.2256    0.7177    2.3313 O   0  0  0  0  0  0  0  0  0  0  0  0
   -2.4239    3.1726    1.8718 C   0  0  0  0  0  0  0  0  0  0  0  0
   -3.4446    1.6657    3.8454 H   0  0  0  0  0  0  0  0  0  0  0  0
   -3.2368    1.2374    1.3661 H   0  0  0  0  0  0  0  0  0  0  0  0
   -1.6248    3.6099    2.4815 H   0  0  0  0  0  0  0  0  0  0  0  0
   -2.2644    3.4949    0.8375 H   0  0  0  0  0  0  0  0  0  0  0  0
   -3.3741    3.5939    2.2175 H   0  0  0  0  0  0  0  0  0  0  0  0
   -0.9750    1.0274    0.1566 N   0  0  0  0  0  0  0  0  0  0  0  0
    0.2023    0.5266   -0.5070 C   0  0  2  0  0  0  0  0  0  0  0  0
    1.3114    0.4535    0.5363 C   0  0  0  0  0  0  0  0  0  0  0  0
    1.2476   -0.2651    1.5315 O   0  0  0  0  0  0  0  0  0  0  0  0
    0.6303    1.4184   -1.6782 C   0  0  0  0  0  0  0  0  0  0  0  0
   -0.3626    1.4055   -2.8148 C   0  0  0  0  0  0  0  0  0  0  0  0
   -0.3556    0.3575   -3.7353 C   0  0  0  0  0  0  0  0  0  0  0  0
   -1.2868    2.4421   -2.9451 C   0  0  0  0  0  0  0  0  0  0  0  0
   -1.2728    0.3460   -4.7860 C   0  0  0  0  0  0  0  0  0  0  0  0
   -2.2041    2.4306   -3.9959 C   0  0  0  0  0  0  0  0  0  0  0  0
   -2.1971    1.3825   -4.9163 C   0  0  0  0  0  0  0  0  0  0  0  0
   -3.0912    1.3718   -5.9425 O   0  0  0  0  0  0  0  0  0  0  0  0
   -1.7582    1.3241   -0.4207 H   0  0  0  0  0  0  0  0  0  0  0  0
   -0.0383   -0.4877   -0.8468 H   0  0  0  0  0  0  0  0  0  0  0  0
    1.6186    1.1130   -2.0475 H   0  0  0  0  0  0  0  0  0  0  0  0
    0.7563    2.4567   -1.3436 H   0  0  0  0  0  0  0  0  0  0  0  0
    0.3609   -0.4541   -3.6414 H   0  0  0  0  0  0  0  0  0  0  0  0
   -1.2997    3.2627   -2.2324 H   0  0  0  0  0  0  0  0  0  0  0  0
   -1.2622   -0.4731   -5.5002 H   0  0  0  0  0  0  0  0  0  0  0  0
   -2.9212    3.2410   -4.0921 H   0  0  0  0  0  0  0  0  0  0  0  0
   -3.6635    2.1544   -5.8981 H   0  0  0  0  0  0  0  0  0  0  0  0
    2.3980    1.2472    0.1961 N   0  0  0  0  0  0  0  0  0  0  0  0
    3.5943    1.3425    1.0014 C   0  0  2  0  0  0  0  0  0  0  0  0
    3.1733    1.6262    2.4373 C   0  0  0  0  0  0  0  0  0  0  0  0
    2.0911    2.1293    2.7320 O   0  0  0  0  0  0  0  0  0  0  0  0
    4.5251    2.4278    0.4833 C   0  0  0  0  0  0  0  0  0  0  0  0
    2.3499    1.7885   -0.6621 H   0  0  0  0  0  0  0  0  0  0  0  0
    4.0879    0.3658    0.9512 H   0  0  0  0  0  0  0  0  0  0  0  0
    4.0478    3.4136    0.5259 H   0  0  0  0  0  0  0  0  0  0  0  0
    5.4437    2.4794    1.0771 H   0  0  0  0  0  0  0  0  0  0  0  0
    4.8031    2.2379   -0.5590 H   0  0  0  0  0  0  0  0  0  0  0  0
    4.1656    1.2914    3.3479 N   0  0  0  0  0  0  0  0  0  0  0  0
    4.0122    1.4780    4.7719 C   0  0  0  0  0  0  0  0  0  0  0  0
    5.0241    0.8619    3.0160 H   0  0  0  0  0  0  0  0  0  0  0  0
    4.4125    2.4617    5.0585 H   0  0  0  0  0  0  0  0  0  0  0  0
    2.9456    1.4253    5.0356 H   0  0  0  0  0  0  0  0  0  0  0  0
    4.5615    0.6889    5.3063 H   0  0  0  0  0  0  0  0  0  0  0  0
 23 25  2  0  0  0  0
 22 23  1  0  0  0  0
 24 26  1  0  0  0  0
 22 24  2  0  0  0  0
 25 27  1  0  0  0  0
 26 27  2  0  0  0  0
 21 22  1  0  0  0  0
 27 28  1  0  0  0  0
  1  3  1  0  0  0  0
  1  7  1  0  0  0  0
  1  2  2  0  0  0  0
 39 40  1  0  0  0  0
 40 48  1  0  0  0  0
 40 41  2  0  0  0  0
  8  9  1  0  0  0  0
  9 17  1  0  0  0  0
  9 10  2  0  0  0  0
 18 19  1  0  0  0  0
 19 38  1  0  0  0  0
 19 20  2  0  0  0  0
 39 42  1  0  0  0  0
  8 11  1  0  0  0  0
 48 49  1  0  0  0  0
 18 21  1  0  0  0  0
 38 39  1  0  0  0  0
  7  8  1  0  0  0  0
 17 18  1  0  0  0  0
 23 33  1  0  0  0  0
 24 34  1  0  0  0  0
 25 35  1  0  0  0  0
 26 36  1  0  0  0  0
  3  4  1  0  0  0  0
  3  5  1  0  0  0  0
  3  6  1  0  0  0  0
 42 45  1  0  0  0  0
 42 46  1  0  0  0  0
 42 47  1  0  0  0  0
 11 14  1  0  0  0  0
 11 15  1  0  0  0  0
 11 16  1  0  0  0  0
 49 51  1  0  0  0  0
 49 52  1  0  0  0  0
 49 53  1  0  0  0  0
 21 31  1  0  0  0  0
 21 32  1  0  0  0  0
 39 44  1  0  0  0  0
  8 13  1  0  0  0  0
 18 30  1  0  0  0  0
 48 50  1  0  0  0  0
  7 12  1  0  0  0  0
 38 43  1  0  0  0  0
 17 29  1  0  0  0  0
 28 37  1  0  0  0  0
M  END
$$$$

  -OEChem-05262214473D

 53 53  0     1  0  0  0  0  0999 V2000
   -1.9298    0.2574    3.9747 C   0  0  0  0  0  0  0  0  0  0  0  0
   -0.9825   -0.3573    3.4990 O   0  0  0  0  0  0  0  0  0  0  0  0
   -2.3617   -0.0250    5.3754 C   0  0  0  0  0  0  0  0  0  0  0  0
   -3.1214   -0.8213    5.4288 H   0  0  0  0  0  0  0  0  0  0  0  0
   -1.5305   -0.3726    6.0097 H   0  0  0  0  0  0  0  0  0  0  0  0
   -2.7997    0.8299    5.9150 H   0  0  0  0  0  0  0  0  0  0  0  0
   -2.6795    1.2298    3.3336 N   0  0  0  0  0  0  0  0  0  0  0  0
   -2.4327    1.6559    1.9812 C   0  0  2  0  0  0  0  0  0  0  0  0
   -1.0977    1.0705    1.5400 C   0  0  0  0  0  0  0  0  0  0  0  0
   -0.2256    0.7177    2.3313 O   0  0  0  0  0  0  0  0  0  0  0  0
   -2.4239    3.1726    1.8718 C   0  0  0  0  0  0  0  0  0  0  0  0
   -3.4446    1.6657    3.8454 H   0  0  0  0  0  0  0  0  0  0  0  0
   -3.2368    1.2374    1.3661 H   0  0  0  0  0  0  0  0  0  0  0  0
   -1.6248    3.6099    2.4815 H   0  0  0  0  0  0  0  0  0  0  0  0
   -2.2644    3.4949    0.8375 H   0  0  0  0  0  0  0  0  0  0  0  0
   -3.3741    3.5939    2.2175 H   0  0  0  0  0  0  0  0  0  0  0  0
   -0.9750    1.0274    0.1566 N   0  0  0  0  0  0  0  0  0  0  0  0
    0.2023    0.5266   -0.5070 C   0  0  2  0  0  0  0  0  0  0  0  0
    1.3114    0.4535    0.5363 C   0  0  0  0  0  0  0  0  0  0  0  0
    1.3813   -0.4404    1.3771 O   0  0  0  0  0  0  0  0  0  0  0  0
    0.6303    1.4184   -1.6782 C   0  0  0  0  0  0  0  0  0  0  0  0
   -0.3626    1.4055   -2.8148 C   0  0  0  0  0  0  0  0  0  0  0  0
   -0.3556    0.3575   -3.7353 C   0  0  0  0  0  0  0  0  0  0  0  0
   -1.2868    2.4421   -2.9451 C   0  0  0  0  0  0  0  0  0  0  0  0
   -1.2728    0.3460   -4.7860 C   0  0  0  0  0  0  0  0  0  0  0  0
   -2.2041    2.4306   -3.9959 C   0  0  0  0  0  0  0  0  0  0  0  0
   -2.1971    1.3825   -4.9163 C   0  0  0  0  0  0  0  0  0  0  0  0
   -3.0912    1.3718   -5.9425 O   0  0  0  0  0  0  0  0  0  0  0  0
   -1.7582    1.3241   -0.4207 H   0  0  0  0  0  0  0  0  0  0  0  0
   -0.0383   -0.4877   -0.8468 H   0  0  0  0  0  0  0  0  0  0  0  0
    1.6186    1.1130   -2.0475 H   0  0  0  0  0  0  0  0  0  0  0  0
    0.7563    2.4567   -1.3436 H   0  0  0  0  0  0  0  0  0  0  0  0
    0.3609   -0.4541   -3.6414 H   0  0  0  0  0  0  0  0  0  0  0  0
   -1.2997    3.2627   -2.2324 H   0  0  0  0  0  0  0  0  0  0  0  0
   -1.2622   -0.4731   -5.5002 H   0  0  0  0  0  0  0  0  0  0  0  0
   -2.9212    3.2410   -4.0921 H   0  0  0  0  0  0  0  0  0  0  0  0
   -3.6635    2.1544   -5.8981 H   0  0  0  0  0  0  0  0  0  0  0  0
    2.2375    1.4759    0.3827 N   0  0  0  0  0  0  0  0  0  0  0  0
    3.4013    1.6258    1.2264 C   0  0  2  0  0  0  0  0  0  0  0  0
    2.9430    1.5539    2.6771 C   0  0  0  0  0  0  0  0  0  0  0  0
    1.7898    1.7936    3.0288 O   0  0  0  0  0  0  0  0  0  0  0  0
    4.1213    2.9361    0.9482 C   0  0  0  0  0  0  0  0  0  0  0  0
    2.0898    2.1528   -0.3600 H   0  0  0  0  0  0  0  0  0  0  0  0
    4.0609    0.7787    1.0088 H   0  0  0  0  0  0  0  0  0  0  0  0
    3.4760    3.7964    1.1606 H   0  0  0  0  0  0  0  0  0  0  0  0
    5.0186    3.0351    1.5680 H   0  0  0  0  0  0  0  0  0  0  0  0
    4.4240    2.9990   -0.1026 H   0  0  0  0  0  0  0  0  0  0  0  0
    3.9832    1.2325    3.5377 N   0  0  0  0  0  0  0  0  0  0  0  0
    3.8055    1.1161    4.9663 C   0  0  0  0  0  0  0  0  0  0  0  0
    4.9031    1.0315    3.1566 H   0  0  0  0  0  0  0  0  0  0  0  0
    4.0252    2.0824    5.4436 H   0  0  0  0  0  0  0  0  0  0  0  0
    2.7665    0.8275    5.1841 H   0  0  0  0  0  0  0  0  0  0  0  0
    4.4891    0.3492    5.3594 H   0  0  0  0  0  0  0  0  0  0  0  0
 23 25  2  0  0  0  0
 22 23  1  0  0  0  0
 24 26  1  0  0  0  0
 22 24  2  0  0  0  0
 25 27  1  0  0  0  0
 26 27  2  0  0  0  0
 21 22  1  0  0  0  0
 27 28  1  0  0  0  0
  1  3  1  0  0  0  0
  1  7  1  0  0  0  0
  1  2  2  0  0  0  0
 39 40  1  0  0  0  0
 40 48  1  0  0  0  0
 40 41  2  0  0  0  0
  8  9  1  0  0  0  0
  9 17  1  0  0  0  0
  9 10  2  0  0  0  0
 18 19  1  0  0  0  0
 19 38  1  0  0  0  0
 19 20  2  0  0  0  0
 39 42  1  0  0  0  0
  8 11  1  0  0  0  0
 48 49  1  0  0  0  0
 18 21  1  0  0  0  0
 38 39  1  0  0  0  0
  7  8  1  0  0  0  0
 17 18  1  0  0  0  0
 23 33  1  0  0  0  0
 24 34  1  0  0  0  0
 25 35  1  0  0  0  0
 26 36  1  0  0  0  0
  3  4  1  0  0  0  0
  3  5  1  0  0  0  0
  3  6  1  0  0  0  0
 42 45  1  0  0  0  0
 42 46  1  0  0  0  0
 42 47  1  0  0  0  0
 11 14  1  0  0  0  0
 11 15  1  0  0  0  0
 11 16  1  0  0  0  0
 49 51  1  0  0  0  0
 49 52  1  0  0  0  0
 49 53  1  0  0  0  0
 21 31  1  0  0  0  0
 21 32  1  0  0  0  0
 39 44  1  0  0  0  0
  8 13  1  0  0  0  0
 18 30  1  0  0  0  0
 48 50  1  0  0  0  0
  7 12  1  0  0  0  0
 38 43  1  0  0  0  0
 17 29  1  0  0  0  0
 28 37  1  0  0  0  0
M  END
$$$$

  -OEChem-05262214473D

 53 53  0     1  0  0  0  0  0999 V2000
   -1.9298    0.2574    3.9747 C   0  0  0  0  0  0  0  0  0  0  0  0
   -0.9825   -0.3573    3.4990 O   0  0  0  0  0  0  0  0  0  0  0  0
   -2.3617   -0.0250    5.3754 C   0  0  0  0  0  0  0  0  0  0  0  0
   -3.1214   -0.8213    5.4288 H   0  0  0  0  0  0  0  0  0  0  0  0
   -1.5305   -0.3726    6.0097 H   0  0  0  0  0  0  0  0  0  0  0  0
   -2.7997    0.8299    5.9150 H   0  0  0  0  0  0  0  0  0  0  0  0
   -2.6795    1.2298    3.3336 N   0  0  0  0  0  0  0  0  0  0  0  0
   -2.4327    1.6559    1.9812 C   0  0  2  0  0  0  0  0  0  0  0  0
   -1.0977    1.0705    1.5400 C   0  0  0  0  0  0  0  0  0  0  0  0
   -0.2256    0.7177    2.3313 O   0  0  0  0  0  0  0  0  0  0  0  0
   -2.4239    3.1726    1.8718 C   0  0  0  0  0  0  0  0  0  0  0  0
   -3.4446    1.6657    3.8454 H   0  0  0  0  0  0  0  0  0  0  0  0
   -3.2368    1.2374    1.3661 H   0  0  0  0  0  0  0  0  0  0  0  0
   -1.6248    3.6099    2.4815 H   0  0  0  0  0  0  0  0  0  0  0  0
   -2.2644    3.4949    0.8375 H   0  0  0  0  0  0  0  0  0  0  0  0
   -3.3741    3.5939    2.2175 H   0  0  0  0  0  0  0  0  0  0  0  0
   -0.9750    1.0274    0.1566 N   0  0  0  0  0  0  0  0  0  0  0  0
    0.2023    0.5266   -0.5070 C   0  0  2  0  0  0  0  0  0  0  0  0
    1.3114    0.4535    0.5363 C   0  0  0  0  0  0  0  0  0  0  0  0
    1.5434   -0.5570    1.1966 O   0  0  0  0  0  0  0  0  0  0  0  0
    0.6303    1.4184   -1.6782 C   0  0  0  0  0  0  0  0  0  0  0  0
   -0.3626    1.4055   -2.8148 C   0  0  0  0  0  0  0  0  0  0  0  0
   -0.3556    0.3575   -3.7353 C   0  0  0  0  0  0  0  0  0  0  0  0
   -1.2868    2.4421   -2.9451 C   0  0  0  0  0  0  0  0  0  0  0  0
   -1.2728    0.3460   -4.7860 C   0  0  0  0  0  0  0  0  0  0  0  0
   -2.2041    2.4306   -3.9959 C   0  0  0  0  0  0  0  0  0  0  0  0
   -2.1971    1.3825   -4.9163 C   0  0  0  0  0  0  0  0  0  0  0  0
   -3.0912    1.3718   -5.9425 O   0  0  0  0  0  0  0  0  0  0  0  0
   -1.7582    1.3241   -0.4207 H   0  0  0  0  0  0  0  0  0  0  0  0
   -0.0383   -0.4877   -0.8468 H   0  0  0  0  0  0  0  0  0  0  0  0
    1.6186    1.1130   -2.0475 H   0  0  0  0  0  0  0  0  0  0  0  0
    0.7563    2.4567   -1.3436 H   0  0  0  0  0  0  0  0  0  0  0  0
    0.3609   -0.4541   -3.6414 H   0  0  0  0  0  0  0  0  0  0  0  0
   -1.2997    3.2627   -2.2324 H   0  0  0  0  0  0  0  0  0  0  0  0
   -1.2622   -0.4731   -5.5002 H   0  0  0  0  0  0  0  0  0  0  0  0
   -2.9212    3.2410   -4.0921 H   0  0  0  0  0  0  0  0  0  0  0  0
   -3.6635    2.1544   -5.8981 H   0  0  0  0  0  0  0  0  0  0  0  0
    2.0396    1.6331    0.6041 N   0  0  0  0  0  0  0  0  0  0  0  0
    3.1618    1.8229    1.4948 C   0  0  2  0  0  0  0  0  0  0  0  0
    2.7303    1.3980    2.8922 C   0  0  0  0  0  0  0  0  0  0  0  0
    1.5545    1.3601    3.2486 O   0  0  0  0  0  0  0  0  0  0  0  0
    3.6354    3.2681    1.4880 C   0  0  0  0  0  0  0  0  0  0  0  0
    1.7702    2.4018   -0.0028 H   0  0  0  0  0  0  0  0  0  0  0  0
    3.9610    1.1619    1.1419 H   0  0  0  0  0  0  0  0  0  0  0  0
    2.8481    3.9453    1.8386 H   0  0  0  0  0  0  0  0  0  0  0  0
    4.5035    3.4042    2.1415 H   0  0  0  0  0  0  0  0  0  0  0  0
    3.9172    3.5811    0.4769 H   0  0  0  0  0  0  0  0  0  0  0  0
    3.8151    1.1076    3.7077 N   0  0  0  0  0  0  0  0  0  0  0  0
    3.6675    0.6932    5.0834 C   0  0  0  0  0  0  0  0  0  0  0  0
    4.7543    1.1474    3.3229 H   0  0  0  0  0  0  0  0  0  0  0  0
    3.7135    1.5750    5.7394 H   0  0  0  0  0  0  0  0  0  0  0  0
    2.6977    0.1905    5.2126 H   0  0  0  0  0  0  0  0  0  0  0  0
    4.4787   -0.0018    5.3459 H   0  0  0  0  0  0  0  0  0  0  0  0
 23 25  2  0  0  0  0
 22 23  1  0  0  0  0
 24 26  1  0  0  0  0
 22 24  2  0  0  0  0
 25 27  1  0  0  0  0
 26 27  2  0  0  0  0
 21 22  1  0  0  0  0
 27 28  1  0  0  0  0
  1  3  1  0  0  0  0
  1  7  1  0  0  0  0
  1  2  2  0  0  0  0
 39 40  1  0  0  0  0
 40 48  1  0  0  0  0
 40 41  2  0  0  0  0
  8  9  1  0  0  0  0
  9 17  1  0  0  0  0
  9 10  2  0  0  0  0
 18 19  1  0  0  0  0
 19 38  1  0  0  0  0
 19 20  2  0  0  0  0
 39 42  1  0  0  0  0
  8 11  1  0  0  0  0
 48 49  1  0  0  0  0
 18 21  1  0  0  0  0
 38 39  1  0  0  0  0
  7  8  1  0  0  0  0
 17 18  1  0  0  0  0
 23 33  1  0  0  0  0
 24 34  1  0  0  0  0
 25 35  1  0  0  0  0
 26 36  1  0  0  0  0
  3  4  1  0  0  0  0
  3  5  1  0  0  0  0
  3  6  1  0  0  0  0
 42 45  1  0  0  0  0
 42 46  1  0  0  0  0
 42 47  1  0  0  0  0
 11 14  1  0  0  0  0
 11 15  1  0  0  0  0
 11 16  1  0  0  0  0
 49 51  1  0  0  0  0
 49 52  1  0  0  0  0
 49 53  1  0  0  0  0
 21 31  1  0  0  0  0
 21 32  1  0  0  0  0
 39 44  1  0  0  0  0
  8 13  1  0  0  0  0
 18 30  1  0  0  0  0
 48 50  1  0  0  0  0
  7 12  1  0  0  0  0
 38 43  1  0  0  0  0
 17 29  1  0  0  0  0
 28 37  1  0  0  0  0
M  END
$$$$

  -OEChem-05262214473D

 53 53  0     1  0  0  0  0  0999 V2000
   -1.9298    0.2574    3.9747 C   0  0  0  0  0  0  0  0  0  0  0  0
   -0.9825   -0.3573    3.4990 O   0  0  0  0  0  0  0  0  0  0  0  0
   -2.3617   -0.0250    5.3754 C   0  0  0  0  0  0  0  0  0  0  0  0
   -3.1214   -0.8213    5.4288 H   0  0  0  0  0  0  0  0  0  0  0  0
   -1.5305   -0.3726    6.0097 H   0  0  0  0  0  0  0  0  0  0  0  0
   -2.7997    0.8299    5.9150 H   0  0  0  0  0  0  0  0  0  0  0  0
   -2.6795    1.2298    3.3336 N   0  0  0  0  0  0  0  0  0  0  0  0
   -2.4327    1.6559    1.9812 C   0  0  2  0  0  0  0  0  0  0  0  0
   -1.0977    1.0705    1.5400 C   0  0  0  0  0  0  0  0  0  0  0  0
   -0.2256    0.7177    2.3313 O   0  0  0  0  0  0  0  0  0  0  0  0
   -2.4239    3.1726    1.8718 C   0  0  0  0  0  0  0  0  0  0  0  0
   -3.4446    1.6657    3.8454 H   0  0  0  0  0  0  0  0  0  0  0  0
   -3.2368    1.2374    1.3661 H   0  0  0  0  0  0  0  0  0  0  0  0
   -1.6248    3.6099    2.4815 H   0  0  0  0  0  0  0  0  0  0  0  0
   -2.2644    3.4949    0.8375 H   0  0  0  0  0  0  0  0  0  0  0  0
   -3.3741    3.5939    2.2175 H   0  0  0  0  0  0  0  0  0  0  0  0
   -0.9750    1.0274    0.1566 N   0  0  0  0  0  0  0  0  0  0  0  0
    0.2023    0.5266   -0.5070 C   0  0  2  0  0  0  0  0  0  0  0  0
    1.3114    0.4535    0.5363 C   0  0  0  0  0  0  0  0  0  0  0  0
    1.7229   -0.6069    1.0023 O   0  0  0  0  0  0  0  0  0  0  0  0
    0.6303    1.4184   -1.6782 C   0  0  0  0  0  0  0  0  0  0  0  0
   -0.3626    1.4055   -2.8148 C   0  0  0  0  0  0  0  0  0  0  0  0
   -0.3556    0.3575   -3.7353 C   0  0  0  0  0  0  0  0  0  0  0  0
   -1.2868    2.4421   -2.9451 C   0  0  0  0  0  0  0  0  0  0  0  0
   -1.2728    0.3460   -4.7860 C   0  0  0  0  0  0  0  0  0  0  0  0
   -2.2041    2.4306   -3.9959 C   0  0  0  0  0  0  0  0  0  0  0  0
   -2.1971    1.3825   -4.9163 C   0  0  0  0  0  0  0  0  0  0  0  0
   -3.0912    1.3718   -5.9425 O   0  0  0  0  0  0  0  0  0  0  0  0
   -1.7582    1.3241   -0.4207 H   0  0  0  0  0  0  0  0  0  0  0  0
   -0.0383   -0.4877   -0.8468 H   0  0  0  0  0  0  0  0  0  0  0  0
    1.6186    1.1130   -2.0475 H   0  0  0  0  0  0  0  0  0  0  0  0
    0.7563    2.4567   -1.3436 H   0  0  0  0  0  0  0  0  0  0  0  0
    0.3609   -0.4541   -3.6414 H   0  0  0  0  0  0  0  0  0  0  0  0
   -1.2997    3.2627   -2.2324 H   0  0  0  0  0  0  0  0  0  0  0  0
   -1.2622   -0.4731   -5.5002 H   0  0  0  0  0  0  0  0  0  0  0  0
   -2.9212    3.2410   -4.0921 H   0  0  0  0  0  0  0  0  0  0  0  0
   -3.6635    2.1544   -5.8981 H   0  0  0  0  0  0  0  0  0  0  0  0
    1.8179    1.7083    0.8451 N   0  0  0  0  0  0  0  0  0  0  0  0
    2.8923    1.9204    1.7881 C   0  0  2  0  0  0  0  0  0  0  0  0
    2.5498    1.1693    3.0680 C   0  0  0  0  0  0  0  0  0  0  0  0
    1.4012    0.8583    3.3763 O   0  0  0  0  0  0  0  0  0  0  0  0
    3.1006    3.4010    2.0659 C   0  0  0  0  0  0  0  0  0  0  0  0
    1.4130    2.5184    0.3851 H   0  0  0  0  0  0  0  0  0  0  0  0
    3.7949    1.4893    1.3414 H   0  0  0  0  0  0  0  0  0  0  0  0
    2.2067    3.8503    2.5138 H   0  0  0  0  0  0  0  0  0  0  0  0
    3.9334    3.5614    2.7585 H   0  0  0  0  0  0  0  0  0  0  0  0
    3.3174    3.9445    1.1400 H   0  0  0  0  0  0  0  0  0  0  0  0
    3.6727    0.9251    3.8462 N   0  0  0  0  0  0  0  0  0  0  0  0
    3.6076    0.2383    5.1151 C   0  0  0  0  0  0  0  0  0  0  0  0
    4.5880    1.2018    3.5035 H   0  0  0  0  0  0  0  0  0  0  0  0
    3.4987    0.9739    5.9257 H   0  0  0  0  0  0  0  0  0  0  0  0
    2.7436   -0.4425    5.1194 H   0  0  0  0  0  0  0  0  0  0  0  0
    4.5309   -0.3401    5.2666 H   0  0  0  0  0  0  0  0  0  0  0  0
 23 25  2  0  0  0  0
 22 23  1  0  0  0  0
 24 26  1  0  0  0  0
 22 24  2  0  0  0  0
 25 27  1  0  0  0  0
 26 27  2  0  0  0  0
 21 22  1  0  0  0  0
 27 28  1  0  0  0  0
  1  3  1  0  0  0  0
  1  7  1  0  0  0  0
  1  2  2  0  0  0  0
 39 40  1  0  0  0  0
 40 48  1  0  0  0  0
 40 41  2  0  0  0  0
  8  9  1  0  0  0  0
  9 17  1  0  0  0  0
  9 10  2  0  0  0  0
 18 19  1  0  0  0  0
 19 38  1  0  0  0  0
 19 20  2  0  0  0  0
 39 42  1  0  0  0  0
  8 11  1  0  0  0  0
 48 49  1  0  0  0  0
 18 21  1  0  0  0  0
 38 39  1  0  0  0  0
  7  8  1  0  0  0  0
 17 18  1  0  0  0  0
 23 33  1  0  0  0  0
 24 34  1  0  0  0  0
 25 35  1  0  0  0  0
 26 36  1  0  0  0  0
  3  4  1  0  0  0  0
  3  5  1  0  0  0  0
  3  6  1  0  0  0  0
 42 45  1  0  0  0  0
 42 46  1  0  0  0  0
 42 47  1  0  0  0  0
 11 14  1  0  0  0  0
 11 15  1  0  0  0  0
 11 16  1  0  0  0  0
 49 51  1  0  0  0  0
 49 52  1  0  0  0  0
 49 53  1  0  0  0  0
 21 31  1  0  0  0  0
 21 32  1  0  0  0  0
 39 44  1  0  0  0  0
  8 13  1  0  0  0  0
 18 30  1  0  0  0  0
 48 50  1  0  0  0  0
  7 12  1  0  0  0  0
 38 43  1  0  0  0  0
 17 29  1  0  0  0  0
 28 37  1  0  0  0  0
M  END
$$$$

  -OEChem-05262214473D

 53 53  0     1  0  0  0  0  0999 V2000
   -1.9298    0.2574    3.9747 C   0  0  0  0  0  0  0  0  0  0  0  0
   -0.9825   -0.3573    3.4990 O   0  0  0  0  0  0  0  0  0  0  0  0
   -2.3617   -0.0250    5.3754 C   0  0  0  0  0  0  0  0  0  0  0  0
   -3.1214   -0.8213    5.4288 H   0  0  0  0  0  0  0  0  0  0  0  0
   -1.5305   -0.3726    6.0097 H   0  0  0  0  0  0  0  0  0  0  0  0
   -2.7997    0.8299    5.9150 H   0  0  0  0  0  0  0  0  0  0  0  0
   -2.6795    1.2298    3.3336 N   0  0  0  0  0  0  0  0  0  0  0  0
   -2.4327    1.6559    1.9812 C   0  0  2  0  0  0  0  0  0  0  0  0
   -1.0977    1.0705    1.5400 C   0  0  0  0  0  0  0  0  0  0  0  0
   -0.2256    0.7177    2.3313 O   0  0  0  0  0  0  0  0  0  0  0  0
   -2.4239    3.1726    1.8718 C   0  0  0  0  0  0  0  0  0  0  0  0
   -3.4446    1.6657    3.8454 H   0  0  0  0  0  0  0  0  0  0  0  0
   -3.2368    1.2374    1.3661 H   0  0  0  0  0  0  0  0  0  0  0  0
   -1.6248    3.6099    2.4815 H   0  0  0  0  0  0  0  0  0  0  0  0
   -2.2644    3.4949    0.8375 H   0  0  0  0  0  0  0  0  0  0  0  0
   -3.3741    3.5939    2.2175 H   0  0  0  0  0  0  0  0  0  0  0  0
   -0.9750    1.0274    0.1566 N   0  0  0  0  0  0  0  0  0  0  0  0
    0.2023    0.5266   -0.5070 C   0  0  2  0  0  0  0  0  0  0  0  0
    1.3114    0.4535    0.5363 C   0  0  0  0  0  0  0  0  0  0  0  0
    1.9075   -0.5868    0.8075 O   0  0  0  0  0  0  0  0  0  0  0  0
    0.6303    1.4184   -1.6782 C   0  0  0  0  0  0  0  0  0  0  0  0
   -0.3626    1.4055   -2.8148 C   0  0  0  0  0  0  0  0  0  0  0  0
   -0.3556    0.3575   -3.7353 C   0  0  0  0  0  0  0  0  0  0  0  0
   -1.2868    2.4421   -2.9451 C   0  0  0  0  0  0  0  0  0  0  0  0
   -1.2728    0.3460   -4.7860 C   0  0  0  0  0  0  0  0  0  0  0  0
   -2.2041    2.4306   -3.9959 C   0  0  0  0  0  0  0  0  0  0  0  0
   -2.1971    1.3825   -4.9163 C   0  0  0  0  0  0  0  0  0  0  0  0
   -3.0912    1.3718   -5.9425 O   0  0  0  0  0  0  0  0  0  0  0  0
   -1.7582    1.3241   -0.4207 H   0  0  0  0  0  0  0  0  0  0  0  0
   -0.0383   -0.4877   -0.8468 H   0  0  0  0  0  0  0  0  0  0  0  0
    1.6186    1.1130   -2.0475 H   0  0  0  0  0  0  0  0  0  0  0  0
    0.7563    2.4567   -1.3436 H   0  0  0  0  0  0  0  0  0  0  0  0
    0.3609   -0.4541   -3.6414 H   0  0  0  0  0  0  0  0  0  0  0  0
   -1.2997    3.2627   -2.2324 H   0  0  0  0  0  0  0  0  0  0  0  0
   -1.2622   -0.4731   -5.5002 H   0  0  0  0  0  0  0  0  0  0  0  0
   -2.9212    3.2410   -4.0921 H   0  0  0  0  0  0  0  0  0  0  0  0
   -3.6635    2.1544   -5.8981 H   0  0  0  0  0  0  0  0  0  0  0  0
    1.5874    1.6963    1.0893 N   0  0  0  0  0  0  0  0  0  0  0  0
    2.6111    1.9115    2.0865 C   0  0  2  0  0  0  0  0  0  0  0  0
    2.4139    0.8833    3.1925 C   0  0  0  0  0  0  0  0  0  0  0  0
    1.3405    0.3224    3.4033 O   0  0  0  0  0  0  0  0  0  0  0  0
    2.5532    3.3258    2.6425 C   0  0  0  0  0  0  0  0  0  0  0  0
    1.0424    2.4947    0.7773 H   0  0  0  0  0  0  0  0  0  0  0  0
    3.5740    1.7385    1.5937 H   0  0  0  0  0  0  0  0  0  0  0  0
    1.5956    3.5178    3.1401 H   0  0  0  0  0  0  0  0  0  0  0  0
    3.3473    3.4962    3.3770 H   0  0  0  0  0  0  0  0  0  0  0  0
    2.6655    4.0644    1.8415 H   0  0  0  0  0  0  0  0  0  0  0  0
    3.5658    0.6976    3.9439 N   0  0  0  0  0  0  0  0  0  0  0  0
    3.6300   -0.2177    5.0593 C   0  0  0  0  0  0  0  0  0  0  0  0
    4.4155    1.1908    3.6861 H   0  0  0  0  0  0  0  0  0  0  0  0
    3.3954    0.3202    5.9897 H   0  0  0  0  0  0  0  0  0  0  0  0
    2.9013   -1.0282    4.9108 H   0  0  0  0  0  0  0  0  0  0  0  0
    4.6423   -0.6427    5.1270 H   0  0  0  0  0  0  0  0  0  0  0  0
 23 25  2  0  0  0  0
 22 23  1  0  0  0  0
 24 26  1  0  0  0  0
 22 24  2  0  0  0  0
 25 27  1  0  0  0  0
 26 27  2  0  0  0  0
 21 22  1  0  0  0  0
 27 28  1  0  0  0  0
  1  3  1  0  0  0  0
  1  7  1  0  0  0  0
  1  2  2  0  0  0  0
 39 40  1  0  0  0  0
 40 48  1  0  0  0  0
 40 41  2  0  0  0  0
  8  9  1  0  0  0  0
  9 17  1  0  0  0  0
  9 10  2  0  0  0  0
 18 19  1  0  0  0  0
 19 38  1  0  0  0  0
 19 20  2  0  0  0  0
 39 42  1  0  0  0  0
  8 11  1  0  0  0  0
 48 49  1  0  0  0  0
 18 21  1  0  0  0  0
 38 39  1  0  0  0  0
  7  8  1  0  0  0  0
 17 18  1  0  0  0  0
 23 33  1  0  0  0  0
 24 34  1  0  0  0  0
 25 35  1  0  0  0  0
 26 36  1  0  0  0  0
  3  4  1  0  0  0  0
  3  5  1  0  0  0  0
  3  6  1  0  0  0  0
 42 45  1  0  0  0  0
 42 46  1  0  0  0  0
 42 47  1  0  0  0  0
 11 14  1  0  0  0  0
 11 15  1  0  0  0  0
 11 16  1  0  0  0  0
 49 51  1  0  0  0  0
 49 52  1  0  0  0  0
 49 53  1  0  0  0  0
 21 31  1  0  0  0  0
 21 32  1  0  0  0  0
 39 44  1  0  0  0  0
  8 13  1  0  0  0  0
 18 30  1  0  0  0  0
 48 50  1  0  0  0  0
  7 12  1  0  0  0  0
 38 43  1  0  0  0  0
 17 29  1  0  0  0  0
 28 37  1  0  0  0  0
M  END
$$$$

  -OEChem-05262214473D

 53 53  0     1  0  0  0  0  0999 V2000
   -1.9298    0.2574    3.9747 C   0  0  0  0  0  0  0  0  0  0  0  0
   -0.9825   -0.3573    3.4990 O   0  0  0  0  0  0  0  0  0  0  0  0
   -2.3617   -0.0250    5.3754 C   0  0  0  0  0  0  0  0  0  0  0  0
   -3.1214   -0.8213    5.4288 H   0  0  0  0  0  0  0  0  0  0  0  0
   -1.5305   -0.3726    6.0097 H   0  0  0  0  0  0  0  0  0  0  0  0
   -2.7997    0.8299    5.9150 H   0  0  0  0  0  0  0  0  0  0  0  0
   -2.6795    1.2298    3.3336 N   0  0  0  0  0  0  0  0  0  0  0  0
   -2.4327    1.6559    1.9812 C   0  0  2  0  0  0  0  0  0  0  0  0
   -1.0977    1.0705    1.5400 C   0  0  0  0  0  0  0  0  0  0  0  0
   -0.2256    0.7177    2.3313 O   0  0  0  0  0  0  0  0  0  0  0  0
   -2.4239    3.1726    1.8718 C   0  0  0  0  0  0  0  0  0  0  0  0
   -3.4446    1.6657    3.8454 H   0  0  0  0  0  0  0  0  0  0  0  0
   -3.2368    1.2374    1.3661 H   0  0  0  0  0  0  0  0  0  0  0  0
   -1.6248    3.6099    2.4815 H   0  0  0  0  0  0  0  0  0  0  0  0
   -2.2644    3.4949    0.8375 H   0  0  0  0  0  0  0  0  0  0  0  0
   -3.3741    3.5939    2.2175 H   0  0  0  0  0  0  0  0  0  0  0  0
   -0.9750    1.0274    0.1566 N   0  0  0  0  0  0  0  0  0  0  0  0
    0.2023    0.5266   -0.5070 C   0  0  2  0  0  0  0  0  0  0  0  0
    1.3114    0.4535    0.5363 C   0  0  0  0  0  0  0  0  0  0  0  0
    2.0846   -0.4979    0.6254 O   0  0  0  0  0  0  0  0  0  0  0  0
    0.6303    1.4184   -1.6782 C   0  0  0  0  0  0  0  0  0  0  0  0
   -0.3626    1.4055   -2.8148 C   0  0  0  0  0  0  0  0  0  0  0  0
   -0.3556    0.3575   -3.7353 C   0  0  0  0  0  0  0  0  0  0  0  0
   -1.2868    2.4421   -2.9451 C   0  0  0  0  0  0  0  0  0  0  0  0
   -1.2728    0.3460   -4.7860 C   0  0  0  0  0  0  0  0  0  0  0  0
   -2.2041    2.4306   -3.9959 C   0  0  0  0  0  0  0  0  0  0  0  0
   -2.1971    1.3825   -4.9163 C   0  0  0  0  0  0  0  0  0  0  0  0
   -3.0912    1.3718   -5.9425 O   0  0  0  0  0  0  0  0  0  0  0  0
   -1.7582    1.3241   -0.4207 H   0  0  0  0  0  0  0  0  0  0  0  0
   -0.0383   -0.4877   -0.8468 H   0  0  0  0  0  0  0  0  0  0  0  0
    1.6186    1.1130   -2.0475 H   0  0  0  0  0  0  0  0  0  0  0  0
    0.7563    2.4567   -1.3436 H   0  0  0  0  0  0  0  0  0  0  0  0
    0.3609   -0.4541   -3.6414 H   0  0  0  0  0  0  0  0  0  0  0  0
   -1.2997    3.2627   -2.2324 H   0  0  0  0  0  0  0  0  0  0  0  0
   -1.2622   -0.4731   -5.5002 H   0  0  0  0  0  0  0  0  0  0  0  0
   -2.9212    3.2410   -4.0921 H   0  0  0  0  0  0  0  0  0  0  0  0
   -3.6635    2.1544   -5.8981 H   0  0  0  0  0  0  0  0  0  0  0  0
    1.3639    1.5978    1.3200 N   0  0  0  0  0  0  0  0  0  0  0  0
    2.3373    1.7970    2.3695 C   0  0  2  0  0  0  0  0  0  0  0  0
    2.3316    0.5595    3.2573 C   0  0  0  0  0  0  0  0  0  0  0  0
    1.3765   -0.2111    3.3277 O   0  0  0  0  0  0  0  0  0  0  0  0
    2.0307    3.0477    3.1785 C   0  0  0  0  0  0  0  0  0  0  0  0
    0.6838    2.3323    1.1472 H   0  0  0  0  0  0  0  0  0  0  0  0
    3.3134    1.8926    1.8816 H   0  0  0  0  0  0  0  0  0  0  0  0
    1.0565    2.9704    3.6748 H   0  0  0  0  0  0  0  0  0  0  0  0
    2.7850    3.2128    3.9549 H   0  0  0  0  0  0  0  0  0  0  0  0
    2.0058    3.9327    2.5335 H   0  0  0  0  0  0  0  0  0  0  0  0
    3.5016    0.4405    3.9942 N   0  0  0  0  0  0  0  0  0  0  0  0
    3.7331   -0.6437    4.9199 C   0  0  0  0  0  0  0  0  0  0  0  0
    4.2486    1.1152    3.8582 H   0  0  0  0  0  0  0  0  0  0  0  0
    3.4105   -0.3416    5.9272 H   0  0  0  0  0  0  0  0  0  0  0  0
    3.1599   -1.5267    4.6009 H   0  0  0  0  0  0  0  0  0  0  0  0
    4.8053   -0.8889    4.9365 H   0  0  0  0  0  0  0  0  0  0  0  0
 23 25  2  0  0  0  0
 22 23  1  0  0  0  0
 24 26  1  0  0  0  0
 22 24  2  0  0  0  0
 25 27  1  0  0  0  0
 26 27  2  0  0  0  0
 21 22  1  0  0  0  0
 27 28  1  0  0  0  0
  1  3  1  0  0  0  0
  1  7  1  0  0  0  0
  1  2  2  0  0  0  0
 39 40  1  0  0  0  0
 40 48  1  0  0  0  0
 40 41  2  0  0  0  0
  8  9  1  0  0  0  0
  9 17  1  0  0  0  0
  9 10  2  0  0  0  0
 18 19  1  0  0  0  0
 19 38  1  0  0  0  0
 19 20  2  0  0  0  0
 39 42  1  0  0  0  0
  8 11  1  0  0  0  0
 48 49  1  0  0  0  0
 18 21  1  0  0  0  0
 38 39  1  0  0  0  0
  7  8  1  0  0  0  0
 17 18  1  0  0  0  0
 23 33  1  0  0  0  0
 24 34  1  0  0  0  0
 25 35  1  0  0  0  0
 26 36  1  0  0  0  0
  3  4  1  0  0  0  0
  3  5  1  0  0  0  0
  3  6  1  0  0  0  0
 42 45  1  0  0  0  0
 42 46  1  0  0  0  0
 42 47  1  0  0  0  0
 11 14  1  0  0  0  0
 11 15  1  0  0  0  0
 11 16  1  0  0  0  0
 49 51  1  0  0  0  0
 49 52  1  0  0  0  0
 49 53  1  0  0  0  0
 21 31  1  0  0  0  0
 21 32  1  0  0  0  0
 39 44  1  0  0  0  0
  8 13  1  0  0  0  0
 18 30  1  0  0  0  0
 48 50  1  0  0  0  0
  7 12  1  0  0  0  0
 38 43  1  0  0  0  0
 17 29  1  0  0  0  0
 28 37  1  0  0  0  0
M  END
$$$$

  -OEChem-05262214473D

 53 53  0     1  0  0  0  0  0999 V2000
   -1.9298    0.2574    3.9747 C   0  0  0  0  0  0  0  0  0  0  0  0
   -0.9825   -0.3573    3.4990 O   0  0  0  0  0  0  0  0  0  0  0  0
   -2.3617   -0.0250    5.3754 C   0  0  0  0  0  0  0  0  0  0  0  0
   -3.1214   -0.8213    5.4288 H   0  0  0  0  0  0  0  0  0  0  0  0
   -1.5305   -0.3726    6.0097 H   0  0  0  0  0  0  0  0  0  0  0  0
   -2.7997    0.8299    5.9150 H   0  0  0  0  0  0  0  0  0  0  0  0
   -2.6795    1.2298    3.3336 N   0  0  0  0  0  0  0  0  0  0  0  0
   -2.4327    1.6559    1.9812 C   0  0  2  0  0  0  0  0  0  0  0  0
   -1.0977    1.0705    1.5400 C   0  0  0  0  0  0  0  0  0  0  0  0
   -0.2256    0.7177    2.3313 O   0  0  0  0  0  0  0  0  0  0  0  0
   -2.4239    3.1726    1.8718 C   0  0  0  0  0  0  0  0  0  0  0  0
   -3.4446    1.6657    3.8454 H   0  0  0  0  0  0  0  0  0  0  0  0
   -3.2368    1.2374    1.3661 H   0  0  0  0  0  0  0  0  0  0  0  0
   -1.6248    3.6099    2.4815 H   0  0  0  0  0  0  0  0  0  0  0  0
   -2.2644    3.4949    0.8375 H   0  0  0  0  0  0  0  0  0  0  0  0
   -3.3741    3.5939    2.2175 H   0  0  0  0  0  0  0  0  0  0  0  0
   -0.9750    1.0274    0.1566 N   0  0  0  0  0  0  0  0  0  0  0  0
    0.2023    0.5266   -0.5070 C   0  0  2  0  0  0  0  0  0  0  0  0
    1.3114    0.4535    0.5363 C   0  0  0  0  0  0  0  0  0  0  0  0
    2.2423   -0.3464    0.4684 O   0  0  0  0  0  0  0  0  0  0  0  0
    0.6303    1.4184   -1.6782 C   0  0  0  0  0  0  0  0  0  0  0  0
   -0.3626    1.4055   -2.8148 C   0  0  0  0  0  0  0  0  0  0  0  0
   -0.3556    0.3575   -3.7353 C   0  0  0  0  0  0  0  0  0  0  0  0
   -1.2868    2.4421   -2.9451 C   0  0  0  0  0  0  0  0  0  0  0  0
   -1.2728    0.3460   -4.7860 C   0  0  0  0  0  0  0  0  0  0  0  0
   -2.2041    2.4306   -3.9959 C   0  0  0  0  0  0  0  0  0  0  0  0
   -2.1971    1.3825   -4.9163 C   0  0  0  0  0  0  0  0  0  0  0  0
   -3.0912    1.3718   -5.9425 O   0  0  0  0  0  0  0  0  0  0  0  0
   -1.7582    1.3241   -0.4207 H   0  0  0  0  0  0  0  0  0  0  0  0
   -0.0383   -0.4877   -0.8468 H   0  0  0  0  0  0  0  0  0  0  0  0
    1.6186    1.1130   -2.0475 H   0  0  0  0  0  0  0  0  0  0  0  0
    0.7563    2.4567   -1.3436 H   0  0  0  0  0  0  0  0  0  0  0  0
    0.3609   -0.4541   -3.6414 H   0  0  0  0  0  0  0  0  0  0  0  0
   -1.2997    3.2627   -2.2324 H   0  0  0  0  0  0  0  0  0  0  0  0
   -1.2622   -0.4731   -5.5002 H   0  0  0  0  0  0  0  0  0  0  0  0
   -2.9212    3.2410   -4.0921 H   0  0  0  0  0  0  0  0  0  0  0  0
   -3.6635    2.1544   -5.8981 H   0  0  0  0  0  0  0  0  0  0  0  0
    1.1625    1.4197    1.5215 N   0  0  0  0  0  0  0  0  0  0  0  0
    2.0896    1.5846    2.6179 C   0  0  2  0  0  0  0  0  0  0  0  0
    2.3087    0.2200    3.2578 C   0  0  0  0  0  0  0  0  0  0  0  0
    1.5067   -0.7058    3.1546 O   0  0  0  0  0  0  0  0  0  0  0  0
    1.5686    2.5856    3.6374 C   0  0  0  0  0  0  0  0  0  0  0  0
    0.3617    2.0423    1.4694 H   0  0  0  0  0  0  0  0  0  0  0  0
    3.0308    1.9411    2.1854 H   0  0  0  0  0  0  0  0  0  0  0  0
    0.6260    2.2455    4.0816 H   0  0  0  0  0  0  0  0  0  0  0  0
    2.2849    2.7307    4.4528 H   0  0  0  0  0  0  0  0  0  0  0  0
    1.3833    3.5583    3.1690 H   0  0  0  0  0  0  0  0  0  0  0  0
    3.4846    0.1713    3.9934 N   0  0  0  0  0  0  0  0  0  0  0  0
    3.9098   -1.0107    4.7063 C   0  0  0  0  0  0  0  0  0  0  0  0
    4.0986    0.9803    4.0082 H   0  0  0  0  0  0  0  0  0  0  0  0
    3.5432   -0.9664    5.7424 H   0  0  0  0  0  0  0  0  0  0  0  0
    3.5019   -1.9041    4.2109 H   0  0  0  0  0  0  0  0  0  0  0  0
    5.0086   -1.0621    4.7082 H   0  0  0  0  0  0  0  0  0  0  0  0
 23 25  2  0  0  0  0
 22 23  1  0  0  0  0
 24 26  1  0  0  0  0
 22 24  2  0  0  0  0
 25 27  1  0  0  0  0
 26 27  2  0  0  0  0
 21 22  1  0  0  0  0
 27 28  1  0  0  0  0
  1  3  1  0  0  0  0
  1  7  1  0  0  0  0
  1  2  2  0  0  0  0
 39 40  1  0  0  0  0
 40 48  1  0  0  0  0
 40 41  2  0  0  0  0
  8  9  1  0  0  0  0
  9 17  1  0  0  0  0
  9 10  2  0  0  0  0
 18 19  1  0  0  0  0
 19 38  1  0  0  0  0
 19 20  2  0  0  0  0
 39 42  1  0  0  0  0
  8 11  1  0  0  0  0
 48 49  1  0  0  0  0
 18 21  1  0  0  0  0
 38 39  1  0  0  0  0
  7  8  1  0  0  0  0
 17 18  1  0  0  0  0
 23 33  1  0  0  0  0
 24 34  1  0  0  0  0
 25 35  1  0  0  0  0
 26 36  1  0  0  0  0
  3  4  1  0  0  0  0
  3  5  1  0  0  0  0
  3  6  1  0  0  0  0
 42 45  1  0  0  0  0
 42 46  1  0  0  0  0
 42 47  1  0  0  0  0
 11 14  1  0  0  0  0
 11 15  1  0  0  0  0
 11 16  1  0  0  0  0
 49 51  1  0  0  0  0
 49 52  1  0  0  0  0
 49 53  1  0  0  0  0
 21 31  1  0  0  0  0
 21 32  1  0  0  0  0
 39 44  1  0  0  0  0
  8 13  1  0  0  0  0
 18 30  1  0  0  0  0
 48 50  1  0  0  0  0
  7 12  1  0  0  0  0
 38 43  1  0  0  0  0
 17 29  1  0  0  0  0
 28 37  1  0  0  0  0
M  END
$$$$

  -OEChem-05262214473D

 53 53  0     1  0  0  0  0  0999 V2000
   -1.9298    0.2574    3.9747 C   0  0  0  0  0  0  0  0  0  0  0  0
   -0.9825   -0.3573    3.4990 O   0  0  0  0  0  0  0  0  0  0  0  0
   -2.3617   -0.0250    5.3754 C   0  0  0  0  0  0  0  0  0  0  0  0
   -3.1214   -0.8213    5.4288 H   0  0  0  0  0  0  0  0  0  0  0  0
   -1.5305   -0.3726    6.0097 H   0  0  0  0  0  0  0  0  0  0  0  0
   -2.7997    0.8299    5.9150 H   0  0  0  0  0  0  0  0  0  0  0  0
   -2.6795    1.2298    3.3336 N   0  0  0  0  0  0  0  0  0  0  0  0
   -2.4327    1.6559    1.9812 C   0  0  2  0  0  0  0  0  0  0  0  0
   -1.0977    1.0705    1.5400 C   0  0  0  0  0  0  0  0  0  0  0  0
   -0.2256    0.7177    2.3313 O   0  0  0  0  0  0  0  0  0  0  0  0
   -2.4239    3.1726    1.8718 C   0  0  0  0  0  0  0  0  0  0  0  0
   -3.4446    1.6657    3.8454 H   0  0  0  0  0  0  0  0  0  0  0  0
   -3.2368    1.2374    1.3661 H   0  0  0  0  0  0  0  0  0  0  0  0
   -1.6248    3.6099    2.4815 H   0  0  0  0  0  0  0  0  0  0  0  0
   -2.2644    3.4949    0.8375 H   0  0  0  0  0  0  0  0  0  0  0  0
   -3.3741    3.5939    2.2175 H   0  0  0  0  0  0  0  0  0  0  0  0
   -0.9750    1.0274    0.1566 N   0  0  0  0  0  0  0  0  0  0  0  0
    0.2023    0.5266   -0.5070 C   0  0  2  0  0  0  0  0  0  0  0  0
    1.3114    0.4535    0.5363 C   0  0  0  0  0  0  0  0  0  0  0  0
    2.3697   -0.1425    0.3472 O   0  0  0  0  0  0  0  0  0  0  0  0
    0.6303    1.4184   -1.6782 C   0  0  0  0  0  0  0  0  0  0  0  0
   -0.3626    1.4055   -2.8148 C   0  0  0  0  0  0  0  0  0  0  0  0
   -0.3556    0.3575   -3.7353 C   0  0  0  0  0  0  0  0  0  0  0  0
   -1.2868    2.4421   -2.9451 C   0  0  0  0  0  0  0  0  0  0  0  0
   -1.2728    0.3460   -4.7860 C   0  0  0  0  0  0  0  0  0  0  0  0
   -2.2041    2.4306   -3.9959 C   0  0  0  0  0  0  0  0  0  0  0  0
   -2.1971    1.3825   -4.9163 C   0  0  0  0  0  0  0  0  0  0  0  0
   -3.0912    1.3718   -5.9425 O   0  0  0  0  0  0  0  0  0  0  0  0
   -1.7582    1.3241   -0.4207 H   0  0  0  0  0  0  0  0  0  0  0  0
   -0.0383   -0.4877   -0.8468 H   0  0  0  0  0  0  0  0  0  0  0  0
    1.6186    1.1130   -2.0475 H   0  0  0  0  0  0  0  0  0  0  0  0
    0.7563    2.4567   -1.3436 H   0  0  0  0  0  0  0  0  0  0  0  0
    0.3609   -0.4541   -3.6414 H   0  0  0  0  0  0  0  0  0  0  0  0
   -1.2997    3.2627   -2.2324 H   0  0  0  0  0  0  0  0  0  0  0  0
   -1.2622   -0.4731   -5.5002 H   0  0  0  0  0  0  0  0  0  0  0  0
   -2.9212    3.2410   -4.0921 H   0  0  0  0  0  0  0  0  0  0  0  0
   -3.6635    2.1544   -5.8981 H   0  0  0  0  0  0  0  0  0  0  0  0
    0.9971    1.1741    1.6802 N   0  0  0  0  0  0  0  0  0  0  0  0
    1.8849    1.2887    2.8148 C   0  0  2  0  0  0  0  0  0  0  0  0
    2.3467   -0.1121    3.1941 C   0  0  0  0  0  0  0  0  0  0  0  0
    1.7222   -1.1280    2.8959 O   0  0  0  0  0  0  0  0  0  0  0  0
    1.1984    1.9709    3.9879 C   0  0  0  0  0  0  0  0  0  0  0  0
    0.0978    1.6445    1.7220 H   0  0  0  0  0  0  0  0  0  0  0  0
    2.7454    1.8807    2.4845 H   0  0  0  0  0  0  0  0  0  0  0  0
    0.3336    1.3924    4.3327 H   0  0  0  0  0  0  0  0  0  0  0  0
    1.8810    2.0827    4.8367 H   0  0  0  0  0  0  0  0  0  0  0  0
    0.8405    2.9667    3.7046 H   0  0  0  0  0  0  0  0  0  0  0  0
    3.5158   -0.0916    3.9418 N   0  0  0  0  0  0  0  0  0  0  0  0
    4.1482   -1.2936    4.4330 C   0  0  0  0  0  0  0  0  0  0  0  0
    3.9758    0.7951    4.1258 H   0  0  0  0  0  0  0  0  0  0  0  0
    3.7843   -1.5116    5.4479 H   0  0  0  0  0  0  0  0  0  0  0  0
    3.9038   -2.1346    3.7674 H   0  0  0  0  0  0  0  0  0  0  0  0
    5.2386   -1.1503    4.4575 H   0  0  0  0  0  0  0  0  0  0  0  0
 23 25  2  0  0  0  0
 22 23  1  0  0  0  0
 24 26  1  0  0  0  0
 22 24  2  0  0  0  0
 25 27  1  0  0  0  0
 26 27  2  0  0  0  0
 21 22  1  0  0  0  0
 27 28  1  0  0  0  0
  1  3  1  0  0  0  0
  1  7  1  0  0  0  0
  1  2  2  0  0  0  0
 39 40  1  0  0  0  0
 40 48  1  0  0  0  0
 40 41  2  0  0  0  0
  8  9  1  0  0  0  0
  9 17  1  0  0  0  0
  9 10  2  0  0  0  0
 18 19  1  0  0  0  0
 19 38  1  0  0  0  0
 19 20  2  0  0  0  0
 39 42  1  0  0  0  0
  8 11  1  0  0  0  0
 48 49  1  0  0  0  0
 18 21  1  0  0  0  0
 38 39  1  0  0  0  0
  7  8  1  0  0  0  0
 17 18  1  0  0  0  0
 23 33  1  0  0  0  0
 24 34  1  0  0  0  0
 25 35  1  0  0  0  0
 26 36  1  0  0  0  0
  3  4  1  0  0  0  0
  3  5  1  0  0  0  0
  3  6  1  0  0  0  0
 42 45  1  0  0  0  0
 42 46  1  0  0  0  0
 42 47  1  0  0  0  0
 11 14  1  0  0  0  0
 11 15  1  0  0  0  0
 11 16  1  0  0  0  0
 49 51  1  0  0  0  0
 49 52  1  0  0  0  0
 49 53  1  0  0  0  0
 21 31  1  0  0  0  0
 21 32  1  0  0  0  0
 39 44  1  0  0  0  0
  8 13  1  0  0  0  0
 18 30  1  0  0  0  0
 48 50  1  0  0  0  0
  7 12  1  0  0  0  0
 38 43  1  0  0  0  0
 17 29  1  0  0  0  0
 28 37  1  0  0  0  0
M  END
$$$$

  -OEChem-05262214473D

 53 53  0     1  0  0  0  0  0999 V2000
   -1.9298    0.2574    3.9747 C   0  0  0  0  0  0  0  0  0  0  0  0
   -0.9825   -0.3573    3.4990 O   0  0  0  0  0  0  0  0  0  0  0  0
   -2.3617   -0.0250    5.3754 C   0  0  0  0  0  0  0  0  0  0  0  0
   -3.1214   -0.8213    5.4288 H   0  0  0  0  0  0  0  0  0  0  0  0
   -1.5305   -0.3726    6.0097 H   0  0  0  0  0  0  0  0  0  0  0  0
   -2.7997    0.8299    5.9150 H   0  0  0  0  0  0  0  0  0  0  0  0
   -2.6795    1.2298    3.3336 N   0  0  0  0  0  0  0  0  0  0  0  0
   -2.4327    1.6559    1.9812 C   0  0  2  0  0  0  0  0  0  0  0  0
   -1.0977    1.0705    1.5400 C   0  0  0  0  0  0  0  0  0  0  0  0
   -0.2256    0.7177    2.3313 O   0  0  0  0  0  0  0  0  0  0  0  0
   -2.4239    3.1726    1.8718 C   0  0  0  0  0  0  0  0  0  0  0  0
   -3.4446    1.6657    3.8454 H   0  0  0  0  0  0  0  0  0  0  0  0
   -3.2368    1.2374    1.3661 H   0  0  0  0  0  0  0  0  0  0  0  0
   -1.6248    3.6099    2.4815 H   0  0  0  0  0  0  0  0  0  0  0  0
   -2.2644    3.4949    0.8375 H   0  0  0  0  0  0  0  0  0  0  0  0
   -3.3741    3.5939    2.2175 H   0  0  0  0  0  0  0  0  0  0  0  0
   -0.9750    1.0274    0.1566 N   0  0  0  0  0  0  0  0  0  0  0  0
    0.2023    0.5266   -0.5070 C   0  0  2  0  0  0  0  0  0  0  0  0
    1.3114    0.4535    0.5363 C   0  0  0  0  0  0  0  0  0  0  0  0
    2.4581    0.0997    0.2702 O   0  0  0  0  0  0  0  0  0  0  0  0
    0.6303    1.4184   -1.6782 C   0  0  0  0  0  0  0  0  0  0  0  0
   -0.3626    1.4055   -2.8148 C   0  0  0  0  0  0  0  0  0  0  0  0
   -0.3556    0.3575   -3.7353 C   0  0  0  0  0  0  0  0  0  0  0  0
   -1.2868    2.4421   -2.9451 C   0  0  0  0  0  0  0  0  0  0  0  0
   -1.2728    0.3460   -4.7860 C   0  0  0  0  0  0  0  0  0  0  0  0
   -2.2041    2.4306   -3.9959 C   0  0  0  0  0  0  0  0  0  0  0  0
   -2.1971    1.3825   -4.9163 C   0  0  0  0  0  0  0  0  0  0  0  0
   -3.0912    1.3718   -5.9425 O   0  0  0  0  0  0  0  0  0  0  0  0
   -1.7582    1.3241   -0.4207 H   0  0  0  0  0  0  0  0  0  0  0  0
   -0.0383   -0.4877   -0.8468 H   0  0  0  0  0  0  0  0  0  0  0  0
    1.6186    1.1130   -2.0475 H   0  0  0  0  0  0  0  0  0  0  0  0
    0.7563    2.4567   -1.3436 H   0  0  0  0  0  0  0  0  0  0  0  0
    0.3609   -0.4541   -3.6414 H   0  0  0  0  0  0  0  0  0  0  0  0
   -1.2997    3.2627   -2.2324 H   0  0  0  0  0  0  0  0  0  0  0  0
   -1.2622   -0.4731   -5.5002 H   0  0  0  0  0  0  0  0  0  0  0  0
   -2.9212    3.2410   -4.0921 H   0  0  0  0  0  0  0  0  0  0  0  0
   -3.6635    2.1544   -5.8981 H   0  0  0  0  0  0  0  0  0  0  0  0
    0.8788    0.8776    1.7851 N   0  0  0  0  0  0  0  0  0  0  0  0
    1.7371    0.9297    2.9468 C   0  0  2  0  0  0  0  0  0  0  0  0
    2.4431   -0.4141    3.0705 C   0  0  0  0  0  0  0  0  0  0  0  0
    2.0083   -1.4489    2.5692 O   0  0  0  0  0  0  0  0  0  0  0  0
    0.9453    1.2457    4.2061 C   0  0  0  0  0  0  0  0  0  0  0  0
   -0.0897    1.1659    1.8878 H   0  0  0  0  0  0  0  0  0  0  0  0
    2.4768    1.7155    2.7585 H   0  0  0  0  0  0  0  0  0  0  0  0
    0.1991    0.4693    4.4110 H   0  0  0  0  0  0  0  0  0  0  0  0
    1.6009    1.3130    5.0805 H   0  0  0  0  0  0  0  0  0  0  0  0
    0.4143    2.1983    4.1038 H   0  0  0  0  0  0  0  0  0  0  0  0
    3.5931   -0.3303    3.8429 N   0  0  0  0  0  0  0  0  0  0  0  0
    4.4320   -1.4732    4.1187 C   0  0  0  0  0  0  0  0  0  0  0  0
    3.8885    0.5723    4.2030 H   0  0  0  0  0  0  0  0  0  0  0  0
    4.1174   -1.9401    5.0637 H   0  0  0  0  0  0  0  0  0  0  0  0
    4.3385   -2.2025    3.3006 H   0  0  0  0  0  0  0  0  0  0  0  0
    5.4794   -1.1476    4.2017 H   0  0  0  0  0  0  0  0  0  0  0  0
 23 25  2  0  0  0  0
 22 23  1  0  0  0  0
 24 26  1  0  0  0  0
 22 24  2  0  0  0  0
 25 27  1  0  0  0  0
 26 27  2  0  0  0  0
 21 22  1  0  0  0  0
 27 28  1  0  0  0  0
  1  3  1  0  0  0  0
  1  7  1  0  0  0  0
  1  2  2  0  0  0  0
 39 40  1  0  0  0  0
 40 48  1  0  0  0  0
 40 41  2  0  0  0  0
  8  9  1  0  0  0  0
  9 17  1  0  0  0  0
  9 10  2  0  0  0  0
 18 19  1  0  0  0  0
 19 38  1  0  0  0  0
 19 20  2  0  0  0  0
 39 42  1  0  0  0  0
  8 11  1  0  0  0  0
 48 49  1  0  0  0  0
 18 21  1  0  0  0  0
 38 39  1  0  0  0  0
  7  8  1  0  0  0  0
 17 18  1  0  0  0  0
 23 33  1  0  0  0  0
 24 34  1  0  0  0  0
 25 35  1  0  0  0  0
 26 36  1  0  0  0  0
  3  4  1  0  0  0  0
  3  5  1  0  0  0  0
  3  6  1  0  0  0  0
 42 45  1  0  0  0  0
 42 46  1  0  0  0  0
 42 47  1  0  0  0  0
 11 14  1  0  0  0  0
 11 15  1  0  0  0  0
 11 16  1  0  0  0  0
 49 51  1  0  0  0  0
 49 52  1  0  0  0  0
 49 53  1  0  0  0  0
 21 31  1  0  0  0  0
 21 32  1  0  0  0  0
 39 44  1  0  0  0  0
  8 13  1  0  0  0  0
 18 30  1  0  0  0  0
 48 50  1  0  0  0  0
  7 12  1  0  0  0  0
 38 43  1  0  0  0  0
 17 29  1  0  0  0  0
 28 37  1  0  0  0  0
M  END
$$$$

  -OEChem-05262214473D

 53 53  0     1  0  0  0  0  0999 V2000
   -1.9298    0.2574    3.9747 C   0  0  0  0  0  0  0  0  0  0  0  0
   -0.9825   -0.3573    3.4990 O   0  0  0  0  0  0  0  0  0  0  0  0
   -2.3617   -0.0250    5.3754 C   0  0  0  0  0  0  0  0  0  0  0  0
   -3.1214   -0.8213    5.4288 H   0  0  0  0  0  0  0  0  0  0  0  0
   -1.5305   -0.3726    6.0097 H   0  0  0  0  0  0  0  0  0  0  0  0
   -2.7997    0.8299    5.9150 H   0  0  0  0  0  0  0  0  0  0  0  0
   -2.6795    1.2298    3.3336 N   0  0  0  0  0  0  0  0  0  0  0  0
   -2.4327    1.6559    1.9812 C   0  0  2  0  0  0  0  0  0  0  0  0
   -1.0977    1.0705    1.5400 C   0  0  0  0  0  0  0  0  0  0  0  0
   -0.2256    0.7177    2.3313 O   0  0  0  0  0  0  0  0  0  0  0  0
   -2.4239    3.1726    1.8718 C   0  0  0  0  0  0  0  0  0  0  0  0
   -3.4446    1.6657    3.8454 H   0  0  0  0  0  0  0  0  0  0  0  0
   -3.2368    1.2374    1.3661 H   0  0  0  0  0  0  0  0  0  0  0  0
   -1.6248    3.6099    2.4815 H   0  0  0  0  0  0  0  0  0  0  0  0
   -2.2644    3.4949    0.8375 H   0  0  0  0  0  0  0  0  0  0  0  0
   -3.3741    3.5939    2.2175 H   0  0  0  0  0  0  0  0  0  0  0  0
   -0.9750    1.0274    0.1566 N   0  0  0  0  0  0  0  0  0  0  0  0
    0.2023    0.5266   -0.5070 C   0  0  2  0  0  0  0  0  0  0  0  0
    1.3114    0.4535    0.5363 C   0  0  0  0  0  0  0  0  0  0  0  0
    2.5016    0.3639    0.2425 O   0  0  0  0  0  0  0  0  0  0  0  0
    0.6303    1.4184   -1.6782 C   0  0  0  0  0  0  0  0  0  0  0  0
   -0.3626    1.4055   -2.8148 C   0  0  0  0  0  0  0  0  0  0  0  0
   -0.3556    0.3575   -3.7353 C   0  0  0  0  0  0  0  0  0  0  0  0
   -1.2868    2.4421   -2.9451 C   0  0  0  0  0  0  0  0  0  0  0  0
   -1.2728    0.3460   -4.7860 C   0  0  0  0  0  0  0  0  0  0  0  0
   -2.2041    2.4306   -3.9959 C   0  0  0  0  0  0  0  0  0  0  0  0
   -2.1971    1.3825   -4.9163 C   0  0  0  0  0  0  0  0  0  0  0  0
   -3.0912    1.3718   -5.9425 O   0  0  0  0  0  0  0  0  0  0  0  0
   -1.7582    1.3241   -0.4207 H   0  0  0  0  0  0  0  0  0  0  0  0
   -0.0383   -0.4877   -0.8468 H   0  0  0  0  0  0  0  0  0  0  0  0
    1.6186    1.1130   -2.0475 H   0  0  0  0  0  0  0  0  0  0  0  0
    0.7563    2.4567   -1.3436 H   0  0  0  0  0  0  0  0  0  0  0  0
    0.3609   -0.4541   -3.6414 H   0  0  0  0  0  0  0  0  0  0  0  0
   -1.2997    3.2627   -2.2324 H   0  0  0  0  0  0  0  0  0  0  0  0
   -1.2622   -0.4731   -5.5002 H   0  0  0  0  0  0  0  0  0  0  0  0
   -2.9212    3.2410   -4.0921 H   0  0  0  0  0  0  0  0  0  0  0  0
   -3.6635    2.1544   -5.8981 H   0  0  0  0  0  0  0  0  0  0  0  0
    0.8158    0.5505    1.8292 N   0  0  0  0  0  0  0  0  0  0  0  0
    1.6564    0.5318    3.0047 C   0  0  2  0  0  0  0  0  0  0  0  0
    2.5912   -0.6656    2.8954 C   0  0  0  0  0  0  0  0  0  0  0  0
    2.3456   -1.6467    2.1968 O   0  0  0  0  0  0  0  0  0  0  0  0
    0.8266    0.4592    4.2771 C   0  0  0  0  0  0  0  0  0  0  0  0
   -0.1881    0.6392    1.9555 H   0  0  0  0  0  0  0  0  0  0  0  0
    2.2432    1.4567    2.9887 H   0  0  0  0  0  0  0  0  0  0  0  0
    0.2318   -0.4608    4.3111 H   0  0  0  0  0  0  0  0  0  0  0  0
    1.4637    0.4739    5.1676 H   0  0  0  0  0  0  0  0  0  0  0  0
    0.1338    1.3054    4.3394 H   0  0  0  0  0  0  0  0  0  0  0  0
    3.7113   -0.5286    3.7033 N   0  0  0  0  0  0  0  0  0  0  0  0
    4.7418   -1.5372    3.7849 C   0  0  0  0  0  0  0  0  0  0  0  0
    3.8426    0.3272    4.2346 H   0  0  0  0  0  0  0  0  0  0  0  0
    4.5198   -2.2226    4.6161 H   0  0  0  0  0  0  0  0  0  0  0  0
    4.7761   -2.1033    2.8423 H   0  0  0  0  0  0  0  0  0  0  0  0
    5.7148   -1.0541    3.9581 H   0  0  0  0  0  0  0  0  0  0  0  0
 23 25  2  0  0  0  0
 22 23  1  0  0  0  0
 24 26  1  0  0  0  0
 22 24  2  0  0  0  0
 25 27  1  0  0  0  0
 26 27  2  0  0  0  0
 21 22  1  0  0  0  0
 27 28  1  0  0  0  0
  1  3  1  0  0  0  0
  1  7  1  0  0  0  0
  1  2  2  0  0  0  0
 39 40  1  0  0  0  0
 40 48  1  0  0  0  0
 40 41  2  0  0  0  0
  8  9  1  0  0  0  0
  9 17  1  0  0  0  0
  9 10  2  0  0  0  0
 18 19  1  0  0  0  0
 19 38  1  0  0  0  0
 19 20  2  0  0  0  0
 39 42  1  0  0  0  0
  8 11  1  0  0  0  0
 48 49  1  0  0  0  0
 18 21  1  0  0  0  0
 38 39  1  0  0  0  0
  7  8  1  0  0  0  0
 17 18  1  0  0  0  0
 23 33  1  0  0  0  0
 24 34  1  0  0  0  0
 25 35  1  0  0  0  0
 26 36  1  0  0  0  0
  3  4  1  0  0  0  0
  3  5  1  0  0  0  0
  3  6  1  0  0  0  0
 42 45  1  0  0  0  0
 42 46  1  0  0  0  0
 42 47  1  0  0  0  0
 11 14  1  0  0  0  0
 11 15  1  0  0  0  0
 11 16  1  0  0  0  0
 49 51  1  0  0  0  0
 49 52  1  0  0  0  0
 49 53  1  0  0  0  0
 21 31  1  0  0  0  0
 21 32  1  0  0  0  0
 39 44  1  0  0  0  0
  8 13  1  0  0  0  0
 18 30  1  0  0  0  0
 48 50  1  0  0  0  0
  7 12  1  0  0  0  0
 38 43  1  0  0  0  0
 17 29  1  0  0  0  0
 28 37  1  0  0  0  0
M  END
$$$$

  -OEChem-05262214473D

 53 53  0     1  0  0  0  0  0999 V2000
   -1.9298    0.2574    3.9747 C   0  0  0  0  0  0  0  0  0  0  0  0
   -0.9825   -0.3573    3.4990 O   0  0  0  0  0  0  0  0  0  0  0  0
   -2.3617   -0.0250    5.3754 C   0  0  0  0  0  0  0  0  0  0  0  0
   -3.1214   -0.8213    5.4288 H   0  0  0  0  0  0  0  0  0  0  0  0
   -1.5305   -0.3726    6.0097 H   0  0  0  0  0  0  0  0  0  0  0  0
   -2.7997    0.8299    5.9150 H   0  0  0  0  0  0  0  0  0  0  0  0
   -2.6795    1.2298    3.3336 N   0  0  0  0  0  0  0  0  0  0  0  0
   -2.4327    1.6559    1.9812 C   0  0  2  0  0  0  0  0  0  0  0  0
   -1.0977    1.0705    1.5400 C   0  0  0  0  0  0  0  0  0  0  0  0
   -0.2256    0.7177    2.3313 O   0  0  0  0  0  0  0  0  0  0  0  0
   -2.4239    3.1726    1.8718 C   0  0  0  0  0  0  0  0  0  0  0  0
   -3.4446    1.6657    3.8454 H   0  0  0  0  0  0  0  0  0  0  0  0
   -3.2368    1.2374    1.3661 H   0  0  0  0  0  0  0  0  0  0  0  0
   -1.6248    3.6099    2.4815 H   0  0  0  0  0  0  0  0  0  0  0  0
   -2.2644    3.4949    0.8375 H   0  0  0  0  0  0  0  0  0  0  0  0
   -3.3741    3.5939    2.2175 H   0  0  0  0  0  0  0  0  0  0  0  0
   -0.9750    1.0274    0.1566 N   0  0  0  0  0  0  0  0  0  0  0  0
    0.2023    0.5266   -0.5070 C   0  0  2  0  0  0  0  0  0  0  0  0
    1.3114    0.4535    0.5363 C   0  0  0  0  0  0  0  0  0  0  0  0
    2.4971    0.6320    0.2660 O   0  0  0  0  0  0  0  0  0  0  0  0
    0.6303    1.4184   -1.6782 C   0  0  0  0  0  0  0  0  0  0  0  0
   -0.3626    1.4055   -2.8148 C   0  0  0  0  0  0  0  0  0  0  0  0
   -0.3556    0.3575   -3.7353 C   0  0  0  0  0  0  0  0  0  0  0  0
   -1.2868    2.4421   -2.9451 C   0  0  0  0  0  0  0  0  0  0  0  0
   -1.2728    0.3460   -4.7860 C   0  0  0  0  0  0  0  0  0  0  0  0
   -2.2041    2.4306   -3.9959 C   0  0  0  0  0  0  0  0  0  0  0  0
   -2.1971    1.3825   -4.9163 C   0  0  0  0  0  0  0  0  0  0  0  0
   -3.0912    1.3718   -5.9425 O   0  0  0  0  0  0  0  0  0  0  0  0
   -1.7582    1.3241   -0.4207 H   0  0  0  0  0  0  0  0  0  0  0  0
   -0.0383   -0.4877   -0.8468 H   0  0  0  0  0  0  0  0  0  0  0  0
    1.6186    1.1130   -2.0475 H   0  0  0  0  0  0  0  0  0  0  0  0
    0.7563    2.4567   -1.3436 H   0  0  0  0  0  0  0  0  0  0  0  0
    0.3609   -0.4541   -3.6414 H   0  0  0  0  0  0  0  0  0  0  0  0
   -1.2997    3.2627   -2.2324 H   0  0  0  0  0  0  0  0  0  0  0  0
   -1.2622   -0.4731   -5.5002 H   0  0  0  0  0  0  0  0  0  0  0  0
   -2.9212    3.2410   -4.0921 H   0  0  0  0  0  0  0  0  0  0  0  0
   -3.6635    2.1544   -5.8981 H   0  0  0  0  0  0  0  0  0  0  0  0
    0.8124    0.2151    1.8094 N   0  0  0  0  0  0  0  0  0  0  0  0
    1.6481    0.1222    2.9848 C   0  0  2  0  0  0  0  0  0  0  0  0
    2.7809   -0.8492    2.6808 C   0  0  0  0  0  0  0  0  0  0  0  0
    2.7111   -1.7079    1.8040 O   0  0  0  0  0  0  0  0  0  0  0  0
    0.8504   -0.3349    4.1962 C   0  0  0  0  0  0  0  0  0  0  0  0
   -0.1907    0.1002    1.9205 H   0  0  0  0  0  0  0  0  0  0  0  0
    2.0605    1.1220    3.1595 H   0  0  0  0  0  0  0  0  0  0  0  0
    0.4293   -1.3347    4.0398 H   0  0  0  0  0  0  0  0  0  0  0  0
    1.4787   -0.3773    5.0920 H   0  0  0  0  0  0  0  0  0  0  0  0
    0.0181    0.3488    4.3954 H   0  0  0  0  0  0  0  0  0  0  0  0
    3.8624   -0.6728    3.5326 N   0  0  0  0  0  0  0  0  0  0  0  0
    5.0566   -1.4814    3.4542 C   0  0  0  0  0  0  0  0  0  0  0  0
    3.8414    0.0763    4.2183 H   0  0  0  0  0  0  0  0  0  0  0  0
    4.9641   -2.3400    4.1356 H   0  0  0  0  0  0  0  0  0  0  0  0
    5.1870   -1.8436    2.4238 H   0  0  0  0  0  0  0  0  0  0  0  0
    5.9285   -0.8763    3.7433 H   0  0  0  0  0  0  0  0  0  0  0  0
 23 25  2  0  0  0  0
 22 23  1  0  0  0  0
 24 26  1  0  0  0  0
 22 24  2  0  0  0  0
 25 27  1  0  0  0  0
 26 27  2  0  0  0  0
 21 22  1  0  0  0  0
 27 28  1  0  0  0  0
  1  3  1  0  0  0  0
  1  7  1  0  0  0  0
  1  2  2  0  0  0  0
 39 40  1  0  0  0  0
 40 48  1  0  0  0  0
 40 41  2  0  0  0  0
  8  9  1  0  0  0  0
  9 17  1  0  0  0  0
  9 10  2  0  0  0  0
 18 19  1  0  0  0  0
 19 38  1  0  0  0  0
 19 20  2  0  0  0  0
 39 42  1  0  0  0  0
  8 11  1  0  0  0  0
 48 49  1  0  0  0  0
 18 21  1  0  0  0  0
 38 39  1  0  0  0  0
  7  8  1  0  0  0  0
 17 18  1  0  0  0  0
 23 33  1  0  0  0  0
 24 34  1  0  0  0  0
 25 35  1  0  0  0  0
 26 36  1  0  0  0  0
  3  4  1  0  0  0  0
  3  5  1  0  0  0  0
  3  6  1  0  0  0  0
 42 45  1  0  0  0  0
 42 46  1  0  0  0  0
 42 47  1  0  0  0  0
 11 14  1  0  0  0  0
 11 15  1  0  0  0  0
 11 16  1  0  0  0  0
 49 51  1  0  0  0  0
 49 52  1  0  0  0  0
 49 53  1  0  0  0  0
 21 31  1  0  0  0  0
 21 32  1  0  0  0  0
 39 44  1  0  0  0  0
  8 13  1  0  0  0  0
 18 30  1  0  0  0  0
 48 50  1  0  0  0  0
  7 12  1  0  0  0  0
 38 43  1  0  0  0  0
 17 29  1  0  0  0  0
 28 37  1  0  0  0  0
M  END
$$$$

  -OEChem-05262214473D

 53 53  0     1  0  0  0  0  0999 V2000
   -1.9298    0.2574    3.9747 C   0  0  0  0  0  0  0  0  0  0  0  0
   -0.9825   -0.3573    3.4990 O   0  0  0  0  0  0  0  0  0  0  0  0
   -2.3617   -0.0250    5.3754 C   0  0  0  0  0  0  0  0  0  0  0  0
   -3.1214   -0.8213    5.4288 H   0  0  0  0  0  0  0  0  0  0  0  0
   -1.5305   -0.3726    6.0097 H   0  0  0  0  0  0  0  0  0  0  0  0
   -2.7997    0.8299    5.9150 H   0  0  0  0  0  0  0  0  0  0  0  0
   -2.6795    1.2298    3.3336 N   0  0  0  0  0  0  0  0  0  0  0  0
   -2.4327    1.6559    1.9812 C   0  0  2  0  0  0  0  0  0  0  0  0
   -1.0977    1.0705    1.5400 C   0  0  0  0  0  0  0  0  0  0  0  0
   -0.2256    0.7177    2.3313 O   0  0  0  0  0  0  0  0  0  0  0  0
   -2.4239    3.1726    1.8718 C   0  0  0  0  0  0  0  0  0  0  0  0
   -3.4446    1.6657    3.8454 H   0  0  0  0  0  0  0  0  0  0  0  0
   -3.2368    1.2374    1.3661 H   0  0  0  0  0  0  0  0  0  0  0  0
   -1.6248    3.6099    2.4815 H   0  0  0  0  0  0  0  0  0  0  0  0
   -2.2644    3.4949    0.8375 H   0  0  0  0  0  0  0  0  0  0  0  0
   -3.3741    3.5939    2.2175 H   0  0  0  0  0  0  0  0  0  0  0  0
   -0.9750    1.0274    0.1566 N   0  0  0  0  0  0  0  0  0  0  0  0
    0.2023    0.5266   -0.5070 C   0  0  2  0  0  0  0  0  0  0  0  0
    1.3114    0.4535    0.5363 C   0  0  0  0  0  0  0  0  0  0  0  0
    2.4451    0.8858    0.3392 O   0  0  0  0  0  0  0  0  0  0  0  0
    0.6303    1.4184   -1.6782 C   0  0  0  0  0  0  0  0  0  0  0  0
   -0.3626    1.4055   -2.8148 C   0  0  0  0  0  0  0  0  0  0  0  0
   -0.3556    0.3575   -3.7353 C   0  0  0  0  0  0  0  0  0  0  0  0
   -1.2868    2.4421   -2.9451 C   0  0  0  0  0  0  0  0  0  0  0  0
   -1.2728    0.3460   -4.7860 C   0  0  0  0  0  0  0  0  0  0  0  0
   -2.2041    2.4306   -3.9959 C   0  0  0  0  0  0  0  0  0  0  0  0
   -2.1971    1.3825   -4.9163 C   0  0  0  0  0  0  0  0  0  0  0  0
   -3.0912    1.3718   -5.9425 O   0  0  0  0  0  0  0  0  0  0  0  0
   -1.7582    1.3241   -0.4207 H   0  0  0  0  0  0  0  0  0  0  0  0
   -0.0383   -0.4877   -0.8468 H   0  0  0  0  0  0  0  0  0  0  0  0
    1.6186    1.1130   -2.0475 H   0  0  0  0  0  0  0  0  0  0  0  0
    0.7563    2.4567   -1.3436 H   0  0  0  0  0  0  0  0  0  0  0  0
    0.3609   -0.4541   -3.6414 H   0  0  0  0  0  0  0  0  0  0  0  0
   -1.2997    3.2627   -2.2324 H   0  0  0  0  0  0  0  0  0  0  0  0
   -1.2622   -0.4731   -5.5002 H   0  0  0  0  0  0  0  0  0  0  0  0
   -2.9212    3.2410   -4.0921 H   0  0  0  0  0  0  0  0  0  0  0  0
   -3.6635    2.1544   -5.8981 H   0  0  0  0  0  0  0  0  0  0  0  0
    0.8687   -0.1057    1.7270 N   0  0  0  0  0  0  0  0  0  0  0  0
    1.7129   -0.2711    2.8884 C   0  0  2  0  0  0  0  0  0  0  0  0
    2.9994   -0.9526    2.4413 C   0  0  0  0  0  0  0  0  0  0  0  0
    3.0799   -1.6283    1.4176 O   0  0  0  0  0  0  0  0  0  0  0  0
    1.0150   -1.0824    3.9688 C   0  0  0  0  0  0  0  0  0  0  0  0
   -0.0973   -0.4143    1.7851 H   0  0  0  0  0  0  0  0  0  0  0  0
    1.9412    0.7342    3.2591 H   0  0  0  0  0  0  0  0  0  0  0  0
    0.7783   -2.0928    3.6157 H   0  0  0  0  0  0  0  0  0  0  0  0
    1.6449   -1.1825    4.8589 H   0  0  0  0  0  0  0  0  0  0  0  0
    0.0751   -0.6062    4.2679 H   0  0  0  0  0  0  0  0  0  0  0  0
    4.0360   -0.7533    3.3425 N   0  0  0  0  0  0  0  0  0  0  0  0
    5.3548   -1.3094    3.1492 C   0  0  0  0  0  0  0  0  0  0  0  0
    3.8848   -0.1632    4.1553 H   0  0  0  0  0  0  0  0  0  0  0  0
    5.4200   -2.2841    3.6548 H   0  0  0  0  0  0  0  0  0  0  0  0
    5.5430   -1.4411    2.0735 H   0  0  0  0  0  0  0  0  0  0  0  0
    6.1062   -0.6262    3.5719 H   0  0  0  0  0  0  0  0  0  0  0  0
 23 25  2  0  0  0  0
 22 23  1  0  0  0  0
 24 26  1  0  0  0  0
 22 24  2  0  0  0  0
 25 27  1  0  0  0  0
 26 27  2  0  0  0  0
 21 22  1  0  0  0  0
 27 28  1  0  0  0  0
  1  3  1  0  0  0  0
  1  7  1  0  0  0  0
  1  2  2  0  0  0  0
 39 40  1  0  0  0  0
 40 48  1  0  0  0  0
 40 41  2  0  0  0  0
  8  9  1  0  0  0  0
  9 17  1  0  0  0  0
  9 10  2  0  0  0  0
 18 19  1  0  0  0  0
 19 38  1  0  0  0  0
 19 20  2  0  0  0  0
 39 42  1  0  0  0  0
  8 11  1  0  0  0  0
 48 49  1  0  0  0  0
 18 21  1  0  0  0  0
 38 39  1  0  0  0  0
  7  8  1  0  0  0  0
 17 18  1  0  0  0  0
 23 33  1  0  0  0  0
 24 34  1  0  0  0  0
 25 35  1  0  0  0  0
 26 36  1  0  0  0  0
  3  4  1  0  0  0  0
  3  5  1  0  0  0  0
  3  6  1  0  0  0  0
 42 45  1  0  0  0  0
 42 46  1  0  0  0  0
 42 47  1  0  0  0  0
 11 14  1  0  0  0  0
 11 15  1  0  0  0  0
 11 16  1  0  0  0  0
 49 51  1  0  0  0  0
 49 52  1  0  0  0  0
 49 53  1  0  0  0  0
 21 31  1  0  0  0  0
 21 32  1  0  0  0  0
 39 44  1  0  0  0  0
  8 13  1  0  0  0  0
 18 30  1  0  0  0  0
 48 50  1  0  0  0  0
  7 12  1  0  0  0  0
 38 43  1  0  0  0  0
 17 29  1  0  0  0  0
 28 37  1  0  0  0  0
M  END
$$$$

  -OEChem-05262214473D

 53 53  0     1  0  0  0  0  0999 V2000
   -1.9298    0.2574    3.9747 C   0  0  0  0  0  0  0  0  0  0  0  0
   -0.9825   -0.3573    3.4990 O   0  0  0  0  0  0  0  0  0  0  0  0
   -2.3617   -0.0250    5.3754 C   0  0  0  0  0  0  0  0  0  0  0  0
   -3.1214   -0.8213    5.4288 H   0  0  0  0  0  0  0  0  0  0  0  0
   -1.5305   -0.3726    6.0097 H   0  0  0  0  0  0  0  0  0  0  0  0
   -2.7997    0.8299    5.9150 H   0  0  0  0  0  0  0  0  0  0  0  0
   -2.6795    1.2298    3.3336 N   0  0  0  0  0  0  0  0  0  0  0  0
   -2.4327    1.6559    1.9812 C   0  0  2  0  0  0  0  0  0  0  0  0
   -1.0977    1.0705    1.5400 C   0  0  0  0  0  0  0  0  0  0  0  0
   -0.2256    0.7177    2.3313 O   0  0  0  0  0  0  0  0  0  0  0  0
   -2.4239    3.1726    1.8718 C   0  0  0  0  0  0  0  0  0  0  0  0
   -3.4446    1.6657    3.8454 H   0  0  0  0  0  0  0  0  0  0  0  0
   -3.2368    1.2374    1.3661 H   0  0  0  0  0  0  0  0  0  0  0  0
   -1.6248    3.6099    2.4815 H   0  0  0  0  0  0  0  0  0  0  0  0
   -2.2644    3.4949    0.8375 H   0  0  0  0  0  0  0  0  0  0  0  0
   -3.3741    3.5939    2.2175 H   0  0  0  0  0  0  0  0  0  0  0  0
   -0.9750    1.0274    0.1566 N   0  0  0  0  0  0  0  0  0  0  0  0
    0.2023    0.5266   -0.5070 C   0  0  2  0  0  0  0  0  0  0  0  0
    1.3114    0.4535    0.5363 C   0  0  0  0  0  0  0  0  0  0  0  0
    2.3489    1.1079    0.4570 O   0  0  0  0  0  0  0  0  0  0  0  0
    0.6303    1.4184   -1.6782 C   0  0  0  0  0  0  0  0  0  0  0  0
   -0.3626    1.4055   -2.8148 C   0  0  0  0  0  0  0  0  0  0  0  0
   -0.3556    0.3575   -3.7353 C   0  0  0  0  0  0  0  0  0  0  0  0
   -1.2868    2.4421   -2.9451 C   0  0  0  0  0  0  0  0  0  0  0  0
   -1.2728    0.3460   -4.7860 C   0  0  0  0  0  0  0  0  0  0  0  0
   -2.2041    2.4306   -3.9959 C   0  0  0  0  0  0  0  0  0  0  0  0
   -2.1971    1.3825   -4.9163 C   0  0  0  0  0  0  0  0  0  0  0  0
   -3.0912    1.3718   -5.9425 O   0  0  0  0  0  0  0  0  0  0  0  0
   -1.7582    1.3241   -0.4207 H   0  0  0  0  0  0  0  0  0  0  0  0
   -0.0383   -0.4877   -0.8468 H   0  0  0  0  0  0  0  0  0  0  0  0
    1.6186    1.1130   -2.0475 H   0  0  0  0  0  0  0  0  0  0  0  0
    0.7563    2.4567   -1.3436 H   0  0  0  0  0  0  0  0  0  0  0  0
    0.3609   -0.4541   -3.6414 H   0  0  0  0  0  0  0  0  0  0  0  0
   -1.2997    3.2627   -2.2324 H   0  0  0  0  0  0  0  0  0  0  0  0
   -1.2622   -0.4731   -5.5002 H   0  0  0  0  0  0  0  0  0  0  0  0
   -2.9212    3.2410   -4.0921 H   0  0  0  0  0  0  0  0  0  0  0  0
   -3.6635    2.1544   -5.8981 H   0  0  0  0  0  0  0  0  0  0  0  0
    0.9809   -0.3901    1.5878 N   0  0  0  0  0  0  0  0  0  0  0  0
    1.8464   -0.6213    2.7219 C   0  0  2  0  0  0  0  0  0  0  0  0
    3.2318   -0.9687    2.1932 C   0  0  0  0  0  0  0  0  0  0  0  0
    3.4267   -1.4133    1.0639 O   0  0  0  0  0  0  0  0  0  0  0  0
    1.3093   -1.7325    3.6104 C   0  0  0  0  0  0  0  0  0  0  0  0
    0.0857   -0.8692    1.5587 H   0  0  0  0  0  0  0  0  0  0  0  0
    1.8935    0.3197    3.2808 H   0  0  0  0  0  0  0  0  0  0  0  0
    1.2549   -2.6833    3.0676 H   0  0  0  0  0  0  0  0  0  0  0  0
    1.9509   -1.8870    4.4842 H   0  0  0  0  0  0  0  0  0  0  0  0
    0.3009   -1.4945    3.9656 H   0  0  0  0  0  0  0  0  0  0  0  0
    4.2202   -0.7644    3.1458 N   0  0  0  0  0  0  0  0  0  0  0  0
    5.6162   -1.0330    2.8907 C   0  0  0  0  0  0  0  0  0  0  0  0
    3.9700   -0.3750    4.0500 H   0  0  0  0  0  0  0  0  0  0  0  0
    5.8565   -2.0589    3.2066 H   0  0  0  0  0  0  0  0  0  0  0  0
    5.8200   -0.9234    1.8153 H   0  0  0  0  0  0  0  0  0  0  0  0
    6.2357   -0.3209    3.4557 H   0  0  0  0  0  0  0  0  0  0  0  0
 23 25  2  0  0  0  0
 22 23  1  0  0  0  0
 24 26  1  0  0  0  0
 22 24  2  0  0  0  0
 25 27  1  0  0  0  0
 26 27  2  0  0  0  0
 21 22  1  0  0  0  0
 27 28  1  0  0  0  0
  1  3  1  0  0  0  0
  1  7  1  0  0  0  0
  1  2  2  0  0  0  0
 39 40  1  0  0  0  0
 40 48  1  0  0  0  0
 40 41  2  0  0  0  0
  8  9  1  0  0  0  0
  9 17  1  0  0  0  0
  9 10  2  0  0  0  0
 18 19  1  0  0  0  0
 19 38  1  0  0  0  0
 19 20  2  0  0  0  0
 39 42  1  0  0  0  0
  8 11  1  0  0  0  0
 48 49  1  0  0  0  0
 18 21  1  0  0  0  0
 38 39  1  0  0  0  0
  7  8  1  0  0  0  0
 17 18  1  0  0  0  0
 23 33  1  0  0  0  0
 24 34  1  0  0  0  0
 25 35  1  0  0  0  0
 26 36  1  0  0  0  0
  3  4  1  0  0  0  0
  3  5  1  0  0  0  0
  3  6  1  0  0  0  0
 42 45  1  0  0  0  0
 42 46  1  0  0  0  0
 42 47  1  0  0  0  0
 11 14  1  0  0  0  0
 11 15  1  0  0  0  0
 11 16  1  0  0  0  0
 49 51  1  0  0  0  0
 49 52  1  0  0  0  0
 49 53  1  0  0  0  0
 21 31  1  0  0  0  0
 21 32  1  0  0  0  0
 39 44  1  0  0  0  0
  8 13  1  0  0  0  0
 18 30  1  0  0  0  0
 48 50  1  0  0  0  0
  7 12  1  0  0  0  0
 38 43  1  0  0  0  0
 17 29  1  0  0  0  0
 28 37  1  0  0  0  0
M  END
$$$$

  -OEChem-05262214473D

 53 53  0     1  0  0  0  0  0999 V2000
   -1.9298    0.2574    3.9747 C   0  0  0  0  0  0  0  0  0  0  0  0
   -0.9825   -0.3573    3.4990 O   0  0  0  0  0  0  0  0  0  0  0  0
   -2.3617   -0.0250    5.3754 C   0  0  0  0  0  0  0  0  0  0  0  0
   -3.1214   -0.8213    5.4288 H   0  0  0  0  0  0  0  0  0  0  0  0
   -1.5305   -0.3726    6.0097 H   0  0  0  0  0  0  0  0  0  0  0  0
   -2.7997    0.8299    5.9150 H   0  0  0  0  0  0  0  0  0  0  0  0
   -2.6795    1.2298    3.3336 N   0  0  0  0  0  0  0  0  0  0  0  0
   -2.4327    1.6559    1.9812 C   0  0  2  0  0  0  0  0  0  0  0  0
   -1.0977    1.0705    1.5400 C   0  0  0  0  0  0  0  0  0  0  0  0
   -0.2256    0.7177    2.3313 O   0  0  0  0  0  0  0  0  0  0  0  0
   -2.4239    3.1726    1.8718 C   0  0  0  0  0  0  0  0  0  0  0  0
   -3.4446    1.6657    3.8454 H   0  0  0  0  0  0  0  0  0  0  0  0
   -3.2368    1.2374    1.3661 H   0  0  0  0  0  0  0  0  0  0  0  0
   -1.6248    3.6099    2.4815 H   0  0  0  0  0  0  0  0  0  0  0  0
   -2.2644    3.4949    0.8375 H   0  0  0  0  0  0  0  0  0  0  0  0
   -3.3741    3.5939    2.2175 H   0  0  0  0  0  0  0  0  0  0  0  0
   -0.9750    1.0274    0.1566 N   0  0  0  0  0  0  0  0  0  0  0  0
    0.2023    0.5266   -0.5070 C   0  0  2  0  0  0  0  0  0  0  0  0
    1.3114    0.4535    0.5363 C   0  0  0  0  0  0  0  0  0  0  0  0
    2.2152    1.2832    0.6114 O   0  0  0  0  0  0  0  0  0  0  0  0
    0.6303    1.4184   -1.6782 C   0  0  0  0  0  0  0  0  0  0  0  0
   -0.3626    1.4055   -2.8148 C   0  0  0  0  0  0  0  0  0  0  0  0
   -0.3556    0.3575   -3.7353 C   0  0  0  0  0  0  0  0  0  0  0  0
   -1.2868    2.4421   -2.9451 C   0  0  0  0  0  0  0  0  0  0  0  0
   -1.2728    0.3460   -4.7860 C   0  0  0  0  0  0  0  0  0  0  0  0
   -2.2041    2.4306   -3.9959 C   0  0  0  0  0  0  0  0  0  0  0  0
   -2.1971    1.3825   -4.9163 C   0  0  0  0  0  0  0  0  0  0  0  0
   -3.0912    1.3718   -5.9425 O   0  0  0  0  0  0  0  0  0  0  0  0
   -1.7582    1.3241   -0.4207 H   0  0  0  0  0  0  0  0  0  0  0  0
   -0.0383   -0.4877   -0.8468 H   0  0  0  0  0  0  0  0  0  0  0  0
    1.6186    1.1130   -2.0475 H   0  0  0  0  0  0  0  0  0  0  0  0
    0.7563    2.4567   -1.3436 H   0  0  0  0  0  0  0  0  0  0  0  0
    0.3609   -0.4541   -3.6414 H   0  0  0  0  0  0  0  0  0  0  0  0
   -1.2997    3.2627   -2.2324 H   0  0  0  0  0  0  0  0  0  0  0  0
   -1.2622   -0.4731   -5.5002 H   0  0  0  0  0  0  0  0  0  0  0  0
   -2.9212    3.2410   -4.0921 H   0  0  0  0  0  0  0  0  0  0  0  0
   -3.6635    2.1544   -5.8981 H   0  0  0  0  0  0  0  0  0  0  0  0
    1.1414   -0.6188    1.4011 N   0  0  0  0  0  0  0  0  0  0  0  0
    2.0394   -0.9046    2.4969 C   0  0  2  0  0  0  0  0  0  0  0  0
    3.4621   -0.8963    1.9534 C   0  0  0  0  0  0  0  0  0  0  0  0
    3.7281   -1.0776    0.7671 O   0  0  0  0  0  0  0  0  0  0  0  0
    1.7131   -2.2409    3.1455 C   0  0  0  0  0  0  0  0  0  0  0  0
    0.3458   -1.2335    1.2566 H   0  0  0  0  0  0  0  0  0  0  0  0
    1.9205   -0.0932    3.2231 H   0  0  0  0  0  0  0  0  0  0  0  0
    1.8267   -3.0661    2.4330 H   0  0  0  0  0  0  0  0  0  0  0  0
    2.3760   -2.4428    3.9933 H   0  0  0  0  0  0  0  0  0  0  0  0
    0.6800   -2.2556    3.5092 H   0  0  0  0  0  0  0  0  0  0  0  0
    4.4026   -0.7055    2.9560 N   0  0  0  0  0  0  0  0  0  0  0  0
    5.8229   -0.6710    2.6963 C   0  0  0  0  0  0  0  0  0  0  0  0
    4.0911   -0.5446    3.9093 H   0  0  0  0  0  0  0  0  0  0  0  0
    6.2438   -1.6796    2.8215 H   0  0  0  0  0  0  0  0  0  0  0  0
    5.9990   -0.3256    1.6669 H   0  0  0  0  0  0  0  0  0  0  0  0
    6.3081    0.0188    3.4026 H   0  0  0  0  0  0  0  0  0  0  0  0
 23 25  2  0  0  0  0
 22 23  1  0  0  0  0
 24 26  1  0  0  0  0
 22 24  2  0  0  0  0
 25 27  1  0  0  0  0
 26 27  2  0  0  0  0
 21 22  1  0  0  0  0
 27 28  1  0  0  0  0
  1  3  1  0  0  0  0
  1  7  1  0  0  0  0
  1  2  2  0  0  0  0
 39 40  1  0  0  0  0
 40 48  1  0  0  0  0
 40 41  2  0  0  0  0
  8  9  1  0  0  0  0
  9 17  1  0  0  0  0
  9 10  2  0  0  0  0
 18 19  1  0  0  0  0
 19 38  1  0  0  0  0
 19 20  2  0  0  0  0
 39 42  1  0  0  0  0
  8 11  1  0  0  0  0
 48 49  1  0  0  0  0
 18 21  1  0  0  0  0
 38 39  1  0  0  0  0
  7  8  1  0  0  0  0
 17 18  1  0  0  0  0
 23 33  1  0  0  0  0
 24 34  1  0  0  0  0
 25 35  1  0  0  0  0
 26 36  1  0  0  0  0
  3  4  1  0  0  0  0
  3  5  1  0  0  0  0
  3  6  1  0  0  0  0
 42 45  1  0  0  0  0
 42 46  1  0  0  0  0
 42 47  1  0  0  0  0
 11 14  1  0  0  0  0
 11 15  1  0  0  0  0
 11 16  1  0  0  0  0
 49 51  1  0  0  0  0
 49 52  1  0  0  0  0
 49 53  1  0  0  0  0
 21 31  1  0  0  0  0
 21 32  1  0  0  0  0
 39 44  1  0  0  0  0
  8 13  1  0  0  0  0
 18 30  1  0  0  0  0
 48 50  1  0  0  0  0
  7 12  1  0  0  0  0
 38 43  1  0  0  0  0
 17 29  1  0  0  0  0
 28 37  1  0  0  0  0
M  END
$$$$

  -OEChem-05262214473D

 53 53  0     1  0  0  0  0  0999 V2000
   -1.9298    0.2574    3.9747 C   0  0  0  0  0  0  0  0  0  0  0  0
   -0.9825   -0.3573    3.4990 O   0  0  0  0  0  0  0  0  0  0  0  0
   -2.3617   -0.0250    5.3754 C   0  0  0  0  0  0  0  0  0  0  0  0
   -3.1214   -0.8213    5.4288 H   0  0  0  0  0  0  0  0  0  0  0  0
   -1.5305   -0.3726    6.0097 H   0  0  0  0  0  0  0  0  0  0  0  0
   -2.7997    0.8299    5.9150 H   0  0  0  0  0  0  0  0  0  0  0  0
   -2.6795    1.2298    3.3336 N   0  0  0  0  0  0  0  0  0  0  0  0
   -2.4327    1.6559    1.9812 C   0  0  2  0  0  0  0  0  0  0  0  0
   -1.0977    1.0705    1.5400 C   0  0  0  0  0  0  0  0  0  0  0  0
   -0.2256    0.7177    2.3313 O   0  0  0  0  0  0  0  0  0  0  0  0
   -2.4239    3.1726    1.8718 C   0  0  0  0  0  0  0  0  0  0  0  0
   -3.4446    1.6657    3.8454 H   0  0  0  0  0  0  0  0  0  0  0  0
   -3.2368    1.2374    1.3661 H   0  0  0  0  0  0  0  0  0  0  0  0
   -1.6248    3.6099    2.4815 H   0  0  0  0  0  0  0  0  0  0  0  0
   -2.2644    3.4949    0.8375 H   0  0  0  0  0  0  0  0  0  0  0  0
   -3.3741    3.5939    2.2175 H   0  0  0  0  0  0  0  0  0  0  0  0
   -0.9750    1.0274    0.1566 N   0  0  0  0  0  0  0  0  0  0  0  0
    0.2023    0.5266   -0.5070 C   0  0  2  0  0  0  0  0  0  0  0  0
    1.3114    0.4535    0.5363 C   0  0  0  0  0  0  0  0  0  0  0  0
    2.0531    1.3998    0.7919 O   0  0  0  0  0  0  0  0  0  0  0  0
    0.6303    1.4184   -1.6782 C   0  0  0  0  0  0  0  0  0  0  0  0
   -0.3626    1.4055   -2.8148 C   0  0  0  0  0  0  0  0  0  0  0  0
   -0.3556    0.3575   -3.7353 C   0  0  0  0  0  0  0  0  0  0  0  0
   -1.2868    2.4421   -2.9451 C   0  0  0  0  0  0  0  0  0  0  0  0
   -1.2728    0.3460   -4.7860 C   0  0  0  0  0  0  0  0  0  0  0  0
   -2.2041    2.4306   -3.9959 C   0  0  0  0  0  0  0  0  0  0  0  0
   -2.1971    1.3825   -4.9163 C   0  0  0  0  0  0  0  0  0  0  0  0
   -3.0912    1.3718   -5.9425 O   0  0  0  0  0  0  0  0  0  0  0  0
   -1.7582    1.3241   -0.4207 H   0  0  0  0  0  0  0  0  0  0  0  0
   -0.0383   -0.4877   -0.8468 H   0  0  0  0  0  0  0  0  0  0  0  0
    1.6186    1.1130   -2.0475 H   0  0  0  0  0  0  0  0  0  0  0  0
    0.7563    2.4567   -1.3436 H   0  0  0  0  0  0  0  0  0  0  0  0
    0.3609   -0.4541   -3.6414 H   0  0  0  0  0  0  0  0  0  0  0  0
   -1.2997    3.2627   -2.2324 H   0  0  0  0  0  0  0  0  0  0  0  0
   -1.2622   -0.4731   -5.5002 H   0  0  0  0  0  0  0  0  0  0  0  0
   -2.9212    3.2410   -4.0921 H   0  0  0  0  0  0  0  0  0  0  0  0
   -3.6635    2.1544   -5.8981 H   0  0  0  0  0  0  0  0  0  0  0  0
    1.3393   -0.7760    1.1797 N   0  0  0  0  0  0  0  0  0  0  0  0
    2.2788   -1.1018    2.2285 C   0  0  2  0  0  0  0  0  0  0  0  0
    3.6748   -0.7404    1.7383 C   0  0  0  0  0  0  0  0  0  0  0  0
    3.9634   -0.6440    0.5473 O   0  0  0  0  0  0  0  0  0  0  0  0
    2.1990   -2.5729    2.6057 C   0  0  0  0  0  0  0  0  0  0  0  0
    0.6654   -1.4825    0.8994 H   0  0  0  0  0  0  0  0  0  0  0  0
    2.0204   -0.4764    3.0900 H   0  0  0  0  0  0  0  0  0  0  0  0
    2.4546   -3.2151    1.7549 H   0  0  0  0  0  0  0  0  0  0  0  0
    2.8911   -2.8118    3.4199 H   0  0  0  0  0  0  0  0  0  0  0  0
    1.1868   -2.8378    2.9297 H   0  0  0  0  0  0  0  0  0  0  0  0
    4.5707   -0.5806    2.7861 N   0  0  0  0  0  0  0  0  0  0  0  0
    5.9609   -0.2482    2.5792 C   0  0  0  0  0  0  0  0  0  0  0  0
    4.2398   -0.6606    3.7431 H   0  0  0  0  0  0  0  0  0  0  0  0
    6.5554   -1.1721    2.5257 H   0  0  0  0  0  0  0  0  0  0  0  0
    6.0679    0.3115    1.6383 H   0  0  0  0  0  0  0  0  0  0  0  0
    6.3185    0.3698    3.4161 H   0  0  0  0  0  0  0  0  0  0  0  0
 23 25  2  0  0  0  0
 22 23  1  0  0  0  0
 24 26  1  0  0  0  0
 22 24  2  0  0  0  0
 25 27  1  0  0  0  0
 26 27  2  0  0  0  0
 21 22  1  0  0  0  0
 27 28  1  0  0  0  0
  1  3  1  0  0  0  0
  1  7  1  0  0  0  0
  1  2  2  0  0  0  0
 39 40  1  0  0  0  0
 40 48  1  0  0  0  0
 40 41  2  0  0  0  0
  8  9  1  0  0  0  0
  9 17  1  0  0  0  0
  9 10  2  0  0  0  0
 18 19  1  0  0  0  0
 19 38  1  0  0  0  0
 19 20  2  0  0  0  0
 39 42  1  0  0  0  0
  8 11  1  0  0  0  0
 48 49  1  0  0  0  0
 18 21  1  0  0  0  0
 38 39  1  0  0  0  0
  7  8  1  0  0  0  0
 17 18  1  0  0  0  0
 23 33  1  0  0  0  0
 24 34  1  0  0  0  0
 25 35  1  0  0  0  0
 26 36  1  0  0  0  0
  3  4  1  0  0  0  0
  3  5  1  0  0  0  0
  3  6  1  0  0  0  0
 42 45  1  0  0  0  0
 42 46  1  0  0  0  0
 42 47  1  0  0  0  0
 11 14  1  0  0  0  0
 11 15  1  0  0  0  0
 11 16  1  0  0  0  0
 49 51  1  0  0  0  0
 49 52  1  0  0  0  0
 49 53  1  0  0  0  0
 21 31  1  0  0  0  0
 21 32  1  0  0  0  0
 39 44  1  0  0  0  0
  8 13  1  0  0  0  0
 18 30  1  0  0  0  0
 48 50  1  0  0  0  0
  7 12  1  0  0  0  0
 38 43  1  0  0  0  0
 17 29  1  0  0  0  0
 28 37  1  0  0  0  0
M  END
$$$$

  -OEChem-05262214473D

 53 53  0     1  0  0  0  0  0999 V2000
   -1.9298    0.2574    3.9747 C   0  0  0  0  0  0  0  0  0  0  0  0
   -0.9825   -0.3573    3.4990 O   0  0  0  0  0  0  0  0  0  0  0  0
   -2.3617   -0.0250    5.3754 C   0  0  0  0  0  0  0  0  0  0  0  0
   -3.1214   -0.8213    5.4288 H   0  0  0  0  0  0  0  0  0  0  0  0
   -1.5305   -0.3726    6.0097 H   0  0  0  0  0  0  0  0  0  0  0  0
   -2.7997    0.8299    5.9150 H   0  0  0  0  0  0  0  0  0  0  0  0
   -2.6795    1.2298    3.3336 N   0  0  0  0  0  0  0  0  0  0  0  0
   -2.4327    1.6559    1.9812 C   0  0  2  0  0  0  0  0  0  0  0  0
   -1.0977    1.0705    1.5400 C   0  0  0  0  0  0  0  0  0  0  0  0
   -0.2256    0.7177    2.3313 O   0  0  0  0  0  0  0  0  0  0  0  0
   -2.4239    3.1726    1.8718 C   0  0  0  0  0  0  0  0  0  0  0  0
   -3.4446    1.6657    3.8454 H   0  0  0  0  0  0  0  0  0  0  0  0
   -3.2368    1.2374    1.3661 H   0  0  0  0  0  0  0  0  0  0  0  0
   -1.6248    3.6099    2.4815 H   0  0  0  0  0  0  0  0  0  0  0  0
   -2.2644    3.4949    0.8375 H   0  0  0  0  0  0  0  0  0  0  0  0
   -3.3741    3.5939    2.2175 H   0  0  0  0  0  0  0  0  0  0  0  0
   -0.9750    1.0274    0.1566 N   0  0  0  0  0  0  0  0  0  0  0  0
    0.2023    0.5266   -0.5070 C   0  0  2  0  0  0  0  0  0  0  0  0
    1.3114    0.4535    0.5363 C   0  0  0  0  0  0  0  0  0  0  0  0
    1.8736    1.4497    0.9862 O   0  0  0  0  0  0  0  0  0  0  0  0
    0.6303    1.4184   -1.6782 C   0  0  0  0  0  0  0  0  0  0  0  0
   -0.3626    1.4055   -2.8148 C   0  0  0  0  0  0  0  0  0  0  0  0
   -0.3556    0.3575   -3.7353 C   0  0  0  0  0  0  0  0  0  0  0  0
   -1.2868    2.4421   -2.9451 C   0  0  0  0  0  0  0  0  0  0  0  0
   -1.2728    0.3460   -4.7860 C   0  0  0  0  0  0  0  0  0  0  0  0
   -2.2041    2.4306   -3.9959 C   0  0  0  0  0  0  0  0  0  0  0  0
   -2.1971    1.3825   -4.9163 C   0  0  0  0  0  0  0  0  0  0  0  0
   -3.0912    1.3718   -5.9425 O   0  0  0  0  0  0  0  0  0  0  0  0
   -1.7582    1.3241   -0.4207 H   0  0  0  0  0  0  0  0  0  0  0  0
   -0.0383   -0.4877   -0.8468 H   0  0  0  0  0  0  0  0  0  0  0  0
    1.6186    1.1130   -2.0475 H   0  0  0  0  0  0  0  0  0  0  0  0
    0.7563    2.4567   -1.3436 H   0  0  0  0  0  0  0  0  0  0  0  0
    0.3609   -0.4541   -3.6414 H   0  0  0  0  0  0  0  0  0  0  0  0
   -1.2997    3.2627   -2.2324 H   0  0  0  0  0  0  0  0  0  0  0  0
   -1.2622   -0.4731   -5.5002 H   0  0  0  0  0  0  0  0  0  0  0  0
   -2.9212    3.2410   -4.0921 H   0  0  0  0  0  0  0  0  0  0  0  0
   -3.6635    2.1544   -5.8981 H   0  0  0  0  0  0  0  0  0  0  0  0
    1.5610   -0.8512    0.9388 N   0  0  0  0  0  0  0  0  0  0  0  0
    2.5483   -1.1992    1.9352 C   0  0  2  0  0  0  0  0  0  0  0  0
    3.8552   -0.5117    1.5625 C   0  0  0  0  0  0  0  0  0  0  0  0
    4.1166   -0.1422    0.4196 O   0  0  0  0  0  0  0  0  0  0  0  0
    2.7339   -2.7058    2.0278 C   0  0  0  0  0  0  0  0  0  0  0  0
    1.0227   -1.5991    0.5114 H   0  0  0  0  0  0  0  0  0  0  0  0
    2.1865   -0.8038    2.8905 H   0  0  0  0  0  0  0  0  0  0  0  0
    3.0960   -3.1200    1.0798 H   0  0  0  0  0  0  0  0  0  0  0  0
    3.4612   -2.9691    2.8028 H   0  0  0  0  0  0  0  0  0  0  0  0
    1.7866   -3.2012    2.2666 H   0  0  0  0  0  0  0  0  0  0  0  0
    4.7131   -0.3982    2.6475 N   0  0  0  0  0  0  0  0  0  0  0  0
    6.0208    0.2068    2.5475 C   0  0  0  0  0  0  0  0  0  0  0  0
    4.4061   -0.7149    3.5625 H   0  0  0  0  0  0  0  0  0  0  0  0
    6.7703   -0.5711    2.3395 H   0  0  0  0  0  0  0  0  0  0  0  0
    6.0220    0.9444    1.7315 H   0  0  0  0  0  0  0  0  0  0  0  0
    6.2662    0.7081    3.4954 H   0  0  0  0  0  0  0  0  0  0  0  0
 23 25  2  0  0  0  0
 22 23  1  0  0  0  0
 24 26  1  0  0  0  0
 22 24  2  0  0  0  0
 25 27  1  0  0  0  0
 26 27  2  0  0  0  0
 21 22  1  0  0  0  0
 27 28  1  0  0  0  0
  1  3  1  0  0  0  0
  1  7  1  0  0  0  0
  1  2  2  0  0  0  0
 39 40  1  0  0  0  0
 40 48  1  0  0  0  0
 40 41  2  0  0  0  0
  8  9  1  0  0  0  0
  9 17  1  0  0  0  0
  9 10  2  0  0  0  0
 18 19  1  0  0  0  0
 19 38  1  0  0  0  0
 19 20  2  0  0  0  0
 39 42  1  0  0  0  0
  8 11  1  0  0  0  0
 48 49  1  0  0  0  0
 18 21  1  0  0  0  0
 38 39  1  0  0  0  0
  7  8  1  0  0  0  0
 17 18  1  0  0  0  0
 23 33  1  0  0  0  0
 24 34  1  0  0  0  0
 25 35  1  0  0  0  0
 26 36  1  0  0  0  0
  3  4  1  0  0  0  0
  3  5  1  0  0  0  0
  3  6  1  0  0  0  0
 42 45  1  0  0  0  0
 42 46  1  0  0  0  0
 42 47  1  0  0  0  0
 11 14  1  0  0  0  0
 11 15  1  0  0  0  0
 11 16  1  0  0  0  0
 49 51  1  0  0  0  0
 49 52  1  0  0  0  0
 49 53  1  0  0  0  0
 21 31  1  0  0  0  0
 21 32  1  0  0  0  0
 39 44  1  0  0  0  0
  8 13  1  0  0  0  0
 18 30  1  0  0  0  0
 48 50  1  0  0  0  0
  7 12  1  0  0  0  0
 38 43  1  0  0  0  0
 17 29  1  0  0  0  0
 28 37  1  0  0  0  0
M  END
$$$$

  -OEChem-05262214473D

 53 53  0     1  0  0  0  0  0999 V2000
   -1.9298    0.2574    3.9747 C   0  0  0  0  0  0  0  0  0  0  0  0
   -0.9825   -0.3573    3.4990 O   0  0  0  0  0  0  0  0  0  0  0  0
   -2.3617   -0.0250    5.3754 C   0  0  0  0  0  0  0  0  0  0  0  0
   -3.1214   -0.8213    5.4288 H   0  0  0  0  0  0  0  0  0  0  0  0
   -1.5305   -0.3726    6.0097 H   0  0  0  0  0  0  0  0  0  0  0  0
   -2.7997    0.8299    5.9150 H   0  0  0  0  0  0  0  0  0  0  0  0
   -2.6795    1.2298    3.3336 N   0  0  0  0  0  0  0  0  0  0  0  0
   -2.4327    1.6559    1.9812 C   0  0  2  0  0  0  0  0  0  0  0  0
   -1.0977    1.0705    1.5400 C   0  0  0  0  0  0  0  0  0  0  0  0
   -0.2256    0.7177    2.3313 O   0  0  0  0  0  0  0  0  0  0  0  0
   -2.4239    3.1726    1.8718 C   0  0  0  0  0  0  0  0  0  0  0  0
   -3.4446    1.6657    3.8454 H   0  0  0  0  0  0  0  0  0  0  0  0
   -3.2368    1.2374    1.3661 H   0  0  0  0  0  0  0  0  0  0  0  0
   -1.6248    3.6099    2.4815 H   0  0  0  0  0  0  0  0  0  0  0  0
   -2.2644    3.4949    0.8375 H   0  0  0  0  0  0  0  0  0  0  0  0
   -3.3741    3.5939    2.2175 H   0  0  0  0  0  0  0  0  0  0  0  0
   -0.9750    1.0274    0.1566 N   0  0  0  0  0  0  0  0  0  0  0  0
    0.2023    0.5266   -0.5070 C   0  0  2  0  0  0  0  0  0  0  0  0
    1.3114    0.4535    0.5363 C   0  0  0  0  0  0  0  0  0  0  0  0
    1.6890    1.4295    1.1811 O   0  0  0  0  0  0  0  0  0  0  0  0
    0.6303    1.4184   -1.6782 C   0  0  0  0  0  0  0  0  0  0  0  0
   -0.3626    1.4055   -2.8148 C   0  0  0  0  0  0  0  0  0  0  0  0
   -0.3556    0.3575   -3.7353 C   0  0  0  0  0  0  0  0  0  0  0  0
   -1.2868    2.4421   -2.9451 C   0  0  0  0  0  0  0  0  0  0  0  0
   -1.2728    0.3460   -4.7860 C   0  0  0  0  0  0  0  0  0  0  0  0
   -2.2041    2.4306   -3.9959 C   0  0  0  0  0  0  0  0  0  0  0  0
   -2.1971    1.3825   -4.9163 C   0  0  0  0  0  0  0  0  0  0  0  0
   -3.0912    1.3718   -5.9425 O   0  0  0  0  0  0  0  0  0  0  0  0
   -1.7582    1.3241   -0.4207 H   0  0  0  0  0  0  0  0  0  0  0  0
   -0.0383   -0.4877   -0.8468 H   0  0  0  0  0  0  0  0  0  0  0  0
    1.6186    1.1130   -2.0475 H   0  0  0  0  0  0  0  0  0  0  0  0
    0.7563    2.4567   -1.3436 H   0  0  0  0  0  0  0  0  0  0  0  0
    0.3609   -0.4541   -3.6414 H   0  0  0  0  0  0  0  0  0  0  0  0
   -1.2997    3.2627   -2.2324 H   0  0  0  0  0  0  0  0  0  0  0  0
   -1.2622   -0.4731   -5.5002 H   0  0  0  0  0  0  0  0  0  0  0  0
   -2.9212    3.2410   -4.0921 H   0  0  0  0  0  0  0  0  0  0  0  0
   -3.6635    2.1544   -5.8981 H   0  0  0  0  0  0  0  0  0  0  0  0
    1.7915   -0.8392    0.6946 N   0  0  0  0  0  0  0  0  0  0  0  0
    2.8296   -1.1904    1.6368 C   0  0  2  0  0  0  0  0  0  0  0  0
    3.9912   -0.2257    1.4380 C   0  0  0  0  0  0  0  0  0  0  0  0
    4.1773    0.3937    0.3926 O   0  0  0  0  0  0  0  0  0  0  0  0
    3.2812   -2.6306    1.4512 C   0  0  0  0  0  0  0  0  0  0  0  0
    1.3932   -1.5754    0.1192 H   0  0  0  0  0  0  0  0  0  0  0  0
    2.4074   -1.0530    2.6383 H   0  0  0  0  0  0  0  0  0  0  0  0
    3.7071   -2.7875    0.4535 H   0  0  0  0  0  0  0  0  0  0  0  0
    4.0473   -2.9038    2.1843 H   0  0  0  0  0  0  0  0  0  0  0  0
    2.4385   -3.3211    1.5651 H   0  0  0  0  0  0  0  0  0  0  0  0
    4.8200   -0.1706    2.5498 N   0  0  0  0  0  0  0  0  0  0  0  0
    5.9984    0.6628    2.6033 C   0  0  0  0  0  0  0  0  0  0  0  0
    4.5786   -0.7039    3.3799 H   0  0  0  0  0  0  0  0  0  0  0  0
    6.8736    0.0826    2.2754 H   0  0  0  0  0  0  0  0  0  0  0  0
    5.8643    1.5301    1.9402 H   0  0  0  0  0  0  0  0  0  0  0  0
    6.1548    1.0107    3.6350 H   0  0  0  0  0  0  0  0  0  0  0  0
 23 25  2  0  0  0  0
 22 23  1  0  0  0  0
 24 26  1  0  0  0  0
 22 24  2  0  0  0  0
 25 27  1  0  0  0  0
 26 27  2  0  0  0  0
 21 22  1  0  0  0  0
 27 28  1  0  0  0  0
  1  3  1  0  0  0  0
  1  7  1  0  0  0  0
  1  2  2  0  0  0  0
 39 40  1  0  0  0  0
 40 48  1  0  0  0  0
 40 41  2  0  0  0  0
  8  9  1  0  0  0  0
  9 17  1  0  0  0  0
  9 10  2  0  0  0  0
 18 19  1  0  0  0  0
 19 38  1  0  0  0  0
 19 20  2  0  0  0  0
 39 42  1  0  0  0  0
  8 11  1  0  0  0  0
 48 49  1  0  0  0  0
 18 21  1  0  0  0  0
 38 39  1  0  0  0  0
  7  8  1  0  0  0  0
 17 18  1  0  0  0  0
 23 33  1  0  0  0  0
 24 34  1  0  0  0  0
 25 35  1  0  0  0  0
 26 36  1  0  0  0  0
  3  4  1  0  0  0  0
  3  5  1  0  0  0  0
  3  6  1  0  0  0  0
 42 45  1  0  0  0  0
 42 46  1  0  0  0  0
 42 47  1  0  0  0  0
 11 14  1  0  0  0  0
 11 15  1  0  0  0  0
 11 16  1  0  0  0  0
 49 51  1  0  0  0  0
 49 52  1  0  0  0  0
 49 53  1  0  0  0  0
 21 31  1  0  0  0  0
 21 32  1  0  0  0  0
 39 44  1  0  0  0  0
  8 13  1  0  0  0  0
 18 30  1  0  0  0  0
 48 50  1  0  0  0  0
  7 12  1  0  0  0  0
 38 43  1  0  0  0  0
 17 29  1  0  0  0  0
 28 37  1  0  0  0  0
M  END
$$$$

  -OEChem-05262214473D

 53 53  0     1  0  0  0  0  0999 V2000
   -1.9298    0.2574    3.9747 C   0  0  0  0  0  0  0  0  0  0  0  0
   -0.9825   -0.3573    3.4990 O   0  0  0  0  0  0  0  0  0  0  0  0
   -2.3617   -0.0250    5.3754 C   0  0  0  0  0  0  0  0  0  0  0  0
   -3.1214   -0.8213    5.4288 H   0  0  0  0  0  0  0  0  0  0  0  0
   -1.5305   -0.3726    6.0097 H   0  0  0  0  0  0  0  0  0  0  0  0
   -2.7997    0.8299    5.9150 H   0  0  0  0  0  0  0  0  0  0  0  0
   -2.6795    1.2298    3.3336 N   0  0  0  0  0  0  0  0  0  0  0  0
   -2.4327    1.6559    1.9812 C   0  0  2  0  0  0  0  0  0  0  0  0
   -1.0977    1.0705    1.5400 C   0  0  0  0  0  0  0  0  0  0  0  0
   -0.2256    0.7177    2.3313 O   0  0  0  0  0  0  0  0  0  0  0  0
   -2.4239    3.1726    1.8718 C   0  0  0  0  0  0  0  0  0  0  0  0
   -3.4446    1.6657    3.8454 H   0  0  0  0  0  0  0  0  0  0  0  0
   -3.2368    1.2374    1.3661 H   0  0  0  0  0  0  0  0  0  0  0  0
   -1.6248    3.6099    2.4815 H   0  0  0  0  0  0  0  0  0  0  0  0
   -2.2644    3.4949    0.8375 H   0  0  0  0  0  0  0  0  0  0  0  0
   -3.3741    3.5939    2.2175 H   0  0  0  0  0  0  0  0  0  0  0  0
   -0.9750    1.0274    0.1566 N   0  0  0  0  0  0  0  0  0  0  0  0
    0.2023    0.5266   -0.5070 C   0  0  2  0  0  0  0  0  0  0  0  0
    1.3114    0.4535    0.5363 C   0  0  0  0  0  0  0  0  0  0  0  0
    1.5118    1.3406    1.3632 O   0  0  0  0  0  0  0  0  0  0  0  0
    0.6303    1.4184   -1.6782 C   0  0  0  0  0  0  0  0  0  0  0  0
   -0.3626    1.4055   -2.8148 C   0  0  0  0  0  0  0  0  0  0  0  0
   -0.3556    0.3575   -3.7353 C   0  0  0  0  0  0  0  0  0  0  0  0
   -1.2868    2.4421   -2.9451 C   0  0  0  0  0  0  0  0  0  0  0  0
   -1.2728    0.3460   -4.7860 C   0  0  0  0  0  0  0  0  0  0  0  0
   -2.2041    2.4306   -3.9959 C   0  0  0  0  0  0  0  0  0  0  0  0
   -2.1971    1.3825   -4.9163 C   0  0  0  0  0  0  0  0  0  0  0  0
   -3.0912    1.3718   -5.9425 O   0  0  0  0  0  0  0  0  0  0  0  0
   -1.7582    1.3241   -0.4207 H   0  0  0  0  0  0  0  0  0  0  0  0
   -0.0383   -0.4877   -0.8468 H   0  0  0  0  0  0  0  0  0  0  0  0
    1.6186    1.1130   -2.0475 H   0  0  0  0  0  0  0  0  0  0  0  0
    0.7563    2.4567   -1.3436 H   0  0  0  0  0  0  0  0  0  0  0  0
    0.3609   -0.4541   -3.6414 H   0  0  0  0  0  0  0  0  0  0  0  0
   -1.2997    3.2627   -2.2324 H   0  0  0  0  0  0  0  0  0  0  0  0
   -1.2622   -0.4731   -5.5002 H   0  0  0  0  0  0  0  0  0  0  0  0
   -2.9212    3.2410   -4.0921 H   0  0  0  0  0  0  0  0  0  0  0  0
   -3.6635    2.1544   -5.8981 H   0  0  0  0  0  0  0  0  0  0  0  0
    2.0150   -0.7407    0.4639 N   0  0  0  0  0  0  0  0  0  0  0  0
    3.1034   -1.0758    1.3538 C   0  0  2  0  0  0  0  0  0  0  0  0
    4.0734    0.0981    1.3732 C   0  0  0  0  0  0  0  0  0  0  0  0
    4.1413    0.9272    0.4682 O   0  0  0  0  0  0  0  0  0  0  0  0
    3.8037   -2.3525    0.9152 C   0  0  0  0  0  0  0  0  0  0  0  0
    1.7518   -1.4130   -0.2506 H   0  0  0  0  0  0  0  0  0  0  0  0
    2.6680   -1.2071    2.3504 H   0  0  0  0  0  0  0  0  0  0  0  0
    4.2462   -2.2401   -0.0813 H   0  0  0  0  0  0  0  0  0  0  0  0
    4.6096   -2.6205    1.6064 H   0  0  0  0  0  0  0  0  0  0  0  0
    3.0982   -3.1893    0.8731 H   0  0  0  0  0  0  0  0  0  0  0  0
    4.8842    0.0865    2.4996 N   0  0  0  0  0  0  0  0  0  0  0  0
    5.8953    1.0888    2.7427 C   0  0  0  0  0  0  0  0  0  0  0  0
    4.7455   -0.6283    3.2078 H   0  0  0  0  0  0  0  0  0  0  0  0
    6.8584    0.7444    2.3379 H   0  0  0  0  0  0  0  0  0  0  0  0
    5.6057    2.0287    2.2500 H   0  0  0  0  0  0  0  0  0  0  0  0
    5.9919    1.2569    3.8255 H   0  0  0  0  0  0  0  0  0  0  0  0
 23 25  2  0  0  0  0
 22 23  1  0  0  0  0
 24 26  1  0  0  0  0
 22 24  2  0  0  0  0
 25 27  1  0  0  0  0
 26 27  2  0  0  0  0
 21 22  1  0  0  0  0
 27 28  1  0  0  0  0
  1  3  1  0  0  0  0
  1  7  1  0  0  0  0
  1  2  2  0  0  0  0
 39 40  1  0  0  0  0
 40 48  1  0  0  0  0
 40 41  2  0  0  0  0
  8  9  1  0  0  0  0
  9 17  1  0  0  0  0
  9 10  2  0  0  0  0
 18 19  1  0  0  0  0
 19 38  1  0  0  0  0
 19 20  2  0  0  0  0
 39 42  1  0  0  0  0
  8 11  1  0  0  0  0
 48 49  1  0  0  0  0
 18 21  1  0  0  0  0
 38 39  1  0  0  0  0
  7  8  1  0  0  0  0
 17 18  1  0  0  0  0
 23 33  1  0  0  0  0
 24 34  1  0  0  0  0
 25 35  1  0  0  0  0
 26 36  1  0  0  0  0
  3  4  1  0  0  0  0
  3  5  1  0  0  0  0
  3  6  1  0  0  0  0
 42 45  1  0  0  0  0
 42 46  1  0  0  0  0
 42 47  1  0  0  0  0
 11 14  1  0  0  0  0
 11 15  1  0  0  0  0
 11 16  1  0  0  0  0
 49 51  1  0  0  0  0
 49 52  1  0  0  0  0
 49 53  1  0  0  0  0
 21 31  1  0  0  0  0
 21 32  1  0  0  0  0
 39 44  1  0  0  0  0
  8 13  1  0  0  0  0
 18 30  1  0  0  0  0
 48 50  1  0  0  0  0
  7 12  1  0  0  0  0
 38 43  1  0  0  0  0
 17 29  1  0  0  0  0
 28 37  1  0  0  0  0
M  END
$$$$

  -OEChem-05262214473D

 53 53  0     1  0  0  0  0  0999 V2000
   -1.9298    0.2574    3.9747 C   0  0  0  0  0  0  0  0  0  0  0  0
   -0.9825   -0.3573    3.4990 O   0  0  0  0  0  0  0  0  0  0  0  0
   -2.3617   -0.0250    5.3754 C   0  0  0  0  0  0  0  0  0  0  0  0
   -3.1214   -0.8213    5.4288 H   0  0  0  0  0  0  0  0  0  0  0  0
   -1.5305   -0.3726    6.0097 H   0  0  0  0  0  0  0  0  0  0  0  0
   -2.7997    0.8299    5.9150 H   0  0  0  0  0  0  0  0  0  0  0  0
   -2.6795    1.2298    3.3336 N   0  0  0  0  0  0  0  0  0  0  0  0
   -2.4327    1.6559    1.9812 C   0  0  2  0  0  0  0  0  0  0  0  0
   -1.0977    1.0705    1.5400 C   0  0  0  0  0  0  0  0  0  0  0  0
   -0.2256    0.7177    2.3313 O   0  0  0  0  0  0  0  0  0  0  0  0
   -2.4239    3.1726    1.8718 C   0  0  0  0  0  0  0  0  0  0  0  0
   -3.4446    1.6657    3.8454 H   0  0  0  0  0  0  0  0  0  0  0  0
   -3.2368    1.2374    1.3661 H   0  0  0  0  0  0  0  0  0  0  0  0
   -1.6248    3.6099    2.4815 H   0  0  0  0  0  0  0  0  0  0  0  0
   -2.2644    3.4949    0.8375 H   0  0  0  0  0  0  0  0  0  0  0  0
   -3.3741    3.5939    2.2175 H   0  0  0  0  0  0  0  0  0  0  0  0
   -0.9750    1.0274    0.1566 N   0  0  0  0  0  0  0  0  0  0  0  0
    0.2023    0.5266   -0.5070 C   0  0  2  0  0  0  0  0  0  0  0  0
    1.3114    0.4535    0.5363 C   0  0  0  0  0  0  0  0  0  0  0  0
    1.3542    1.1891    1.5201 O   0  0  0  0  0  0  0  0  0  0  0  0
    0.6303    1.4184   -1.6782 C   0  0  0  0  0  0  0  0  0  0  0  0
   -0.3626    1.4055   -2.8148 C   0  0  0  0  0  0  0  0  0  0  0  0
   -0.3556    0.3575   -3.7353 C   0  0  0  0  0  0  0  0  0  0  0  0
   -1.2868    2.4421   -2.9451 C   0  0  0  0  0  0  0  0  0  0  0  0
   -1.2728    0.3460   -4.7860 C   0  0  0  0  0  0  0  0  0  0  0  0
   -2.2041    2.4306   -3.9959 C   0  0  0  0  0  0  0  0  0  0  0  0
   -2.1971    1.3825   -4.9163 C   0  0  0  0  0  0  0  0  0  0  0  0
   -3.0912    1.3718   -5.9425 O   0  0  0  0  0  0  0  0  0  0  0  0
   -1.7582    1.3241   -0.4207 H   0  0  0  0  0  0  0  0  0  0  0  0
   -0.0383   -0.4877   -0.8468 H   0  0  0  0  0  0  0  0  0  0  0  0
    1.6186    1.1130   -2.0475 H   0  0  0  0  0  0  0  0  0  0  0  0
    0.7563    2.4567   -1.3436 H   0  0  0  0  0  0  0  0  0  0  0  0
    0.3609   -0.4541   -3.6414 H   0  0  0  0  0  0  0  0  0  0  0  0
   -1.2997    3.2627   -2.2324 H   0  0  0  0  0  0  0  0  0  0  0  0
   -1.2622   -0.4731   -5.5002 H   0  0  0  0  0  0  0  0  0  0  0  0
   -2.9212    3.2410   -4.0921 H   0  0  0  0  0  0  0  0  0  0  0  0
   -3.6635    2.1544   -5.8981 H   0  0  0  0  0  0  0  0  0  0  0  0
    2.2164   -0.5626    0.2623 N   0  0  0  0  0  0  0  0  0  0  0  0
    3.3511   -0.8634    1.1054 C   0  0  2  0  0  0  0  0  0  0  0  0
    4.0963    0.4376    1.3727 C   0  0  0  0  0  0  0  0  0  0  0  0
    4.0112    1.4219    0.6413 O   0  0  0  0  0  0  0  0  0  0  0  0
    4.2658   -1.8904    0.4563 C   0  0  0  0  0  0  0  0  0  0  0  0
    2.0740   -1.1230   -0.5728 H   0  0  0  0  0  0  0  0  0  0  0  0
    2.9506   -1.2556    2.0466 H   0  0  0  0  0  0  0  0  0  0  0  0
    4.6767   -1.5152   -0.4881 H   0  0  0  0  0  0  0  0  0  0  0  0
    5.1097   -2.1384    1.1085 H   0  0  0  0  0  0  0  0  0  0  0  0
    3.7206   -2.8149    0.2376 H   0  0  0  0  0  0  0  0  0  0  0  0
    4.9013    0.3557    2.5003 N   0  0  0  0  0  0  0  0  0  0  0  0
    5.7186    1.4557    2.9563 C   0  0  0  0  0  0  0  0  0  0  0  0
    4.8955   -0.4934    3.0578 H   0  0  0  0  0  0  0  0  0  0  0  0
    6.7258    1.3692    2.5227 H   0  0  0  0  0  0  0  0  0  0  0  0
    5.2637    2.4060    2.6400 H   0  0  0  0  0  0  0  0  0  0  0  0
    5.7885    1.4301    4.0538 H   0  0  0  0  0  0  0  0  0  0  0  0
 23 25  2  0  0  0  0
 22 23  1  0  0  0  0
 24 26  1  0  0  0  0
 22 24  2  0  0  0  0
 25 27  1  0  0  0  0
 26 27  2  0  0  0  0
 21 22  1  0  0  0  0
 27 28  1  0  0  0  0
  1  3  1  0  0  0  0
  1  7  1  0  0  0  0
  1  2  2  0  0  0  0
 39 40  1  0  0  0  0
 40 48  1  0  0  0  0
 40 41  2  0  0  0  0
  8  9  1  0  0  0  0
  9 17  1  0  0  0  0
  9 10  2  0  0  0  0
 18 19  1  0  0  0  0
 19 38  1  0  0  0  0
 19 20  2  0  0  0  0
 39 42  1  0  0  0  0
  8 11  1  0  0  0  0
 48 49  1  0  0  0  0
 18 21  1  0  0  0  0
 38 39  1  0  0  0  0
  7  8  1  0  0  0  0
 17 18  1  0  0  0  0
 23 33  1  0  0  0  0
 24 34  1  0  0  0  0
 25 35  1  0  0  0  0
 26 36  1  0  0  0  0
  3  4  1  0  0  0  0
  3  5  1  0  0  0  0
  3  6  1  0  0  0  0
 42 45  1  0  0  0  0
 42 46  1  0  0  0  0
 42 47  1  0  0  0  0
 11 14  1  0  0  0  0
 11 15  1  0  0  0  0
 11 16  1  0  0  0  0
 49 51  1  0  0  0  0
 49 52  1  0  0  0  0
 49 53  1  0  0  0  0
 21 31  1  0  0  0  0
 21 32  1  0  0  0  0
 39 44  1  0  0  0  0
  8 13  1  0  0  0  0
 18 30  1  0  0  0  0
 48 50  1  0  0  0  0
  7 12  1  0  0  0  0
 38 43  1  0  0  0  0
 17 29  1  0  0  0  0
 28 37  1  0  0  0  0
M  END
$$$$

  -OEChem-05262214473D

 53 53  0     1  0  0  0  0  0999 V2000
   -1.9298    0.2574    3.9747 C   0  0  0  0  0  0  0  0  0  0  0  0
   -0.9825   -0.3573    3.4990 O   0  0  0  0  0  0  0  0  0  0  0  0
   -2.3617   -0.0250    5.3754 C   0  0  0  0  0  0  0  0  0  0  0  0
   -3.1214   -0.8213    5.4288 H   0  0  0  0  0  0  0  0  0  0  0  0
   -1.5305   -0.3726    6.0097 H   0  0  0  0  0  0  0  0  0  0  0  0
   -2.7997    0.8299    5.9150 H   0  0  0  0  0  0  0  0  0  0  0  0
   -2.6795    1.2298    3.3336 N   0  0  0  0  0  0  0  0  0  0  0  0
   -2.4327    1.6559    1.9812 C   0  0  2  0  0  0  0  0  0  0  0  0
   -1.0977    1.0705    1.5400 C   0  0  0  0  0  0  0  0  0  0  0  0
   -0.2256    0.7177    2.3313 O   0  0  0  0  0  0  0  0  0  0  0  0
   -2.4239    3.1726    1.8718 C   0  0  0  0  0  0  0  0  0  0  0  0
   -3.4446    1.6657    3.8454 H   0  0  0  0  0  0  0  0  0  0  0  0
   -3.2368    1.2374    1.3661 H   0  0  0  0  0  0  0  0  0  0  0  0
   -1.6248    3.6099    2.4815 H   0  0  0  0  0  0  0  0  0  0  0  0
   -2.2644    3.4949    0.8375 H   0  0  0  0  0  0  0  0  0  0  0  0
   -3.3741    3.5939    2.2175 H   0  0  0  0  0  0  0  0  0  0  0  0
   -0.9750    1.0274    0.1566 N   0  0  0  0  0  0  0  0  0  0  0  0
    0.2023    0.5266   -0.5070 C   0  0  2  0  0  0  0  0  0  0  0  0
    1.3114    0.4535    0.5363 C   0  0  0  0  0  0  0  0  0  0  0  0
    1.2268    0.9853    1.6413 O   0  0  0  0  0  0  0  0  0  0  0  0
    0.6303    1.4184   -1.6782 C   0  0  0  0  0  0  0  0  0  0  0  0
   -0.3626    1.4055   -2.8148 C   0  0  0  0  0  0  0  0  0  0  0  0
   -0.3556    0.3575   -3.7353 C   0  0  0  0  0  0  0  0  0  0  0  0
   -1.2868    2.4421   -2.9451 C   0  0  0  0  0  0  0  0  0  0  0  0
   -1.2728    0.3460   -4.7860 C   0  0  0  0  0  0  0  0  0  0  0  0
   -2.2041    2.4306   -3.9959 C   0  0  0  0  0  0  0  0  0  0  0  0
   -2.1971    1.3825   -4.9163 C   0  0  0  0  0  0  0  0  0  0  0  0
   -3.0912    1.3718   -5.9425 O   0  0  0  0  0  0  0  0  0  0  0  0
   -1.7582    1.3241   -0.4207 H   0  0  0  0  0  0  0  0  0  0  0  0
   -0.0383   -0.4877   -0.8468 H   0  0  0  0  0  0  0  0  0  0  0  0
    1.6186    1.1130   -2.0475 H   0  0  0  0  0  0  0  0  0  0  0  0
    0.7563    2.4567   -1.3436 H   0  0  0  0  0  0  0  0  0  0  0  0
    0.3609   -0.4541   -3.6414 H   0  0  0  0  0  0  0  0  0  0  0  0
   -1.2997    3.2627   -2.2324 H   0  0  0  0  0  0  0  0  0  0  0  0
   -1.2622   -0.4731   -5.5002 H   0  0  0  0  0  0  0  0  0  0  0  0
   -2.9212    3.2410   -4.0921 H   0  0  0  0  0  0  0  0  0  0  0  0
   -3.6635    2.1544   -5.8981 H   0  0  0  0  0  0  0  0  0  0  0  0
    2.3818   -0.3170    0.1037 N   0  0  0  0  0  0  0  0  0  0  0  0
    3.5558   -0.5676    0.9085 C   0  0  2  0  0  0  0  0  0  0  0  0
    4.0583    0.7697    1.4364 C   0  0  0  0  0  0  0  0  0  0  0  0
    3.7957    1.8441    0.9000 O   0  0  0  0  0  0  0  0  0  0  0  0
    4.6360   -1.2757    0.1058 C   0  0  0  0  0  0  0  0  0  0  0  0
    2.3378   -0.7252   -0.8254 H   0  0  0  0  0  0  0  0  0  0  0  0
    3.2360   -1.1952    1.7475 H   0  0  0  0  0  0  0  0  0  0  0  0
    4.9691   -0.6621   -0.7392 H   0  0  0  0  0  0  0  0  0  0  0  0
    5.5136   -1.4904    0.7246 H   0  0  0  0  0  0  0  0  0  0  0  0
    4.2635   -2.2233   -0.2980 H   0  0  0  0  0  0  0  0  0  0  0  0
    4.8701    0.6186    2.5519 N   0  0  0  0  0  0  0  0  0  0  0  0
    5.4802    1.7387    3.2296 C   0  0  0  0  0  0  0  0  0  0  0  0
    5.0184   -0.3082    2.9402 H   0  0  0  0  0  0  0  0  0  0  0  0
    6.4847    1.9144    2.8173 H   0  0  0  0  0  0  0  0  0  0  0  0
    4.8617    2.6366    3.0835 H   0  0  0  0  0  0  0  0  0  0  0  0
    5.5586    1.5183    4.3044 H   0  0  0  0  0  0  0  0  0  0  0  0
 23 25  2  0  0  0  0
 22 23  1  0  0  0  0
 24 26  1  0  0  0  0
 22 24  2  0  0  0  0
 25 27  1  0  0  0  0
 26 27  2  0  0  0  0
 21 22  1  0  0  0  0
 27 28  1  0  0  0  0
  1  3  1  0  0  0  0
  1  7  1  0  0  0  0
  1  2  2  0  0  0  0
 39 40  1  0  0  0  0
 40 48  1  0  0  0  0
 40 41  2  0  0  0  0
  8  9  1  0  0  0  0
  9 17  1  0  0  0  0
  9 10  2  0  0  0  0
 18 19  1  0  0  0  0
 19 38  1  0  0  0  0
 19 20  2  0  0  0  0
 39 42  1  0  0  0  0
  8 11  1  0  0  0  0
 48 49  1  0  0  0  0
 18 21  1  0  0  0  0
 38 39  1  0  0  0  0
  7  8  1  0  0  0  0
 17 18  1  0  0  0  0
 23 33  1  0  0  0  0
 24 34  1  0  0  0  0
 25 35  1  0  0  0  0
 26 36  1  0  0  0  0
  3  4  1  0  0  0  0
  3  5  1  0  0  0  0
  3  6  1  0  0  0  0
 42 45  1  0  0  0  0
 42 46  1  0  0  0  0
 42 47  1  0  0  0  0
 11 14  1  0  0  0  0
 11 15  1  0  0  0  0
 11 16  1  0  0  0  0
 49 51  1  0  0  0  0
 49 52  1  0  0  0  0
 49 53  1  0  0  0  0
 21 31  1  0  0  0  0
 21 32  1  0  0  0  0
 39 44  1  0  0  0  0
  8 13  1  0  0  0  0
 18 30  1  0  0  0  0
 48 50  1  0  0  0  0
  7 12  1  0  0  0  0
 38 43  1  0  0  0  0
 17 29  1  0  0  0  0
 28 37  1  0  0  0  0
M  END
$$$$

  -OEChem-05262214473D

 53 53  0     1  0  0  0  0  0999 V2000
   -1.9298    0.2574    3.9747 C   0  0  0  0  0  0  0  0  0  0  0  0
   -0.9825   -0.3573    3.4990 O   0  0  0  0  0  0  0  0  0  0  0  0
   -2.3617   -0.0250    5.3754 C   0  0  0  0  0  0  0  0  0  0  0  0
   -3.1214   -0.8213    5.4288 H   0  0  0  0  0  0  0  0  0  0  0  0
   -1.5305   -0.3726    6.0097 H   0  0  0  0  0  0  0  0  0  0  0  0
   -2.7997    0.8299    5.9150 H   0  0  0  0  0  0  0  0  0  0  0  0
   -2.6795    1.2298    3.3336 N   0  0  0  0  0  0  0  0  0  0  0  0
   -2.4327    1.6559    1.9812 C   0  0  2  0  0  0  0  0  0  0  0  0
   -1.0977    1.0705    1.5400 C   0  0  0  0  0  0  0  0  0  0  0  0
   -0.2256    0.7177    2.3313 O   0  0  0  0  0  0  0  0  0  0  0  0
   -2.4239    3.1726    1.8718 C   0  0  0  0  0  0  0  0  0  0  0  0
   -3.4446    1.6657    3.8454 H   0  0  0  0  0  0  0  0  0  0  0  0
   -3.2368    1.2374    1.3661 H   0  0  0  0  0  0  0  0  0  0  0  0
   -1.6248    3.6099    2.4815 H   0  0  0  0  0  0  0  0  0  0  0  0
   -2.2644    3.4949    0.8375 H   0  0  0  0  0  0  0  0  0  0  0  0
   -3.3741    3.5939    2.2175 H   0  0  0  0  0  0  0  0  0  0  0  0
   -0.9750    1.0274    0.1566 N   0  0  0  0  0  0  0  0  0  0  0  0
    0.2023    0.5266   -0.5070 C   0  0  2  0  0  0  0  0  0  0  0  0
    1.1836    0.0979    0.5780 C   0  0  0  0  0  0  0  0  0  0  0  0
    0.9228    0.1576    1.7777 O   0  0  0  0  0  0  0  0  0  0  0  0
    0.8434    1.5778   -1.4203 C   0  0  0  0  0  0  0  0  0  0  0  0
   -0.0228    1.9273   -2.6058 C   0  0  0  0  0  0  0  0  0  0  0  0
   -0.0361    1.0994   -3.7283 C   0  0  0  0  0  0  0  0  0  0  0  0
   -0.8097    3.0787   -2.5790 C   0  0  0  0  0  0  0  0  0  0  0  0
   -0.8362    1.4228   -4.8240 C   0  0  0  0  0  0  0  0  0  0  0  0
   -1.6098    3.4022   -3.6748 C   0  0  0  0  0  0  0  0  0  0  0  0
   -1.6231    2.5742   -4.7973 C   0  0  0  0  0  0  0  0  0  0  0  0
   -2.4029    2.8903   -5.8672 O   0  0  0  0  0  0  0  0  0  0  0  0
   -1.7582    1.3241   -0.4207 H   0  0  0  0  0  0  0  0  0  0  0  0
   -0.1117   -0.3563   -1.0762 H   0  0  0  0  0  0  0  0  0  0  0  0
    1.8251    1.2302   -1.7698 H   0  0  0  0  0  0  0  0  0  0  0  0
    1.0473    2.4997   -0.8598 H   0  0  0  0  0  0  0  0  0  0  0  0
    0.5737    0.2004   -3.7577 H   0  0  0  0  0  0  0  0  0  0  0  0
   -0.8057    3.7297   -1.7085 H   0  0  0  0  0  0  0  0  0  0  0  0
   -0.8421    0.7739   -5.6958 H   0  0  0  0  0  0  0  0  0  0  0  0
   -2.2202    4.3005   -3.6480 H   0  0  0  0  0  0  0  0  0  0  0  0
   -2.8875    3.7141   -5.6985 H   0  0  0  0  0  0  0  0  0  0  0  0
    2.3621   -0.4043    0.0437 N   0  0  0  0  0  0  0  0  0  0  0  0
    3.4515   -0.9020    0.8527 C   0  0  2  0  0  0  0  0  0  0  0  0
    3.7667    0.1452    1.9126 C   0  0  0  0  0  0  0  0  0  0  0  0
    3.4733    1.3327    1.7905 O   0  0  0  0  0  0  0  0  0  0  0  0
    4.6775   -1.2034    0.0049 C   0  0  0  0  0  0  0  0  0  0  0  0
    2.4641   -0.4230   -0.9668 H   0  0  0  0  0  0  0  0  0  0  0  0
    3.0932   -1.8167    1.3374 H   0  0  0  0  0  0  0  0  0  0  0  0
    5.0508   -0.2987   -0.4887 H   0  0  0  0  0  0  0  0  0  0  0  0
    5.4922   -1.6072    0.6149 H   0  0  0  0  0  0  0  0  0  0  0  0
    4.4413   -1.9346   -0.7758 H   0  0  0  0  0  0  0  0  0  0  0  0
    4.4524   -0.3945    2.9918 N   0  0  0  0  0  0  0  0  0  0  0  0
    4.8760    0.3988    4.1220 C   0  0  0  0  0  0  0  0  0  0  0  0
    4.6368   -1.3930    3.0179 H   0  0  0  0  0  0  0  0  0  0  0  0
    5.9020    0.7581    3.9545 H   0  0  0  0  0  0  0  0  0  0  0  0
    4.2008    1.2592    4.2395 H   0  0  0  0  0  0  0  0  0  0  0  0
    4.8474   -0.2169    5.0332 H   0  0  0  0  0  0  0  0  0  0  0  0
 23 25  2  0  0  0  0
 22 23  1  0  0  0  0
 24 26  1  0  0  0  0
 22 24  2  0  0  0  0
 25 27  1  0  0  0  0
 26 27  2  0  0  0  0
 21 22  1  0  0  0  0
 27 28  1  0  0  0  0
  1  3  1  0  0  0  0
  1  7  1  0  0  0  0
  1  2  2  0  0  0  0
 39 40  1  0  0  0  0
 40 48  1  0  0  0  0
 40 41  2  0  0  0  0
  8  9  1  0  0  0  0
  9 17  1  0  0  0  0
  9 10  2  0  0  0  0
 18 19  1  0  0  0  0
 19 38  1  0  0  0  0
 19 20  2  0  0  0  0
 39 42  1  0  0  0  0
  8 11  1  0  0  0  0
 48 49  1  0  0  0  0
 18 21  1  0  0  0  0
 38 39  1  0  0  0  0
  7  8  1  0  0  0  0
 17 18  1  0  0  0  0
 23 33  1  0  0  0  0
 24 34  1  0  0  0  0
 25 35  1  0  0  0  0
 26 36  1  0  0  0  0
  3  4  1  0  0  0  0
  3  5  1  0  0  0  0
  3  6  1  0  0  0  0
 42 45  1  0  0  0  0
 42 46  1  0  0  0  0
 42 47  1  0  0  0  0
 11 14  1  0  0  0  0
 11 15  1  0  0  0  0
 11 16  1  0  0  0  0
 49 51  1  0  0  0  0
 49 52  1  0  0  0  0
 49 53  1  0  0  0  0
 21 31  1  0  0  0  0
 21 32  1  0  0  0  0
 39 44  1  0  0  0  0
  8 13  1  0  0  0  0
 18 30  1  0  0  0  0
 48 50  1  0  0  0  0
  7 12  1  0  0  0  0
 38 43  1  0  0  0  0
 17 29  1  0  0  0  0
 28 37  1  0  0  0  0
M  END
$$$$

  -OEChem-05262214473D

 53 53  0     1  0  0  0  0  0999 V2000
   -1.9298    0.2574    3.9747 C   0  0  0  0  0  0  0  0  0  0  0  0
   -0.9825   -0.3573    3.4990 O   0  0  0  0  0  0  0  0  0  0  0  0
   -2.3617   -0.0250    5.3754 C   0  0  0  0  0  0  0  0  0  0  0  0
   -3.1214   -0.8213    5.4288 H   0  0  0  0  0  0  0  0  0  0  0  0
   -1.5305   -0.3726    6.0097 H   0  0  0  0  0  0  0  0  0  0  0  0
   -2.7997    0.8299    5.9150 H   0  0  0  0  0  0  0  0  0  0  0  0
   -2.6795    1.2298    3.3336 N   0  0  0  0  0  0  0  0  0  0  0  0
   -2.4327    1.6559    1.9812 C   0  0  2  0  0  0  0  0  0  0  0  0
   -1.0977    1.0705    1.5400 C   0  0  0  0  0  0  0  0  0  0  0  0
   -0.2256    0.7177    2.3313 O   0  0  0  0  0  0  0  0  0  0  0  0
   -2.4239    3.1726    1.8718 C   0  0  0  0  0  0  0  0  0  0  0  0
   -3.4446    1.6657    3.8454 H   0  0  0  0  0  0  0  0  0  0  0  0
   -3.2368    1.2374    1.3661 H   0  0  0  0  0  0  0  0  0  0  0  0
   -1.6248    3.6099    2.4815 H   0  0  0  0  0  0  0  0  0  0  0  0
   -2.2644    3.4949    0.8375 H   0  0  0  0  0  0  0  0  0  0  0  0
   -3.3741    3.5939    2.2175 H   0  0  0  0  0  0  0  0  0  0  0  0
   -0.9750    1.0274    0.1566 N   0  0  0  0  0  0  0  0  0  0  0  0
    0.2023    0.5266   -0.5070 C   0  0  2  0  0  0  0  0  0  0  0  0
    1.1836    0.0979    0.5780 C   0  0  0  0  0  0  0  0  0  0  0  0
    0.8480   -0.0988    1.7440 O   0  0  0  0  0  0  0  0  0  0  0  0
    0.8434    1.5778   -1.4203 C   0  0  0  0  0  0  0  0  0  0  0  0
   -0.0228    1.9273   -2.6058 C   0  0  0  0  0  0  0  0  0  0  0  0
   -0.0361    1.0994   -3.7283 C   0  0  0  0  0  0  0  0  0  0  0  0
   -0.8097    3.0787   -2.5790 C   0  0  0  0  0  0  0  0  0  0  0  0
   -0.8362    1.4228   -4.8240 C   0  0  0  0  0  0  0  0  0  0  0  0
   -1.6098    3.4022   -3.6748 C   0  0  0  0  0  0  0  0  0  0  0  0
   -1.6231    2.5742   -4.7973 C   0  0  0  0  0  0  0  0  0  0  0  0
   -2.4029    2.8903   -5.8672 O   0  0  0  0  0  0  0  0  0  0  0  0
   -1.7582    1.3241   -0.4207 H   0  0  0  0  0  0  0  0  0  0  0  0
   -0.1117   -0.3563   -1.0762 H   0  0  0  0  0  0  0  0  0  0  0  0
    1.8251    1.2302   -1.7698 H   0  0  0  0  0  0  0  0  0  0  0  0
    1.0473    2.4997   -0.8598 H   0  0  0  0  0  0  0  0  0  0  0  0
    0.5737    0.2004   -3.7577 H   0  0  0  0  0  0  0  0  0  0  0  0
   -0.8057    3.7297   -1.7085 H   0  0  0  0  0  0  0  0  0  0  0  0
   -0.8421    0.7739   -5.6958 H   0  0  0  0  0  0  0  0  0  0  0  0
   -2.2202    4.3005   -3.6480 H   0  0  0  0  0  0  0  0  0  0  0  0
   -2.8875    3.7141   -5.6985 H   0  0  0  0  0  0  0  0  0  0  0  0
    2.4647   -0.0861    0.0766 N   0  0  0  0  0  0  0  0  0  0  0  0
    3.5808   -0.5145    0.8888 C   0  0  2  0  0  0  0  0  0  0  0  0
    3.6298    0.3721    2.1261 C   0  0  0  0  0  0  0  0  0  0  0  0
    3.1232    1.4913    2.1698 O   0  0  0  0  0  0  0  0  0  0  0  0
    4.8882   -0.4411    0.1154 C   0  0  0  0  0  0  0  0  0  0  0  0
    2.6260    0.0892   -0.9108 H   0  0  0  0  0  0  0  0  0  0  0  0
    3.3762   -1.5484    1.1875 H   0  0  0  0  0  0  0  0  0  0  0  0
    5.1101    0.5872   -0.1923 H   0  0  0  0  0  0  0  0  0  0  0  0
    5.7287   -0.7930    0.7228 H   0  0  0  0  0  0  0  0  0  0  0  0
    4.8406   -1.0560   -0.7898 H   0  0  0  0  0  0  0  0  0  0  0  0
    4.3429   -0.2157    3.1615 N   0  0  0  0  0  0  0  0  0  0  0  0
    4.5424    0.4320    4.4369 C   0  0  0  0  0  0  0  0  0  0  0  0
    4.7122   -1.1546    3.0439 H   0  0  0  0  0  0  0  0  0  0  0  0
    5.4891    0.9919    4.4203 H   0  0  0  0  0  0  0  0  0  0  0  0
    3.7102    1.1249    4.6302 H   0  0  0  0  0  0  0  0  0  0  0  0
    4.5794   -0.3274    5.2318 H   0  0  0  0  0  0  0  0  0  0  0  0
 23 25  2  0  0  0  0
 22 23  1  0  0  0  0
 24 26  1  0  0  0  0
 22 24  2  0  0  0  0
 25 27  1  0  0  0  0
 26 27  2  0  0  0  0
 21 22  1  0  0  0  0
 27 28  1  0  0  0  0
  1  3  1  0  0  0  0
  1  7  1  0  0  0  0
  1  2  2  0  0  0  0
 39 40  1  0  0  0  0
 40 48  1  0  0  0  0
 40 41  2  0  0  0  0
  8  9  1  0  0  0  0
  9 17  1  0  0  0  0
  9 10  2  0  0  0  0
 18 19  1  0  0  0  0
 19 38  1  0  0  0  0
 19 20  2  0  0  0  0
 39 42  1  0  0  0  0
  8 11  1  0  0  0  0
 48 49  1  0  0  0  0
 18 21  1  0  0  0  0
 38 39  1  0  0  0  0
  7  8  1  0  0  0  0
 17 18  1  0  0  0  0
 23 33  1  0  0  0  0
 24 34  1  0  0  0  0
 25 35  1  0  0  0  0
 26 36  1  0  0  0  0
  3  4  1  0  0  0  0
  3  5  1  0  0  0  0
  3  6  1  0  0  0  0
 42 45  1  0  0  0  0
 42 46  1  0  0  0  0
 42 47  1  0  0  0  0
 11 14  1  0  0  0  0
 11 15  1  0  0  0  0
 11 16  1  0  0  0  0
 49 51  1  0  0  0  0
 49 52  1  0  0  0  0
 49 53  1  0  0  0  0
 21 31  1  0  0  0  0
 21 32  1  0  0  0  0
 39 44  1  0  0  0  0
  8 13  1  0  0  0  0
 18 30  1  0  0  0  0
 48 50  1  0  0  0  0
  7 12  1  0  0  0  0
 38 43  1  0  0  0  0
 17 29  1  0  0  0  0
 28 37  1  0  0  0  0
M  END
$$$$

  -OEChem-05262214473D

 53 53  0     1  0  0  0  0  0999 V2000
   -1.9298    0.2574    3.9747 C   0  0  0  0  0  0  0  0  0  0  0  0
   -0.9825   -0.3573    3.4990 O   0  0  0  0  0  0  0  0  0  0  0  0
   -2.3617   -0.0250    5.3754 C   0  0  0  0  0  0  0  0  0  0  0  0
   -3.1214   -0.8213    5.4288 H   0  0  0  0  0  0  0  0  0  0  0  0
   -1.5305   -0.3726    6.0097 H   0  0  0  0  0  0  0  0  0  0  0  0
   -2.7997    0.8299    5.9150 H   0  0  0  0  0  0  0  0  0  0  0  0
   -2.6795    1.2298    3.3336 N   0  0  0  0  0  0  0  0  0  0  0  0
   -2.4327    1.6559    1.9812 C   0  0  2  0  0  0  0  0  0  0  0  0
   -1.0977    1.0705    1.5400 C   0  0  0  0  0  0  0  0  0  0  0  0
   -0.2256    0.7177    2.3313 O   0  0  0  0  0  0  0  0  0  0  0  0
   -2.4239    3.1726    1.8718 C   0  0  0  0  0  0  0  0  0  0  0  0
   -3.4446    1.6657    3.8454 H   0  0  0  0  0  0  0  0  0  0  0  0
   -3.2368    1.2374    1.3661 H   0  0  0  0  0  0  0  0  0  0  0  0
   -1.6248    3.6099    2.4815 H   0  0  0  0  0  0  0  0  0  0  0  0
   -2.2644    3.4949    0.8375 H   0  0  0  0  0  0  0  0  0  0  0  0
   -3.3741    3.5939    2.2175 H   0  0  0  0  0  0  0  0  0  0  0  0
   -0.9750    1.0274    0.1566 N   0  0  0  0  0  0  0  0  0  0  0  0
    0.2023    0.5266   -0.5070 C   0  0  2  0  0  0  0  0  0  0  0  0
    1.1836    0.0979    0.5780 C   0  0  0  0  0  0  0  0  0  0  0  0
    0.8255   -0.3546    1.6633 O   0  0  0  0  0  0  0  0  0  0  0  0
    0.8434    1.5778   -1.4203 C   0  0  0  0  0  0  0  0  0  0  0  0
   -0.0228    1.9273   -2.6058 C   0  0  0  0  0  0  0  0  0  0  0  0
   -0.0361    1.0994   -3.7283 C   0  0  0  0  0  0  0  0  0  0  0  0
   -0.8097    3.0787   -2.5790 C   0  0  0  0  0  0  0  0  0  0  0  0
   -0.8362    1.4228   -4.8240 C   0  0  0  0  0  0  0  0  0  0  0  0
   -1.6098    3.4022   -3.6748 C   0  0  0  0  0  0  0  0  0  0  0  0
   -1.6231    2.5742   -4.7973 C   0  0  0  0  0  0  0  0  0  0  0  0
   -2.4029    2.8903   -5.8672 O   0  0  0  0  0  0  0  0  0  0  0  0
   -1.7582    1.3241   -0.4207 H   0  0  0  0  0  0  0  0  0  0  0  0
   -0.1117   -0.3563   -1.0762 H   0  0  0  0  0  0  0  0  0  0  0  0
    1.8251    1.2302   -1.7698 H   0  0  0  0  0  0  0  0  0  0  0  0
    1.0473    2.4997   -0.8598 H   0  0  0  0  0  0  0  0  0  0  0  0
    0.5737    0.2004   -3.7577 H   0  0  0  0  0  0  0  0  0  0  0  0
   -0.8057    3.7297   -1.7085 H   0  0  0  0  0  0  0  0  0  0  0  0
   -0.8421    0.7739   -5.6958 H   0  0  0  0  0  0  0  0  0  0  0  0
   -2.2202    4.3005   -3.6480 H   0  0  0  0  0  0  0  0  0  0  0  0
   -2.8875    3.7141   -5.6985 H   0  0  0  0  0  0  0  0  0  0  0  0
    2.5029    0.2347    0.1689 N   0  0  0  0  0  0  0  0  0  0  0  0
    3.6318   -0.1224    0.9976 C   0  0  2  0  0  0  0  0  0  0  0  0
    3.4402    0.5306    2.3601 C   0  0  0  0  0  0  0  0  0  0  0  0
    2.7282    1.5168    2.5372 O   0  0  0  0  0  0  0  0  0  0  0  0
    4.9434    0.3155    0.3646 C   0  0  0  0  0  0  0  0  0  0  0  0
    2.6840    0.6044   -0.7597 H   0  0  0  0  0  0  0  0  0  0  0  0
    3.6110   -1.2121    1.1080 H   0  0  0  0  0  0  0  0  0  0  0  0
    4.9826    1.4045    0.2459 H   0  0  0  0  0  0  0  0  0  0  0  0
    5.7993    0.0190    0.9798 H   0  0  0  0  0  0  0  0  0  0  0  0
    5.0655   -0.1315   -0.6279 H   0  0  0  0  0  0  0  0  0  0  0  0
    4.1918   -0.0914    3.3472 N   0  0  0  0  0  0  0  0  0  0  0  0
    4.1911    0.3503    4.7223 C   0  0  0  0  0  0  0  0  0  0  0  0
    4.7392   -0.9147    3.1142 H   0  0  0  0  0  0  0  0  0  0  0  0
    5.0133    1.0640    4.8792 H   0  0  0  0  0  0  0  0  0  0  0  0
    3.2325    0.8397    4.9495 H   0  0  0  0  0  0  0  0  0  0  0  0
    4.3265   -0.5166    5.3858 H   0  0  0  0  0  0  0  0  0  0  0  0
 23 25  2  0  0  0  0
 22 23  1  0  0  0  0
 24 26  1  0  0  0  0
 22 24  2  0  0  0  0
 25 27  1  0  0  0  0
 26 27  2  0  0  0  0
 21 22  1  0  0  0  0
 27 28  1  0  0  0  0
  1  3  1  0  0  0  0
  1  7  1  0  0  0  0
  1  2  2  0  0  0  0
 39 40  1  0  0  0  0
 40 48  1  0  0  0  0
 40 41  2  0  0  0  0
  8  9  1  0  0  0  0
  9 17  1  0  0  0  0
  9 10  2  0  0  0  0
 18 19  1  0  0  0  0
 19 38  1  0  0  0  0
 19 20  2  0  0  0  0
 39 42  1  0  0  0  0
  8 11  1  0  0  0  0
 48 49  1  0  0  0  0
 18 21  1  0  0  0  0
 38 39  1  0  0  0  0
  7  8  1  0  0  0  0
 17 18  1  0  0  0  0
 23 33  1  0  0  0  0
 24 34  1  0  0  0  0
 25 35  1  0  0  0  0
 26 36  1  0  0  0  0
  3  4  1  0  0  0  0
  3  5  1  0  0  0  0
  3  6  1  0  0  0  0
 42 45  1  0  0  0  0
 42 46  1  0  0  0  0
 42 47  1  0  0  0  0
 11 14  1  0  0  0  0
 11 15  1  0  0  0  0
 11 16  1  0  0  0  0
 49 51  1  0  0  0  0
 49 52  1  0  0  0  0
 49 53  1  0  0  0  0
 21 31  1  0  0  0  0
 21 32  1  0  0  0  0
 39 44  1  0  0  0  0
  8 13  1  0  0  0  0
 18 30  1  0  0  0  0
 48 50  1  0  0  0  0
  7 12  1  0  0  0  0
 38 43  1  0  0  0  0
 17 29  1  0  0  0  0
 28 37  1  0  0  0  0
M  END
$$$$

  -OEChem-05262214473D

 53 53  0     1  0  0  0  0  0999 V2000
   -1.9298    0.2574    3.9747 C   0  0  0  0  0  0  0  0  0  0  0  0
   -0.9825   -0.3573    3.4990 O   0  0  0  0  0  0  0  0  0  0  0  0
   -2.3617   -0.0250    5.3754 C   0  0  0  0  0  0  0  0  0  0  0  0
   -3.1214   -0.8213    5.4288 H   0  0  0  0  0  0  0  0  0  0  0  0
   -1.5305   -0.3726    6.0097 H   0  0  0  0  0  0  0  0  0  0  0  0
   -2.7997    0.8299    5.9150 H   0  0  0  0  0  0  0  0  0  0  0  0
   -2.6795    1.2298    3.3336 N   0  0  0  0  0  0  0  0  0  0  0  0
   -2.4327    1.6559    1.9812 C   0  0  2  0  0  0  0  0  0  0  0  0
   -1.0977    1.0705    1.5400 C   0  0  0  0  0  0  0  0  0  0  0  0
   -0.2256    0.7177    2.3313 O   0  0  0  0  0  0  0  0  0  0  0  0
   -2.4239    3.1726    1.8718 C   0  0  0  0  0  0  0  0  0  0  0  0
   -3.4446    1.6657    3.8454 H   0  0  0  0  0  0  0  0  0  0  0  0
   -3.2368    1.2374    1.3661 H   0  0  0  0  0  0  0  0  0  0  0  0
   -1.6248    3.6099    2.4815 H   0  0  0  0  0  0  0  0  0  0  0  0
   -2.2644    3.4949    0.8375 H   0  0  0  0  0  0  0  0  0  0  0  0
   -3.3741    3.5939    2.2175 H   0  0  0  0  0  0  0  0  0  0  0  0
   -0.9750    1.0274    0.1566 N   0  0  0  0  0  0  0  0  0  0  0  0
    0.2023    0.5266   -0.5070 C   0  0  2  0  0  0  0  0  0  0  0  0
    1.1836    0.0979    0.5780 C   0  0  0  0  0  0  0  0  0  0  0  0
    0.8567   -0.5924    1.5411 O   0  0  0  0  0  0  0  0  0  0  0  0
    0.8434    1.5778   -1.4203 C   0  0  0  0  0  0  0  0  0  0  0  0
   -0.0228    1.9273   -2.6058 C   0  0  0  0  0  0  0  0  0  0  0  0
   -0.0361    1.0994   -3.7283 C   0  0  0  0  0  0  0  0  0  0  0  0
   -0.8097    3.0787   -2.5790 C   0  0  0  0  0  0  0  0  0  0  0  0
   -0.8362    1.4228   -4.8240 C   0  0  0  0  0  0  0  0  0  0  0  0
   -1.6098    3.4022   -3.6748 C   0  0  0  0  0  0  0  0  0  0  0  0
   -1.6231    2.5742   -4.7973 C   0  0  0  0  0  0  0  0  0  0  0  0
   -2.4029    2.8903   -5.8672 O   0  0  0  0  0  0  0  0  0  0  0  0
   -1.7582    1.3241   -0.4207 H   0  0  0  0  0  0  0  0  0  0  0  0
   -0.1117   -0.3563   -1.0762 H   0  0  0  0  0  0  0  0  0  0  0  0
    1.8251    1.2302   -1.7698 H   0  0  0  0  0  0  0  0  0  0  0  0
    1.0473    2.4997   -0.8598 H   0  0  0  0  0  0  0  0  0  0  0  0
    0.5737    0.2004   -3.7577 H   0  0  0  0  0  0  0  0  0  0  0  0
   -0.8057    3.7297   -1.7085 H   0  0  0  0  0  0  0  0  0  0  0  0
   -0.8421    0.7739   -5.6958 H   0  0  0  0  0  0  0  0  0  0  0  0
   -2.2202    4.3005   -3.6480 H   0  0  0  0  0  0  0  0  0  0  0  0
   -2.8875    3.7141   -5.6985 H   0  0  0  0  0  0  0  0  0  0  0  0
    2.4739    0.5362    0.3143 N   0  0  0  0  0  0  0  0  0  0  0  0
    3.6009    0.2476    1.1718 C   0  0  2  0  0  0  0  0  0  0  0  0
    3.2109    0.6097    2.5988 C   0  0  0  0  0  0  0  0  0  0  0  0
    2.3152    1.4075    2.8675 O   0  0  0  0  0  0  0  0  0  0  0  0
    4.8391    1.0151    0.7353 C   0  0  0  0  0  0  0  0  0  0  0  0
    2.6341    1.0877   -0.5236 H   0  0  0  0  0  0  0  0  0  0  0  0
    3.7816   -0.8307    1.1044 H   0  0  0  0  0  0  0  0  0  0  0  0
    4.6771    2.0975    0.7961 H   0  0  0  0  0  0  0  0  0  0  0  0
    5.6993    0.7736    1.3684 H   0  0  0  0  0  0  0  0  0  0  0  0
    5.1007    0.7759   -0.3011 H   0  0  0  0  0  0  0  0  0  0  0  0
    4.0095   -0.0302    3.5363 N   0  0  0  0  0  0  0  0  0  0  0  0
    3.8460    0.1590    4.9588 C   0  0  0  0  0  0  0  0  0  0  0  0
    4.7160   -0.6898    3.2241 H   0  0  0  0  0  0  0  0  0  0  0  0
    4.5070    0.9695    5.2998 H   0  0  0  0  0  0  0  0  0  0  0  0
    2.8005    0.4231    5.1757 H   0  0  0  0  0  0  0  0  0  0  0  0
    4.1059   -0.7716    5.4846 H   0  0  0  0  0  0  0  0  0  0  0  0
 23 25  2  0  0  0  0
 22 23  1  0  0  0  0
 24 26  1  0  0  0  0
 22 24  2  0  0  0  0
 25 27  1  0  0  0  0
 26 27  2  0  0  0  0
 21 22  1  0  0  0  0
 27 28  1  0  0  0  0
  1  3  1  0  0  0  0
  1  7  1  0  0  0  0
  1  2  2  0  0  0  0
 39 40  1  0  0  0  0
 40 48  1  0  0  0  0
 40 41  2  0  0  0  0
  8  9  1  0  0  0  0
  9 17  1  0  0  0  0
  9 10  2  0  0  0  0
 18 19  1  0  0  0  0
 19 38  1  0  0  0  0
 19 20  2  0  0  0  0
 39 42  1  0  0  0  0
  8 11  1  0  0  0  0
 48 49  1  0  0  0  0
 18 21  1  0  0  0  0
 38 39  1  0  0  0  0
  7  8  1  0  0  0  0
 17 18  1  0  0  0  0
 23 33  1  0  0  0  0
 24 34  1  0  0  0  0
 25 35  1  0  0  0  0
 26 36  1  0  0  0  0
  3  4  1  0  0  0  0
  3  5  1  0  0  0  0
  3  6  1  0  0  0  0
 42 45  1  0  0  0  0
 42 46  1  0  0  0  0
 42 47  1  0  0  0  0
 11 14  1  0  0  0  0
 11 15  1  0  0  0  0
 11 16  1  0  0  0  0
 49 51  1  0  0  0  0
 49 52  1  0  0  0  0
 49 53  1  0  0  0  0
 21 31  1  0  0  0  0
 21 32  1  0  0  0  0
 39 44  1  0  0  0  0
  8 13  1  0  0  0  0
 18 30  1  0  0  0  0
 48 50  1  0  0  0  0
  7 12  1  0  0  0  0
 38 43  1  0  0  0  0
 17 29  1  0  0  0  0
 28 37  1  0  0  0  0
M  END
$$$$

  -OEChem-05262214473D

 53 53  0     1  0  0  0  0  0999 V2000
   -1.9298    0.2574    3.9747 C   0  0  0  0  0  0  0  0  0  0  0  0
   -0.9825   -0.3573    3.4990 O   0  0  0  0  0  0  0  0  0  0  0  0
   -2.3617   -0.0250    5.3754 C   0  0  0  0  0  0  0  0  0  0  0  0
   -3.1214   -0.8213    5.4288 H   0  0  0  0  0  0  0  0  0  0  0  0
   -1.5305   -0.3726    6.0097 H   0  0  0  0  0  0  0  0  0  0  0  0
   -2.7997    0.8299    5.9150 H   0  0  0  0  0  0  0  0  0  0  0  0
   -2.6795    1.2298    3.3336 N   0  0  0  0  0  0  0  0  0  0  0  0
   -2.4327    1.6559    1.9812 C   0  0  2  0  0  0  0  0  0  0  0  0
   -1.0977    1.0705    1.5400 C   0  0  0  0  0  0  0  0  0  0  0  0
   -0.2256    0.7177    2.3313 O   0  0  0  0  0  0  0  0  0  0  0  0
   -2.4239    3.1726    1.8718 C   0  0  0  0  0  0  0  0  0  0  0  0
   -3.4446    1.6657    3.8454 H   0  0  0  0  0  0  0  0  0  0  0  0
   -3.2368    1.2374    1.3661 H   0  0  0  0  0  0  0  0  0  0  0  0
   -1.6248    3.6099    2.4815 H   0  0  0  0  0  0  0  0  0  0  0  0
   -2.2644    3.4949    0.8375 H   0  0  0  0  0  0  0  0  0  0  0  0
   -3.3741    3.5939    2.2175 H   0  0  0  0  0  0  0  0  0  0  0  0
   -0.9750    1.0274    0.1566 N   0  0  0  0  0  0  0  0  0  0  0  0
    0.2023    0.5266   -0.5070 C   0  0  2  0  0  0  0  0  0  0  0  0
    1.1836    0.0979    0.5780 C   0  0  0  0  0  0  0  0  0  0  0  0
    0.9396   -0.7960    1.3857 O   0  0  0  0  0  0  0  0  0  0  0  0
    0.8434    1.5778   -1.4203 C   0  0  0  0  0  0  0  0  0  0  0  0
   -0.0228    1.9273   -2.6058 C   0  0  0  0  0  0  0  0  0  0  0  0
   -0.0361    1.0994   -3.7283 C   0  0  0  0  0  0  0  0  0  0  0  0
   -0.8097    3.0787   -2.5790 C   0  0  0  0  0  0  0  0  0  0  0  0
   -0.8362    1.4228   -4.8240 C   0  0  0  0  0  0  0  0  0  0  0  0
   -1.6098    3.4022   -3.6748 C   0  0  0  0  0  0  0  0  0  0  0  0
   -1.6231    2.5742   -4.7973 C   0  0  0  0  0  0  0  0  0  0  0  0
   -2.4029    2.8903   -5.8672 O   0  0  0  0  0  0  0  0  0  0  0  0
   -1.7582    1.3241   -0.4207 H   0  0  0  0  0  0  0  0  0  0  0  0
   -0.1117   -0.3563   -1.0762 H   0  0  0  0  0  0  0  0  0  0  0  0
    1.8251    1.2302   -1.7698 H   0  0  0  0  0  0  0  0  0  0  0  0
    1.0473    2.4997   -0.8598 H   0  0  0  0  0  0  0  0  0  0  0  0
    0.5737    0.2004   -3.7577 H   0  0  0  0  0  0  0  0  0  0  0  0
   -0.8057    3.7297   -1.7085 H   0  0  0  0  0  0  0  0  0  0  0  0
   -0.8421    0.7739   -5.6958 H   0  0  0  0  0  0  0  0  0  0  0  0
   -2.2202    4.3005   -3.6480 H   0  0  0  0  0  0  0  0  0  0  0  0
   -2.8875    3.7141   -5.6985 H   0  0  0  0  0  0  0  0  0  0  0  0
    2.3798    0.7979    0.5028 N   0  0  0  0  0  0  0  0  0  0  0  0
    3.4902    0.5703    1.3994 C   0  0  2  0  0  0  0  0  0  0  0  0
    2.9575    0.6041    2.8258 C   0  0  0  0  0  0  0  0  0  0  0  0
    1.9124    1.1708    3.1383 O   0  0  0  0  0  0  0  0  0  0  0  0
    4.5826    1.6098    1.2024 C   0  0  0  0  0  0  0  0  0  0  0  0
    2.4797    1.5059   -0.2187 H   0  0  0  0  0  0  0  0  0  0  0  0
    3.8764   -0.4304    1.1768 H   0  0  0  0  0  0  0  0  0  0  0  0
    4.2142    2.6188    1.4208 H   0  0  0  0  0  0  0  0  0  0  0  0
    5.4353    1.4192    1.8623 H   0  0  0  0  0  0  0  0  0  0  0  0
    4.9437    1.6045    0.1683 H   0  0  0  0  0  0  0  0  0  0  0  0
    3.8083   -0.0361    3.7159 N   0  0  0  0  0  0  0  0  0  0  0  0
    3.5308   -0.1286    5.1303 C   0  0  0  0  0  0  0  0  0  0  0  0
    4.6442   -0.4951    3.3660 H   0  0  0  0  0  0  0  0  0  0  0  0
    4.0048    0.7149    5.6534 H   0  0  0  0  0  0  0  0  0  0  0  0
    2.4434   -0.0967    5.2933 H   0  0  0  0  0  0  0  0  0  0  0  0
    3.9325   -1.0750    5.5215 H   0  0  0  0  0  0  0  0  0  0  0  0
 23 25  2  0  0  0  0
 22 23  1  0  0  0  0
 24 26  1  0  0  0  0
 22 24  2  0  0  0  0
 25 27  1  0  0  0  0
 26 27  2  0  0  0  0
 21 22  1  0  0  0  0
 27 28  1  0  0  0  0
  1  3  1  0  0  0  0
  1  7  1  0  0  0  0
  1  2  2  0  0  0  0
 39 40  1  0  0  0  0
 40 48  1  0  0  0  0
 40 41  2  0  0  0  0
  8  9  1  0  0  0  0
  9 17  1  0  0  0  0
  9 10  2  0  0  0  0
 18 19  1  0  0  0  0
 19 38  1  0  0  0  0
 19 20  2  0  0  0  0
 39 42  1  0  0  0  0
  8 11  1  0  0  0  0
 48 49  1  0  0  0  0
 18 21  1  0  0  0  0
 38 39  1  0  0  0  0
  7  8  1  0  0  0  0
 17 18  1  0  0  0  0
 23 33  1  0  0  0  0
 24 34  1  0  0  0  0
 25 35  1  0  0  0  0
 26 36  1  0  0  0  0
  3  4  1  0  0  0  0
  3  5  1  0  0  0  0
  3  6  1  0  0  0  0
 42 45  1  0  0  0  0
 42 46  1  0  0  0  0
 42 47  1  0  0  0  0
 11 14  1  0  0  0  0
 11 15  1  0  0  0  0
 11 16  1  0  0  0  0
 49 51  1  0  0  0  0
 49 52  1  0  0  0  0
 49 53  1  0  0  0  0
 21 31  1  0  0  0  0
 21 32  1  0  0  0  0
 39 44  1  0  0  0  0
  8 13  1  0  0  0  0
 18 30  1  0  0  0  0
 48 50  1  0  0  0  0
  7 12  1  0  0  0  0
 38 43  1  0  0  0  0
 17 29  1  0  0  0  0
 28 37  1  0  0  0  0
M  END
$$$$

  -OEChem-05262214473D

 53 53  0     1  0  0  0  0  0999 V2000
   -1.9298    0.2574    3.9747 C   0  0  0  0  0  0  0  0  0  0  0  0
   -0.9825   -0.3573    3.4990 O   0  0  0  0  0  0  0  0  0  0  0  0
   -2.3617   -0.0250    5.3754 C   0  0  0  0  0  0  0  0  0  0  0  0
   -3.1214   -0.8213    5.4288 H   0  0  0  0  0  0  0  0  0  0  0  0
   -1.5305   -0.3726    6.0097 H   0  0  0  0  0  0  0  0  0  0  0  0
   -2.7997    0.8299    5.9150 H   0  0  0  0  0  0  0  0  0  0  0  0
   -2.6795    1.2298    3.3336 N   0  0  0  0  0  0  0  0  0  0  0  0
   -2.4327    1.6559    1.9812 C   0  0  2  0  0  0  0  0  0  0  0  0
   -1.0977    1.0705    1.5400 C   0  0  0  0  0  0  0  0  0  0  0  0
   -0.2256    0.7177    2.3313 O   0  0  0  0  0  0  0  0  0  0  0  0
   -2.4239    3.1726    1.8718 C   0  0  0  0  0  0  0  0  0  0  0  0
   -3.4446    1.6657    3.8454 H   0  0  0  0  0  0  0  0  0  0  0  0
   -3.2368    1.2374    1.3661 H   0  0  0  0  0  0  0  0  0  0  0  0
   -1.6248    3.6099    2.4815 H   0  0  0  0  0  0  0  0  0  0  0  0
   -2.2644    3.4949    0.8375 H   0  0  0  0  0  0  0  0  0  0  0  0
   -3.3741    3.5939    2.2175 H   0  0  0  0  0  0  0  0  0  0  0  0
   -0.9750    1.0274    0.1566 N   0  0  0  0  0  0  0  0  0  0  0  0
    0.2023    0.5266   -0.5070 C   0  0  2  0  0  0  0  0  0  0  0  0
    1.1836    0.0979    0.5780 C   0  0  0  0  0  0  0  0  0  0  0  0
    1.0684   -0.9515    1.2077 O   0  0  0  0  0  0  0  0  0  0  0  0
    0.8434    1.5778   -1.4203 C   0  0  0  0  0  0  0  0  0  0  0  0
   -0.0228    1.9273   -2.6058 C   0  0  0  0  0  0  0  0  0  0  0  0
   -0.0361    1.0994   -3.7283 C   0  0  0  0  0  0  0  0  0  0  0  0
   -0.8097    3.0787   -2.5790 C   0  0  0  0  0  0  0  0  0  0  0  0
   -0.8362    1.4228   -4.8240 C   0  0  0  0  0  0  0  0  0  0  0  0
   -1.6098    3.4022   -3.6748 C   0  0  0  0  0  0  0  0  0  0  0  0
   -1.6231    2.5742   -4.7973 C   0  0  0  0  0  0  0  0  0  0  0  0
   -2.4029    2.8903   -5.8672 O   0  0  0  0  0  0  0  0  0  0  0  0
   -1.7582    1.3241   -0.4207 H   0  0  0  0  0  0  0  0  0  0  0  0
   -0.1117   -0.3563   -1.0762 H   0  0  0  0  0  0  0  0  0  0  0  0
    1.8251    1.2302   -1.7698 H   0  0  0  0  0  0  0  0  0  0  0  0
    1.0473    2.4997   -0.8598 H   0  0  0  0  0  0  0  0  0  0  0  0
    0.5737    0.2004   -3.7577 H   0  0  0  0  0  0  0  0  0  0  0  0
   -0.8057    3.7297   -1.7085 H   0  0  0  0  0  0  0  0  0  0  0  0
   -0.8421    0.7739   -5.6958 H   0  0  0  0  0  0  0  0  0  0  0  0
   -2.2202    4.3005   -3.6480 H   0  0  0  0  0  0  0  0  0  0  0  0
   -2.8875    3.7141   -5.6985 H   0  0  0  0  0  0  0  0  0  0  0  0
    2.2269    1.0019    0.7217 N   0  0  0  0  0  0  0  0  0  0  0  0
    3.3073    0.8237    1.6650 C   0  0  2  0  0  0  0  0  0  0  0  0
    2.6972    0.5142    3.0257 C   0  0  0  0  0  0  0  0  0  0  0  0
    1.5472    0.8229    3.3311 O   0  0  0  0  0  0  0  0  0  0  0  0
    4.1912    2.0592    1.7339 C   0  0  0  0  0  0  0  0  0  0  0  0
    2.2314    1.8306    0.1343 H   0  0  0  0  0  0  0  0  0  0  0  0
    3.8890   -0.0382    1.3204 H   0  0  0  0  0  0  0  0  0  0  0  0
    3.6256    2.9331    2.0773 H   0  0  0  0  0  0  0  0  0  0  0  0
    5.0255    1.9120    2.4277 H   0  0  0  0  0  0  0  0  0  0  0  0
    4.6053    2.2977    0.7483 H   0  0  0  0  0  0  0  0  0  0  0  0
    3.6021   -0.1089    3.8738 N   0  0  0  0  0  0  0  0  0  0  0  0
    3.2668   -0.4932    5.2250 C   0  0  0  0  0  0  0  0  0  0  0  0
    4.5286   -0.3439    3.5303 H   0  0  0  0  0  0  0  0  0  0  0  0
    3.5408    0.3176    5.9161 H   0  0  0  0  0  0  0  0  0  0  0  0
    2.1857   -0.6840    5.2943 H   0  0  0  0  0  0  0  0  0  0  0  0
    3.8183   -1.4061    5.4940 H   0  0  0  0  0  0  0  0  0  0  0  0
 23 25  2  0  0  0  0
 22 23  1  0  0  0  0
 24 26  1  0  0  0  0
 22 24  2  0  0  0  0
 25 27  1  0  0  0  0
 26 27  2  0  0  0  0
 21 22  1  0  0  0  0
 27 28  1  0  0  0  0
  1  3  1  0  0  0  0
  1  7  1  0  0  0  0
  1  2  2  0  0  0  0
 39 40  1  0  0  0  0
 40 48  1  0  0  0  0
 40 41  2  0  0  0  0
  8  9  1  0  0  0  0
  9 17  1  0  0  0  0
  9 10  2  0  0  0  0
 18 19  1  0  0  0  0
 19 38  1  0  0  0  0
 19 20  2  0  0  0  0
 39 42  1  0  0  0  0
  8 11  1  0  0  0  0
 48 49  1  0  0  0  0
 18 21  1  0  0  0  0
 38 39  1  0  0  0  0
  7  8  1  0  0  0  0
 17 18  1  0  0  0  0
 23 33  1  0  0  0  0
 24 34  1  0  0  0  0
 25 35  1  0  0  0  0
 26 36  1  0  0  0  0
  3  4  1  0  0  0  0
  3  5  1  0  0  0  0
  3  6  1  0  0  0  0
 42 45  1  0  0  0  0
 42 46  1  0  0  0  0
 42 47  1  0  0  0  0
 11 14  1  0  0  0  0
 11 15  1  0  0  0  0
 11 16  1  0  0  0  0
 49 51  1  0  0  0  0
 49 52  1  0  0  0  0
 49 53  1  0  0  0  0
 21 31  1  0  0  0  0
 21 32  1  0  0  0  0
 39 44  1  0  0  0  0
  8 13  1  0  0  0  0
 18 30  1  0  0  0  0
 48 50  1  0  0  0  0
  7 12  1  0  0  0  0
 38 43  1  0  0  0  0
 17 29  1  0  0  0  0
 28 37  1  0  0  0  0
M  END
$$$$

  -OEChem-05262214473D

 53 53  0     1  0  0  0  0  0999 V2000
   -1.9298    0.2574    3.9747 C   0  0  0  0  0  0  0  0  0  0  0  0
   -0.9825   -0.3573    3.4990 O   0  0  0  0  0  0  0  0  0  0  0  0
   -2.3617   -0.0250    5.3754 C   0  0  0  0  0  0  0  0  0  0  0  0
   -3.1214   -0.8213    5.4288 H   0  0  0  0  0  0  0  0  0  0  0  0
   -1.5305   -0.3726    6.0097 H   0  0  0  0  0  0  0  0  0  0  0  0
   -2.7997    0.8299    5.9150 H   0  0  0  0  0  0  0  0  0  0  0  0
   -2.6795    1.2298    3.3336 N   0  0  0  0  0  0  0  0  0  0  0  0
   -2.4327    1.6559    1.9812 C   0  0  2  0  0  0  0  0  0  0  0  0
   -1.0977    1.0705    1.5400 C   0  0  0  0  0  0  0  0  0  0  0  0
   -0.2256    0.7177    2.3313 O   0  0  0  0  0  0  0  0  0  0  0  0
   -2.4239    3.1726    1.8718 C   0  0  0  0  0  0  0  0  0  0  0  0
   -3.4446    1.6657    3.8454 H   0  0  0  0  0  0  0  0  0  0  0  0
   -3.2368    1.2374    1.3661 H   0  0  0  0  0  0  0  0  0  0  0  0
   -1.6248    3.6099    2.4815 H   0  0  0  0  0  0  0  0  0  0  0  0
   -2.2644    3.4949    0.8375 H   0  0  0  0  0  0  0  0  0  0  0  0
   -3.3741    3.5939    2.2175 H   0  0  0  0  0  0  0  0  0  0  0  0
   -0.9750    1.0274    0.1566 N   0  0  0  0  0  0  0  0  0  0  0  0
    0.2023    0.5266   -0.5070 C   0  0  2  0  0  0  0  0  0  0  0  0
    1.1836    0.0979    0.5780 C   0  0  0  0  0  0  0  0  0  0  0  0
    1.2345   -1.0483    1.0193 O   0  0  0  0  0  0  0  0  0  0  0  0
    0.8434    1.5778   -1.4203 C   0  0  0  0  0  0  0  0  0  0  0  0
   -0.0228    1.9273   -2.6058 C   0  0  0  0  0  0  0  0  0  0  0  0
   -0.0361    1.0994   -3.7283 C   0  0  0  0  0  0  0  0  0  0  0  0
   -0.8097    3.0787   -2.5790 C   0  0  0  0  0  0  0  0  0  0  0  0
   -0.8362    1.4228   -4.8240 C   0  0  0  0  0  0  0  0  0  0  0  0
   -1.6098    3.4022   -3.6748 C   0  0  0  0  0  0  0  0  0  0  0  0
   -1.6231    2.5742   -4.7973 C   0  0  0  0  0  0  0  0  0  0  0  0
   -2.4029    2.8903   -5.8672 O   0  0  0  0  0  0  0  0  0  0  0  0
   -1.7582    1.3241   -0.4207 H   0  0  0  0  0  0  0  0  0  0  0  0
   -0.1117   -0.3563   -1.0762 H   0  0  0  0  0  0  0  0  0  0  0  0
    1.8251    1.2302   -1.7698 H   0  0  0  0  0  0  0  0  0  0  0  0
    1.0473    2.4997   -0.8598 H   0  0  0  0  0  0  0  0  0  0  0  0
    0.5737    0.2004   -3.7577 H   0  0  0  0  0  0  0  0  0  0  0  0
   -0.8057    3.7297   -1.7085 H   0  0  0  0  0  0  0  0  0  0  0  0
   -0.8421    0.7739   -5.6958 H   0  0  0  0  0  0  0  0  0  0  0  0
   -2.2202    4.3005   -3.6480 H   0  0  0  0  0  0  0  0  0  0  0  0
   -2.8875    3.7141   -5.6985 H   0  0  0  0  0  0  0  0  0  0  0  0
    2.0258    1.1344    0.9559 N   0  0  0  0  0  0  0  0  0  0  0  0
    3.0646    0.9904    1.9504 C   0  0  2  0  0  0  0  0  0  0  0  0
    2.4478    0.3461    3.1849 C   0  0  0  0  0  0  0  0  0  0  0  0
    1.2445    0.3874    3.4328 O   0  0  0  0  0  0  0  0  0  0  0  0
    3.6917    2.3326    2.2938 C   0  0  0  0  0  0  0  0  0  0  0  0
    1.9060    2.0397    0.5112 H   0  0  0  0  0  0  0  0  0  0  0  0
    3.8185    0.3190    1.5253 H   0  0  0  0  0  0  0  0  0  0  0  0
    2.9514    3.0189    2.7210 H   0  0  0  0  0  0  0  0  0  0  0  0
    4.4977    2.2183    3.0261 H   0  0  0  0  0  0  0  0  0  0  0  0
    4.1085    2.8083    1.3994 H   0  0  0  0  0  0  0  0  0  0  0  0
    3.4047   -0.2434    3.9991 N   0  0  0  0  0  0  0  0  0  0  0  0
    3.0720   -0.9097    5.2366 C   0  0  0  0  0  0  0  0  0  0  0  0
    4.3772   -0.2465    3.7057 H   0  0  0  0  0  0  0  0  0  0  0  0
    3.1467   -0.1954    6.0698 H   0  0  0  0  0  0  0  0  0  0  0  0
    2.0449   -1.2990    5.1786 H   0  0  0  0  0  0  0  0  0  0  0  0
    3.7709   -1.7424    5.4039 H   0  0  0  0  0  0  0  0  0  0  0  0
 23 25  2  0  0  0  0
 22 23  1  0  0  0  0
 24 26  1  0  0  0  0
 22 24  2  0  0  0  0
 25 27  1  0  0  0  0
 26 27  2  0  0  0  0
 21 22  1  0  0  0  0
 27 28  1  0  0  0  0
  1  3  1  0  0  0  0
  1  7  1  0  0  0  0
  1  2  2  0  0  0  0
 39 40  1  0  0  0  0
 40 48  1  0  0  0  0
 40 41  2  0  0  0  0
  8  9  1  0  0  0  0
  9 17  1  0  0  0  0
  9 10  2  0  0  0  0
 18 19  1  0  0  0  0
 19 38  1  0  0  0  0
 19 20  2  0  0  0  0
 39 42  1  0  0  0  0
  8 11  1  0  0  0  0
 48 49  1  0  0  0  0
 18 21  1  0  0  0  0
 38 39  1  0  0  0  0
  7  8  1  0  0  0  0
 17 18  1  0  0  0  0
 23 33  1  0  0  0  0
 24 34  1  0  0  0  0
 25 35  1  0  0  0  0
 26 36  1  0  0  0  0
  3  4  1  0  0  0  0
  3  5  1  0  0  0  0
  3  6  1  0  0  0  0
 42 45  1  0  0  0  0
 42 46  1  0  0  0  0
 42 47  1  0  0  0  0
 11 14  1  0  0  0  0
 11 15  1  0  0  0  0
 11 16  1  0  0  0  0
 49 51  1  0  0  0  0
 49 52  1  0  0  0  0
 49 53  1  0  0  0  0
 21 31  1  0  0  0  0
 21 32  1  0  0  0  0
 39 44  1  0  0  0  0
  8 13  1  0  0  0  0
 18 30  1  0  0  0  0
 48 50  1  0  0  0  0
  7 12  1  0  0  0  0
 38 43  1  0  0  0  0
 17 29  1  0  0  0  0
 28 37  1  0  0  0  0
M  END
$$$$

  -OEChem-05262214473D

 53 53  0     1  0  0  0  0  0999 V2000
   -1.9298    0.2574    3.9747 C   0  0  0  0  0  0  0  0  0  0  0  0
   -0.9825   -0.3573    3.4990 O   0  0  0  0  0  0  0  0  0  0  0  0
   -2.3617   -0.0250    5.3754 C   0  0  0  0  0  0  0  0  0  0  0  0
   -3.1214   -0.8213    5.4288 H   0  0  0  0  0  0  0  0  0  0  0  0
   -1.5305   -0.3726    6.0097 H   0  0  0  0  0  0  0  0  0  0  0  0
   -2.7997    0.8299    5.9150 H   0  0  0  0  0  0  0  0  0  0  0  0
   -2.6795    1.2298    3.3336 N   0  0  0  0  0  0  0  0  0  0  0  0
   -2.4327    1.6559    1.9812 C   0  0  2  0  0  0  0  0  0  0  0  0
   -1.0977    1.0705    1.5400 C   0  0  0  0  0  0  0  0  0  0  0  0
   -0.2256    0.7177    2.3313 O   0  0  0  0  0  0  0  0  0  0  0  0
   -2.4239    3.1726    1.8718 C   0  0  0  0  0  0  0  0  0  0  0  0
   -3.4446    1.6657    3.8454 H   0  0  0  0  0  0  0  0  0  0  0  0
   -3.2368    1.2374    1.3661 H   0  0  0  0  0  0  0  0  0  0  0  0
   -1.6248    3.6099    2.4815 H   0  0  0  0  0  0  0  0  0  0  0  0
   -2.2644    3.4949    0.8375 H   0  0  0  0  0  0  0  0  0  0  0  0
   -3.3741    3.5939    2.2175 H   0  0  0  0  0  0  0  0  0  0  0  0
   -0.9750    1.0274    0.1566 N   0  0  0  0  0  0  0  0  0  0  0  0
    0.2023    0.5266   -0.5070 C   0  0  2  0  0  0  0  0  0  0  0  0
    1.1836    0.0979    0.5780 C   0  0  0  0  0  0  0  0  0  0  0  0
    1.4264   -1.0798    0.8332 O   0  0  0  0  0  0  0  0  0  0  0  0
    0.8434    1.5778   -1.4203 C   0  0  0  0  0  0  0  0  0  0  0  0
   -0.0228    1.9273   -2.6058 C   0  0  0  0  0  0  0  0  0  0  0  0
   -0.0361    1.0994   -3.7283 C   0  0  0  0  0  0  0  0  0  0  0  0
   -0.8097    3.0787   -2.5790 C   0  0  0  0  0  0  0  0  0  0  0  0
   -0.8362    1.4228   -4.8240 C   0  0  0  0  0  0  0  0  0  0  0  0
   -1.6098    3.4022   -3.6748 C   0  0  0  0  0  0  0  0  0  0  0  0
   -1.6231    2.5742   -4.7973 C   0  0  0  0  0  0  0  0  0  0  0  0
   -2.4029    2.8903   -5.8672 O   0  0  0  0  0  0  0  0  0  0  0  0
   -1.7582    1.3241   -0.4207 H   0  0  0  0  0  0  0  0  0  0  0  0
   -0.1117   -0.3563   -1.0762 H   0  0  0  0  0  0  0  0  0  0  0  0
    1.8251    1.2302   -1.7698 H   0  0  0  0  0  0  0  0  0  0  0  0
    1.0473    2.4997   -0.8598 H   0  0  0  0  0  0  0  0  0  0  0  0
    0.5737    0.2004   -3.7577 H   0  0  0  0  0  0  0  0  0  0  0  0
   -0.8057    3.7297   -1.7085 H   0  0  0  0  0  0  0  0  0  0  0  0
   -0.8421    0.7739   -5.6958 H   0  0  0  0  0  0  0  0  0  0  0  0
   -2.2202    4.3005   -3.6480 H   0  0  0  0  0  0  0  0  0  0  0  0
   -2.8875    3.7141   -5.6985 H   0  0  0  0  0  0  0  0  0  0  0  0
    1.7900    1.1863    1.1897 N   0  0  0  0  0  0  0  0  0  0  0  0
    2.7786    1.0593    2.2362 C   0  0  2  0  0  0  0  0  0  0  0  0
    2.2263    0.1112    3.2924 C   0  0  0  0  0  0  0  0  0  0  0  0
    1.0250   -0.1060    3.4365 O   0  0  0  0  0  0  0  0  0  0  0  0
    3.1181    2.4115    2.8437 C   0  0  0  0  0  0  0  0  0  0  0  0
    1.5257    2.1190    0.8865 H   0  0  0  0  0  0  0  0  0  0  0  0
    3.6697    0.6168    1.7776 H   0  0  0  0  0  0  0  0  0  0  0  0
    2.2375    2.8703    3.3080 H   0  0  0  0  0  0  0  0  0  0  0  0
    3.8879    2.3172    3.6167 H   0  0  0  0  0  0  0  0  0  0  0  0
    3.4872    3.1015    2.0772 H   0  0  0  0  0  0  0  0  0  0  0  0
    3.2297   -0.4306    4.0834 N   0  0  0  0  0  0  0  0  0  0  0  0
    2.9598   -1.3498    5.1642 C   0  0  0  0  0  0  0  0  0  0  0  0
    4.2002   -0.2096    3.8804 H   0  0  0  0  0  0  0  0  0  0  0  0
    2.8494   -0.7891    6.1042 H   0  0  0  0  0  0  0  0  0  0  0  0
    2.0306   -1.8998    4.9542 H   0  0  0  0  0  0  0  0  0  0  0  0
    3.7937   -2.0610    5.2574 H   0  0  0  0  0  0  0  0  0  0  0  0
 23 25  2  0  0  0  0
 22 23  1  0  0  0  0
 24 26  1  0  0  0  0
 22 24  2  0  0  0  0
 25 27  1  0  0  0  0
 26 27  2  0  0  0  0
 21 22  1  0  0  0  0
 27 28  1  0  0  0  0
  1  3  1  0  0  0  0
  1  7  1  0  0  0  0
  1  2  2  0  0  0  0
 39 40  1  0  0  0  0
 40 48  1  0  0  0  0
 40 41  2  0  0  0  0
  8  9  1  0  0  0  0
  9 17  1  0  0  0  0
  9 10  2  0  0  0  0
 18 19  1  0  0  0  0
 19 38  1  0  0  0  0
 19 20  2  0  0  0  0
 39 42  1  0  0  0  0
  8 11  1  0  0  0  0
 48 49  1  0  0  0  0
 18 21  1  0  0  0  0
 38 39  1  0  0  0  0
  7  8  1  0  0  0  0
 17 18  1  0  0  0  0
 23 33  1  0  0  0  0
 24 34  1  0  0  0  0
 25 35  1  0  0  0  0
 26 36  1  0  0  0  0
  3  4  1  0  0  0  0
  3  5  1  0  0  0  0
  3  6  1  0  0  0  0
 42 45  1  0  0  0  0
 42 46  1  0  0  0  0
 42 47  1  0  0  0  0
 11 14  1  0  0  0  0
 11 15  1  0  0  0  0
 11 16  1  0  0  0  0
 49 51  1  0  0  0  0
 49 52  1  0  0  0  0
 49 53  1  0  0  0  0
 21 31  1  0  0  0  0
 21 32  1  0  0  0  0
 39 44  1  0  0  0  0
  8 13  1  0  0  0  0
 18 30  1  0  0  0  0
 48 50  1  0  0  0  0
  7 12  1  0  0  0  0
 38 43  1  0  0  0  0
 17 29  1  0  0  0  0
 28 37  1  0  0  0  0
M  END
$$$$

  -OEChem-05262214473D

 53 53  0     1  0  0  0  0  0999 V2000
   -1.9298    0.2574    3.9747 C   0  0  0  0  0  0  0  0  0  0  0  0
   -0.9825   -0.3573    3.4990 O   0  0  0  0  0  0  0  0  0  0  0  0
   -2.3617   -0.0250    5.3754 C   0  0  0  0  0  0  0  0  0  0  0  0
   -3.1214   -0.8213    5.4288 H   0  0  0  0  0  0  0  0  0  0  0  0
   -1.5305   -0.3726    6.0097 H   0  0  0  0  0  0  0  0  0  0  0  0
   -2.7997    0.8299    5.9150 H   0  0  0  0  0  0  0  0  0  0  0  0
   -2.6795    1.2298    3.3336 N   0  0  0  0  0  0  0  0  0  0  0  0
   -2.4327    1.6559    1.9812 C   0  0  2  0  0  0  0  0  0  0  0  0
   -1.0977    1.0705    1.5400 C   0  0  0  0  0  0  0  0  0  0  0  0
   -0.2256    0.7177    2.3313 O   0  0  0  0  0  0  0  0  0  0  0  0
   -2.4239    3.1726    1.8718 C   0  0  0  0  0  0  0  0  0  0  0  0
   -3.4446    1.6657    3.8454 H   0  0  0  0  0  0  0  0  0  0  0  0
   -3.2368    1.2374    1.3661 H   0  0  0  0  0  0  0  0  0  0  0  0
   -1.6248    3.6099    2.4815 H   0  0  0  0  0  0  0  0  0  0  0  0
   -2.2644    3.4949    0.8375 H   0  0  0  0  0  0  0  0  0  0  0  0
   -3.3741    3.5939    2.2175 H   0  0  0  0  0  0  0  0  0  0  0  0
   -0.9750    1.0274    0.1566 N   0  0  0  0  0  0  0  0  0  0  0  0
    0.2023    0.5266   -0.5070 C   0  0  2  0  0  0  0  0  0  0  0  0
    1.1836    0.0979    0.5780 C   0  0  0  0  0  0  0  0  0  0  0  0
    1.6312   -1.0439    0.6622 O   0  0  0  0  0  0  0  0  0  0  0  0
    0.8434    1.5778   -1.4203 C   0  0  0  0  0  0  0  0  0  0  0  0
   -0.0228    1.9273   -2.6058 C   0  0  0  0  0  0  0  0  0  0  0  0
   -0.0361    1.0994   -3.7283 C   0  0  0  0  0  0  0  0  0  0  0  0
   -0.8097    3.0787   -2.5790 C   0  0  0  0  0  0  0  0  0  0  0  0
   -0.8362    1.4228   -4.8240 C   0  0  0  0  0  0  0  0  0  0  0  0
   -1.6098    3.4022   -3.6748 C   0  0  0  0  0  0  0  0  0  0  0  0
   -1.6231    2.5742   -4.7973 C   0  0  0  0  0  0  0  0  0  0  0  0
   -2.4029    2.8903   -5.8672 O   0  0  0  0  0  0  0  0  0  0  0  0
   -1.7582    1.3241   -0.4207 H   0  0  0  0  0  0  0  0  0  0  0  0
   -0.1117   -0.3563   -1.0762 H   0  0  0  0  0  0  0  0  0  0  0  0
    1.8251    1.2302   -1.7698 H   0  0  0  0  0  0  0  0  0  0  0  0
    1.0473    2.4997   -0.8598 H   0  0  0  0  0  0  0  0  0  0  0  0
    0.5737    0.2004   -3.7577 H   0  0  0  0  0  0  0  0  0  0  0  0
   -0.8057    3.7297   -1.7085 H   0  0  0  0  0  0  0  0  0  0  0  0
   -0.8421    0.7739   -5.6958 H   0  0  0  0  0  0  0  0  0  0  0  0
   -2.2202    4.3005   -3.6480 H   0  0  0  0  0  0  0  0  0  0  0  0
   -2.8875    3.7141   -5.6985 H   0  0  0  0  0  0  0  0  0  0  0  0
    1.5358    1.1540    1.4069 N   0  0  0  0  0  0  0  0  0  0  0  0
    2.4690    1.0255    2.5030 C   0  0  2  0  0  0  0  0  0  0  0  0
    2.0477   -0.1743    3.3411 C   0  0  0  0  0  0  0  0  0  0  0  0
    0.9035   -0.6236    3.3418 O   0  0  0  0  0  0  0  0  0  0  0  0
    2.5095    2.2903    3.3463 C   0  0  0  0  0  0  0  0  0  0  0  0
    1.1165    2.0629    1.2345 H   0  0  0  0  0  0  0  0  0  0  0  0
    3.4527    0.8351    2.0601 H   0  0  0  0  0  0  0  0  0  0  0  0
    1.5326    2.4974    3.7983 H   0  0  0  0  0  0  0  0  0  0  0  0
    3.2377    2.2020    4.1593 H   0  0  0  0  0  0  0  0  0  0  0  0
    2.7837    3.1573    2.7356 H   0  0  0  0  0  0  0  0  0  0  0  0
    3.0891   -0.6577    4.1209 N   0  0  0  0  0  0  0  0  0  0  0  0
    2.9377   -1.7835    5.0128 C   0  0  0  0  0  0  0  0  0  0  0  0
    4.0097   -0.2356    4.0424 H   0  0  0  0  0  0  0  0  0  0  0  0
    2.6690   -1.4231    6.0168 H   0  0  0  0  0  0  0  0  0  0  0  0
    2.1437   -2.4452    4.6363 H   0  0  0  0  0  0  0  0  0  0  0  0
    3.8851   -2.3401    5.0645 H   0  0  0  0  0  0  0  0  0  0  0  0
 23 25  2  0  0  0  0
 22 23  1  0  0  0  0
 24 26  1  0  0  0  0
 22 24  2  0  0  0  0
 25 27  1  0  0  0  0
 26 27  2  0  0  0  0
 21 22  1  0  0  0  0
 27 28  1  0  0  0  0
  1  3  1  0  0  0  0
  1  7  1  0  0  0  0
  1  2  2  0  0  0  0
 39 40  1  0  0  0  0
 40 48  1  0  0  0  0
 40 41  2  0  0  0  0
  8  9  1  0  0  0  0
  9 17  1  0  0  0  0
  9 10  2  0  0  0  0
 18 19  1  0  0  0  0
 19 38  1  0  0  0  0
 19 20  2  0  0  0  0
 39 42  1  0  0  0  0
  8 11  1  0  0  0  0
 48 49  1  0  0  0  0
 18 21  1  0  0  0  0
 38 39  1  0  0  0  0
  7  8  1  0  0  0  0
 17 18  1  0  0  0  0
 23 33  1  0  0  0  0
 24 34  1  0  0  0  0
 25 35  1  0  0  0  0
 26 36  1  0  0  0  0
  3  4  1  0  0  0  0
  3  5  1  0  0  0  0
  3  6  1  0  0  0  0
 42 45  1  0  0  0  0
 42 46  1  0  0  0  0
 42 47  1  0  0  0  0
 11 14  1  0  0  0  0
 11 15  1  0  0  0  0
 11 16  1  0  0  0  0
 49 51  1  0  0  0  0
 49 52  1  0  0  0  0
 49 53  1  0  0  0  0
 21 31  1  0  0  0  0
 21 32  1  0  0  0  0
 39 44  1  0  0  0  0
  8 13  1  0  0  0  0
 18 30  1  0  0  0  0
 48 50  1  0  0  0  0
  7 12  1  0  0  0  0
 38 43  1  0  0  0  0
 17 29  1  0  0  0  0
 28 37  1  0  0  0  0
M  END
$$$$

  -OEChem-05262214473D

 53 53  0     1  0  0  0  0  0999 V2000
   -1.9298    0.2574    3.9747 C   0  0  0  0  0  0  0  0  0  0  0  0
   -0.9825   -0.3573    3.4990 O   0  0  0  0  0  0  0  0  0  0  0  0
   -2.3617   -0.0250    5.3754 C   0  0  0  0  0  0  0  0  0  0  0  0
   -3.1214   -0.8213    5.4288 H   0  0  0  0  0  0  0  0  0  0  0  0
   -1.5305   -0.3726    6.0097 H   0  0  0  0  0  0  0  0  0  0  0  0
   -2.7997    0.8299    5.9150 H   0  0  0  0  0  0  0  0  0  0  0  0
   -2.6795    1.2298    3.3336 N   0  0  0  0  0  0  0  0  0  0  0  0
   -2.4327    1.6559    1.9812 C   0  0  2  0  0  0  0  0  0  0  0  0
   -1.0977    1.0705    1.5400 C   0  0  0  0  0  0  0  0  0  0  0  0
   -0.2256    0.7177    2.3313 O   0  0  0  0  0  0  0  0  0  0  0  0
   -2.4239    3.1726    1.8718 C   0  0  0  0  0  0  0  0  0  0  0  0
   -3.4446    1.6657    3.8454 H   0  0  0  0  0  0  0  0  0  0  0  0
   -3.2368    1.2374    1.3661 H   0  0  0  0  0  0  0  0  0  0  0  0
   -1.6248    3.6099    2.4815 H   0  0  0  0  0  0  0  0  0  0  0  0
   -2.2644    3.4949    0.8375 H   0  0  0  0  0  0  0  0  0  0  0  0
   -3.3741    3.5939    2.2175 H   0  0  0  0  0  0  0  0  0  0  0  0
   -0.9750    1.0274    0.1566 N   0  0  0  0  0  0  0  0  0  0  0  0
    0.2023    0.5266   -0.5070 C   0  0  2  0  0  0  0  0  0  0  0  0
    1.1836    0.0979    0.5780 C   0  0  0  0  0  0  0  0  0  0  0  0
    1.8348   -0.9430    0.5179 O   0  0  0  0  0  0  0  0  0  0  0  0
    0.8434    1.5778   -1.4203 C   0  0  0  0  0  0  0  0  0  0  0  0
   -0.0228    1.9273   -2.6058 C   0  0  0  0  0  0  0  0  0  0  0  0
   -0.0361    1.0994   -3.7283 C   0  0  0  0  0  0  0  0  0  0  0  0
   -0.8097    3.0787   -2.5790 C   0  0  0  0  0  0  0  0  0  0  0  0
   -0.8362    1.4228   -4.8240 C   0  0  0  0  0  0  0  0  0  0  0  0
   -1.6098    3.4022   -3.6748 C   0  0  0  0  0  0  0  0  0  0  0  0
   -1.6231    2.5742   -4.7973 C   0  0  0  0  0  0  0  0  0  0  0  0
   -2.4029    2.8903   -5.8672 O   0  0  0  0  0  0  0  0  0  0  0  0
   -1.7582    1.3241   -0.4207 H   0  0  0  0  0  0  0  0  0  0  0  0
   -0.1117   -0.3563   -1.0762 H   0  0  0  0  0  0  0  0  0  0  0  0
    1.8251    1.2302   -1.7698 H   0  0  0  0  0  0  0  0  0  0  0  0
    1.0473    2.4997   -0.8598 H   0  0  0  0  0  0  0  0  0  0  0  0
    0.5737    0.2004   -3.7577 H   0  0  0  0  0  0  0  0  0  0  0  0
   -0.8057    3.7297   -1.7085 H   0  0  0  0  0  0  0  0  0  0  0  0
   -0.8421    0.7739   -5.6958 H   0  0  0  0  0  0  0  0  0  0  0  0
   -2.2202    4.3005   -3.6480 H   0  0  0  0  0  0  0  0  0  0  0  0
   -2.8875    3.7141   -5.6985 H   0  0  0  0  0  0  0  0  0  0  0  0
    1.2803    1.0398    1.5928 N   0  0  0  0  0  0  0  0  0  0  0  0
    2.1567    0.8914    2.7324 C   0  0  2  0  0  0  0  0  0  0  0  0
    1.9243   -0.4911    3.3275 C   0  0  0  0  0  0  0  0  0  0  0  0
    0.8884   -1.1301    3.1553 O   0  0  0  0  0  0  0  0  0  0  0  0
    1.9074    1.9775    3.7673 C   0  0  0  0  0  0  0  0  0  0  0  0
    0.7062    1.8755    1.5315 H   0  0  0  0  0  0  0  0  0  0  0  0
    3.1823    0.9589    2.3536 H   0  0  0  0  0  0  0  0  0  0  0  0
    0.8847    1.9258    4.1584 H   0  0  0  0  0  0  0  0  0  0  0  0
    2.5914    1.8806    4.6169 H   0  0  0  0  0  0  0  0  0  0  0  0
    2.0459    2.9720    3.3296 H   0  0  0  0  0  0  0  0  0  0  0  0
    2.9923   -0.9091    4.1090 N   0  0  0  0  0  0  0  0  0  0  0  0
    3.0073   -2.1813    4.7927 C   0  0  0  0  0  0  0  0  0  0  0  0
    3.8187   -0.3229    4.1807 H   0  0  0  0  0  0  0  0  0  0  0  0
    2.6180   -2.0542    5.8136 H   0  0  0  0  0  0  0  0  0  0  0  0
    2.3767   -2.8983    4.2465 H   0  0  0  0  0  0  0  0  0  0  0  0
    4.0388   -2.5608    4.8383 H   0  0  0  0  0  0  0  0  0  0  0  0
 23 25  2  0  0  0  0
 22 23  1  0  0  0  0
 24 26  1  0  0  0  0
 22 24  2  0  0  0  0
 25 27  1  0  0  0  0
 26 27  2  0  0  0  0
 21 22  1  0  0  0  0
 27 28  1  0  0  0  0
  1  3  1  0  0  0  0
  1  7  1  0  0  0  0
  1  2  2  0  0  0  0
 39 40  1  0  0  0  0
 40 48  1  0  0  0  0
 40 41  2  0  0  0  0
  8  9  1  0  0  0  0
  9 17  1  0  0  0  0
  9 10  2  0  0  0  0
 18 19  1  0  0  0  0
 19 38  1  0  0  0  0
 19 20  2  0  0  0  0
 39 42  1  0  0  0  0
  8 11  1  0  0  0  0
 48 49  1  0  0  0  0
 18 21  1  0  0  0  0
 38 39  1  0  0  0  0
  7  8  1  0  0  0  0
 17 18  1  0  0  0  0
 23 33  1  0  0  0  0
 24 34  1  0  0  0  0
 25 35  1  0  0  0  0
 26 36  1  0  0  0  0
  3  4  1  0  0  0  0
  3  5  1  0  0  0  0
  3  6  1  0  0  0  0
 42 45  1  0  0  0  0
 42 46  1  0  0  0  0
 42 47  1  0  0  0  0
 11 14  1  0  0  0  0
 11 15  1  0  0  0  0
 11 16  1  0  0  0  0
 49 51  1  0  0  0  0
 49 52  1  0  0  0  0
 49 53  1  0  0  0  0
 21 31  1  0  0  0  0
 21 32  1  0  0  0  0
 39 44  1  0  0  0  0
  8 13  1  0  0  0  0
 18 30  1  0  0  0  0
 48 50  1  0  0  0  0
  7 12  1  0  0  0  0
 38 43  1  0  0  0  0
 17 29  1  0  0  0  0
 28 37  1  0  0  0  0
M  END
$$$$

  -OEChem-05262214473D

 53 53  0     1  0  0  0  0  0999 V2000
   -1.9298    0.2574    3.9747 C   0  0  0  0  0  0  0  0  0  0  0  0
   -0.9825   -0.3573    3.4990 O   0  0  0  0  0  0  0  0  0  0  0  0
   -2.3617   -0.0250    5.3754 C   0  0  0  0  0  0  0  0  0  0  0  0
   -3.1214   -0.8213    5.4288 H   0  0  0  0  0  0  0  0  0  0  0  0
   -1.5305   -0.3726    6.0097 H   0  0  0  0  0  0  0  0  0  0  0  0
   -2.7997    0.8299    5.9150 H   0  0  0  0  0  0  0  0  0  0  0  0
   -2.6795    1.2298    3.3336 N   0  0  0  0  0  0  0  0  0  0  0  0
   -2.4327    1.6559    1.9812 C   0  0  2  0  0  0  0  0  0  0  0  0
   -1.0977    1.0705    1.5400 C   0  0  0  0  0  0  0  0  0  0  0  0
   -0.2256    0.7177    2.3313 O   0  0  0  0  0  0  0  0  0  0  0  0
   -2.4239    3.1726    1.8718 C   0  0  0  0  0  0  0  0  0  0  0  0
   -3.4446    1.6657    3.8454 H   0  0  0  0  0  0  0  0  0  0  0  0
   -3.2368    1.2374    1.3661 H   0  0  0  0  0  0  0  0  0  0  0  0
   -1.6248    3.6099    2.4815 H   0  0  0  0  0  0  0  0  0  0  0  0
   -2.2644    3.4949    0.8375 H   0  0  0  0  0  0  0  0  0  0  0  0
   -3.3741    3.5939    2.2175 H   0  0  0  0  0  0  0  0  0  0  0  0
   -0.9750    1.0274    0.1566 N   0  0  0  0  0  0  0  0  0  0  0  0
    0.2023    0.5266   -0.5070 C   0  0  2  0  0  0  0  0  0  0  0  0
    1.1836    0.0979    0.5780 C   0  0  0  0  0  0  0  0  0  0  0  0
    2.0233   -0.7840    0.4102 O   0  0  0  0  0  0  0  0  0  0  0  0
    0.8434    1.5778   -1.4203 C   0  0  0  0  0  0  0  0  0  0  0  0
   -0.0228    1.9273   -2.6058 C   0  0  0  0  0  0  0  0  0  0  0  0
   -0.0361    1.0994   -3.7283 C   0  0  0  0  0  0  0  0  0  0  0  0
   -0.8097    3.0787   -2.5790 C   0  0  0  0  0  0  0  0  0  0  0  0
   -0.8362    1.4228   -4.8240 C   0  0  0  0  0  0  0  0  0  0  0  0
   -1.6098    3.4022   -3.6748 C   0  0  0  0  0  0  0  0  0  0  0  0
   -1.6231    2.5742   -4.7973 C   0  0  0  0  0  0  0  0  0  0  0  0
   -2.4029    2.8903   -5.8672 O   0  0  0  0  0  0  0  0  0  0  0  0
   -1.7582    1.3241   -0.4207 H   0  0  0  0  0  0  0  0  0  0  0  0
   -0.1117   -0.3563   -1.0762 H   0  0  0  0  0  0  0  0  0  0  0  0
    1.8251    1.2302   -1.7698 H   0  0  0  0  0  0  0  0  0  0  0  0
    1.0473    2.4997   -0.8598 H   0  0  0  0  0  0  0  0  0  0  0  0
    0.5737    0.2004   -3.7577 H   0  0  0  0  0  0  0  0  0  0  0  0
   -0.8057    3.7297   -1.7085 H   0  0  0  0  0  0  0  0  0  0  0  0
   -0.8421    0.7739   -5.6958 H   0  0  0  0  0  0  0  0  0  0  0  0
   -2.2202    4.3005   -3.6480 H   0  0  0  0  0  0  0  0  0  0  0  0
   -2.8875    3.7141   -5.6985 H   0  0  0  0  0  0  0  0  0  0  0  0
    1.0410    0.8514    1.7348 N   0  0  0  0  0  0  0  0  0  0  0  0
    1.8630    0.6661    2.9090 C   0  0  2  0  0  0  0  0  0  0  0  0
    1.8644   -0.8176    3.2527 C   0  0  0  0  0  0  0  0  0  0  0  0
    0.9807   -1.5911    2.8896 O   0  0  0  0  0  0  0  0  0  0  0  0
    1.3527    1.4942    4.0780 C   0  0  0  0  0  0  0  0  0  0  0  0
    0.3228    1.5693    1.7573 H   0  0  0  0  0  0  0  0  0  0  0  0
    2.8770    0.9798    2.6380 H   0  0  0  0  0  0  0  0  0  0  0  0
    0.3380    1.1943    4.3639 H   0  0  0  0  0  0  0  0  0  0  0  0
    1.9930    1.3748    4.9582 H   0  0  0  0  0  0  0  0  0  0  0  0
    1.3242    2.5581    3.8189 H   0  0  0  0  0  0  0  0  0  0  0  0
    2.9460   -1.1679    4.0487 N   0  0  0  0  0  0  0  0  0  0  0  0
    3.1638   -2.5161    4.5188 C   0  0  0  0  0  0  0  0  0  0  0  0
    3.6402   -0.4653    4.2858 H   0  0  0  0  0  0  0  0  0  0  0  0
    2.6997   -2.6393    5.5085 H   0  0  0  0  0  0  0  0  0  0  0  0
    2.7135   -3.2281    3.8116 H   0  0  0  0  0  0  0  0  0  0  0  0
    4.2443   -2.7079    4.5943 H   0  0  0  0  0  0  0  0  0  0  0  0
 23 25  2  0  0  0  0
 22 23  1  0  0  0  0
 24 26  1  0  0  0  0
 22 24  2  0  0  0  0
 25 27  1  0  0  0  0
 26 27  2  0  0  0  0
 21 22  1  0  0  0  0
 27 28  1  0  0  0  0
  1  3  1  0  0  0  0
  1  7  1  0  0  0  0
  1  2  2  0  0  0  0
 39 40  1  0  0  0  0
 40 48  1  0  0  0  0
 40 41  2  0  0  0  0
  8  9  1  0  0  0  0
  9 17  1  0  0  0  0
  9 10  2  0  0  0  0
 18 19  1  0  0  0  0
 19 38  1  0  0  0  0
 19 20  2  0  0  0  0
 39 42  1  0  0  0  0
  8 11  1  0  0  0  0
 48 49  1  0  0  0  0
 18 21  1  0  0  0  0
 38 39  1  0  0  0  0
  7  8  1  0  0  0  0
 17 18  1  0  0  0  0
 23 33  1  0  0  0  0
 24 34  1  0  0  0  0
 25 35  1  0  0  0  0
 26 36  1  0  0  0  0
  3  4  1  0  0  0  0
  3  5  1  0  0  0  0
  3  6  1  0  0  0  0
 42 45  1  0  0  0  0
 42 46  1  0  0  0  0
 42 47  1  0  0  0  0
 11 14  1  0  0  0  0
 11 15  1  0  0  0  0
 11 16  1  0  0  0  0
 49 51  1  0  0  0  0
 49 52  1  0  0  0  0
 49 53  1  0  0  0  0
 21 31  1  0  0  0  0
 21 32  1  0  0  0  0
 39 44  1  0  0  0  0
  8 13  1  0  0  0  0
 18 30  1  0  0  0  0
 48 50  1  0  0  0  0
  7 12  1  0  0  0  0
 38 43  1  0  0  0  0
 17 29  1  0  0  0  0
 28 37  1  0  0  0  0
M  END
$$$$

  -OEChem-05262214473D

 53 53  0     1  0  0  0  0  0999 V2000
   -1.9298    0.2574    3.9747 C   0  0  0  0  0  0  0  0  0  0  0  0
   -0.9825   -0.3573    3.4990 O   0  0  0  0  0  0  0  0  0  0  0  0
   -2.3617   -0.0250    5.3754 C   0  0  0  0  0  0  0  0  0  0  0  0
   -3.1214   -0.8213    5.4288 H   0  0  0  0  0  0  0  0  0  0  0  0
   -1.5305   -0.3726    6.0097 H   0  0  0  0  0  0  0  0  0  0  0  0
   -2.7997    0.8299    5.9150 H   0  0  0  0  0  0  0  0  0  0  0  0
   -2.6795    1.2298    3.3336 N   0  0  0  0  0  0  0  0  0  0  0  0
   -2.4327    1.6559    1.9812 C   0  0  2  0  0  0  0  0  0  0  0  0
   -1.0977    1.0705    1.5400 C   0  0  0  0  0  0  0  0  0  0  0  0
   -0.2256    0.7177    2.3313 O   0  0  0  0  0  0  0  0  0  0  0  0
   -2.4239    3.1726    1.8718 C   0  0  0  0  0  0  0  0  0  0  0  0
   -3.4446    1.6657    3.8454 H   0  0  0  0  0  0  0  0  0  0  0  0
   -3.2368    1.2374    1.3661 H   0  0  0  0  0  0  0  0  0  0  0  0
   -1.6248    3.6099    2.4815 H   0  0  0  0  0  0  0  0  0  0  0  0
   -2.2644    3.4949    0.8375 H   0  0  0  0  0  0  0  0  0  0  0  0
   -3.3741    3.5939    2.2175 H   0  0  0  0  0  0  0  0  0  0  0  0
   -0.9750    1.0274    0.1566 N   0  0  0  0  0  0  0  0  0  0  0  0
    0.2023    0.5266   -0.5070 C   0  0  2  0  0  0  0  0  0  0  0  0
    1.1836    0.0979    0.5780 C   0  0  0  0  0  0  0  0  0  0  0  0
    2.1841   -0.5777    0.3463 O   0  0  0  0  0  0  0  0  0  0  0  0
    0.8434    1.5778   -1.4203 C   0  0  0  0  0  0  0  0  0  0  0  0
   -0.0228    1.9273   -2.6058 C   0  0  0  0  0  0  0  0  0  0  0  0
   -0.0361    1.0994   -3.7283 C   0  0  0  0  0  0  0  0  0  0  0  0
   -0.8097    3.0787   -2.5790 C   0  0  0  0  0  0  0  0  0  0  0  0
   -0.8362    1.4228   -4.8240 C   0  0  0  0  0  0  0  0  0  0  0  0
   -1.6098    3.4022   -3.6748 C   0  0  0  0  0  0  0  0  0  0  0  0
   -1.6231    2.5742   -4.7973 C   0  0  0  0  0  0  0  0  0  0  0  0
   -2.4029    2.8903   -5.8672 O   0  0  0  0  0  0  0  0  0  0  0  0
   -1.7582    1.3241   -0.4207 H   0  0  0  0  0  0  0  0  0  0  0  0
   -0.1117   -0.3563   -1.0762 H   0  0  0  0  0  0  0  0  0  0  0  0
    1.8251    1.2302   -1.7698 H   0  0  0  0  0  0  0  0  0  0  0  0
    1.0473    2.4997   -0.8598 H   0  0  0  0  0  0  0  0  0  0  0  0
    0.5737    0.2004   -3.7577 H   0  0  0  0  0  0  0  0  0  0  0  0
   -0.8057    3.7297   -1.7085 H   0  0  0  0  0  0  0  0  0  0  0  0
   -0.8421    0.7739   -5.6958 H   0  0  0  0  0  0  0  0  0  0  0  0
   -2.2202    4.3005   -3.6480 H   0  0  0  0  0  0  0  0  0  0  0  0
   -2.8875    3.7141   -5.6985 H   0  0  0  0  0  0  0  0  0  0  0  0
    0.8343    0.6018    1.8232 N   0  0  0  0  0  0  0  0  0  0  0  0
    1.6080    0.3649    3.0207 C   0  0  2  0  0  0  0  0  0  0  0  0
    1.8722   -1.1316    3.1216 C   0  0  0  0  0  0  0  0  0  0  0  0
    1.1741   -1.9752    2.5629 O   0  0  0  0  0  0  0  0  0  0  0  0
    0.8834    0.8735    4.2572 C   0  0  0  0  0  0  0  0  0  0  0  0
   -0.0076    1.1654    1.8965 H   0  0  0  0  0  0  0  0  0  0  0  0
    2.5575    0.8963    2.8940 H   0  0  0  0  0  0  0  0  0  0  0  0
   -0.0703    0.3527    4.4006 H   0  0  0  0  0  0  0  0  0  0  0  0
    1.4833    0.7192    5.1602 H   0  0  0  0  0  0  0  0  0  0  0  0
    0.6678    1.9439    4.1699 H   0  0  0  0  0  0  0  0  0  0  0  0
    2.9534   -1.4163    3.9438 N   0  0  0  0  0  0  0  0  0  0  0  0
    3.3966   -2.7650    4.2099 C   0  0  0  0  0  0  0  0  0  0  0  0
    3.4864   -0.6534    4.3507 H   0  0  0  0  0  0  0  0  0  0  0  0
    2.9086   -3.1386    5.1222 H   0  0  0  0  0  0  0  0  0  0  0  0
    3.1313   -3.4122    3.3610 H   0  0  0  0  0  0  0  0  0  0  0  0
    4.4878   -2.7715    4.3490 H   0  0  0  0  0  0  0  0  0  0  0  0
 23 25  2  0  0  0  0
 22 23  1  0  0  0  0
 24 26  1  0  0  0  0
 22 24  2  0  0  0  0
 25 27  1  0  0  0  0
 26 27  2  0  0  0  0
 21 22  1  0  0  0  0
 27 28  1  0  0  0  0
  1  3  1  0  0  0  0
  1  7  1  0  0  0  0
  1  2  2  0  0  0  0
 39 40  1  0  0  0  0
 40 48  1  0  0  0  0
 40 41  2  0  0  0  0
  8  9  1  0  0  0  0
  9 17  1  0  0  0  0
  9 10  2  0  0  0  0
 18 19  1  0  0  0  0
 19 38  1  0  0  0  0
 19 20  2  0  0  0  0
 39 42  1  0  0  0  0
  8 11  1  0  0  0  0
 48 49  1  0  0  0  0
 18 21  1  0  0  0  0
 38 39  1  0  0  0  0
  7  8  1  0  0  0  0
 17 18  1  0  0  0  0
 23 33  1  0  0  0  0
 24 34  1  0  0  0  0
 25 35  1  0  0  0  0
 26 36  1  0  0  0  0
  3  4  1  0  0  0  0
  3  5  1  0  0  0  0
  3  6  1  0  0  0  0
 42 45  1  0  0  0  0
 42 46  1  0  0  0  0
 42 47  1  0  0  0  0
 11 14  1  0  0  0  0
 11 15  1  0  0  0  0
 11 16  1  0  0  0  0
 49 51  1  0  0  0  0
 49 52  1  0  0  0  0
 49 53  1  0  0  0  0
 21 31  1  0  0  0  0
 21 32  1  0  0  0  0
 39 44  1  0  0  0  0
  8 13  1  0  0  0  0
 18 30  1  0  0  0  0
 48 50  1  0  0  0  0
  7 12  1  0  0  0  0
 38 43  1  0  0  0  0
 17 29  1  0  0  0  0
 28 37  1  0  0  0  0
M  END
$$$$

  -OEChem-05262214473D

 53 53  0     1  0  0  0  0  0999 V2000
   -1.9298    0.2574    3.9747 C   0  0  0  0  0  0  0  0  0  0  0  0
   -0.9825   -0.3573    3.4990 O   0  0  0  0  0  0  0  0  0  0  0  0
   -2.3617   -0.0250    5.3754 C   0  0  0  0  0  0  0  0  0  0  0  0
   -3.1214   -0.8213    5.4288 H   0  0  0  0  0  0  0  0  0  0  0  0
   -1.5305   -0.3726    6.0097 H   0  0  0  0  0  0  0  0  0  0  0  0
   -2.7997    0.8299    5.9150 H   0  0  0  0  0  0  0  0  0  0  0  0
   -2.6795    1.2298    3.3336 N   0  0  0  0  0  0  0  0  0  0  0  0
   -2.4327    1.6559    1.9812 C   0  0  2  0  0  0  0  0  0  0  0  0
   -1.0977    1.0705    1.5400 C   0  0  0  0  0  0  0  0  0  0  0  0
   -0.2256    0.7177    2.3313 O   0  0  0  0  0  0  0  0  0  0  0  0
   -2.4239    3.1726    1.8718 C   0  0  0  0  0  0  0  0  0  0  0  0
   -3.4446    1.6657    3.8454 H   0  0  0  0  0  0  0  0  0  0  0  0
   -3.2368    1.2374    1.3661 H   0  0  0  0  0  0  0  0  0  0  0  0
   -1.6248    3.6099    2.4815 H   0  0  0  0  0  0  0  0  0  0  0  0
   -2.2644    3.4949    0.8375 H   0  0  0  0  0  0  0  0  0  0  0  0
   -3.3741    3.5939    2.2175 H   0  0  0  0  0  0  0  0  0  0  0  0
   -0.9750    1.0274    0.1566 N   0  0  0  0  0  0  0  0  0  0  0  0
    0.2023    0.5266   -0.5070 C   0  0  2  0  0  0  0  0  0  0  0  0
    1.1836    0.0979    0.5780 C   0  0  0  0  0  0  0  0  0  0  0  0
    2.3060   -0.3382    0.3307 O   0  0  0  0  0  0  0  0  0  0  0  0
    0.8434    1.5778   -1.4203 C   0  0  0  0  0  0  0  0  0  0  0  0
   -0.0228    1.9273   -2.6058 C   0  0  0  0  0  0  0  0  0  0  0  0
   -0.0361    1.0994   -3.7283 C   0  0  0  0  0  0  0  0  0  0  0  0
   -0.8097    3.0787   -2.5790 C   0  0  0  0  0  0  0  0  0  0  0  0
   -0.8362    1.4228   -4.8240 C   0  0  0  0  0  0  0  0  0  0  0  0
   -1.6098    3.4022   -3.6748 C   0  0  0  0  0  0  0  0  0  0  0  0
   -1.6231    2.5742   -4.7973 C   0  0  0  0  0  0  0  0  0  0  0  0
   -2.4029    2.8903   -5.8672 O   0  0  0  0  0  0  0  0  0  0  0  0
   -1.7582    1.3241   -0.4207 H   0  0  0  0  0  0  0  0  0  0  0  0
   -0.1117   -0.3563   -1.0762 H   0  0  0  0  0  0  0  0  0  0  0  0
    1.8251    1.2302   -1.7698 H   0  0  0  0  0  0  0  0  0  0  0  0
    1.0473    2.4997   -0.8598 H   0  0  0  0  0  0  0  0  0  0  0  0
    0.5737    0.2004   -3.7577 H   0  0  0  0  0  0  0  0  0  0  0  0
   -0.8057    3.7297   -1.7085 H   0  0  0  0  0  0  0  0  0  0  0  0
   -0.8421    0.7739   -5.6958 H   0  0  0  0  0  0  0  0  0  0  0  0
   -2.2202    4.3005   -3.6480 H   0  0  0  0  0  0  0  0  0  0  0  0
   -2.8875    3.7141   -5.6985 H   0  0  0  0  0  0  0  0  0  0  0  0
    0.6741    0.3078    1.8519 N   0  0  0  0  0  0  0  0  0  0  0  0
    1.4090    0.0085    3.0598 C   0  0  2  0  0  0  0  0  0  0  0  0
    1.9471   -1.4115    2.9432 C   0  0  0  0  0  0  0  0  0  0  0  0
    1.4554   -2.2561    2.1975 O   0  0  0  0  0  0  0  0  0  0  0  0
    0.5314    0.1577    4.2928 C   0  0  0  0  0  0  0  0  0  0  0  0
   -0.2625    0.6911    1.9396 H   0  0  0  0  0  0  0  0  0  0  0  0
    2.2457    0.7142    3.1041 H   0  0  0  0  0  0  0  0  0  0  0  0
   -0.3124   -0.5415    4.2662 H   0  0  0  0  0  0  0  0  0  0  0  0
    1.0970   -0.0417    5.2089 H   0  0  0  0  0  0  0  0  0  0  0  0
    0.1212    1.1712    4.3589 H   0  0  0  0  0  0  0  0  0  0  0  0
    3.0139   -1.6375    3.8017 N   0  0  0  0  0  0  0  0  0  0  0  0
    3.6898   -2.9110    3.8870 C   0  0  0  0  0  0  0  0  0  0  0  0
    3.3677   -0.8741    4.3707 H   0  0  0  0  0  0  0  0  0  0  0  0
    3.2305   -3.5180    4.6811 H   0  0  0  0  0  0  0  0  0  0  0  0
    3.6015   -3.4380    2.9255 H   0  0  0  0  0  0  0  0  0  0  0  0
    4.7524   -2.7472    4.1191 H   0  0  0  0  0  0  0  0  0  0  0  0
 23 25  2  0  0  0  0
 22 23  1  0  0  0  0
 24 26  1  0  0  0  0
 22 24  2  0  0  0  0
 25 27  1  0  0  0  0
 26 27  2  0  0  0  0
 21 22  1  0  0  0  0
 27 28  1  0  0  0  0
  1  3  1  0  0  0  0
  1  7  1  0  0  0  0
  1  2  2  0  0  0  0
 39 40  1  0  0  0  0
 40 48  1  0  0  0  0
 40 41  2  0  0  0  0
  8  9  1  0  0  0  0
  9 17  1  0  0  0  0
  9 10  2  0  0  0  0
 18 19  1  0  0  0  0
 19 38  1  0  0  0  0
 19 20  2  0  0  0  0
 39 42  1  0  0  0  0
  8 11  1  0  0  0  0
 48 49  1  0  0  0  0
 18 21  1  0  0  0  0
 38 39  1  0  0  0  0
  7  8  1  0  0  0  0
 17 18  1  0  0  0  0
 23 33  1  0  0  0  0
 24 34  1  0  0  0  0
 25 35  1  0  0  0  0
 26 36  1  0  0  0  0
  3  4  1  0  0  0  0
  3  5  1  0  0  0  0
  3  6  1  0  0  0  0
 42 45  1  0  0  0  0
 42 46  1  0  0  0  0
 42 47  1  0  0  0  0
 11 14  1  0  0  0  0
 11 15  1  0  0  0  0
 11 16  1  0  0  0  0
 49 51  1  0  0  0  0
 49 52  1  0  0  0  0
 49 53  1  0  0  0  0
 21 31  1  0  0  0  0
 21 32  1  0  0  0  0
 39 44  1  0  0  0  0
  8 13  1  0  0  0  0
 18 30  1  0  0  0  0
 48 50  1  0  0  0  0
  7 12  1  0  0  0  0
 38 43  1  0  0  0  0
 17 29  1  0  0  0  0
 28 37  1  0  0  0  0
M  END
$$$$

  -OEChem-05262214473D

 53 53  0     1  0  0  0  0  0999 V2000
   -1.9298    0.2574    3.9747 C   0  0  0  0  0  0  0  0  0  0  0  0
   -0.9825   -0.3573    3.4990 O   0  0  0  0  0  0  0  0  0  0  0  0
   -2.3617   -0.0250    5.3754 C   0  0  0  0  0  0  0  0  0  0  0  0
   -3.1214   -0.8213    5.4288 H   0  0  0  0  0  0  0  0  0  0  0  0
   -1.5305   -0.3726    6.0097 H   0  0  0  0  0  0  0  0  0  0  0  0
   -2.7997    0.8299    5.9150 H   0  0  0  0  0  0  0  0  0  0  0  0
   -2.6795    1.2298    3.3336 N   0  0  0  0  0  0  0  0  0  0  0  0
   -2.4327    1.6559    1.9812 C   0  0  2  0  0  0  0  0  0  0  0  0
   -1.0977    1.0705    1.5400 C   0  0  0  0  0  0  0  0  0  0  0  0
   -0.2256    0.7177    2.3313 O   0  0  0  0  0  0  0  0  0  0  0  0
   -2.4239    3.1726    1.8718 C   0  0  0  0  0  0  0  0  0  0  0  0
   -3.4446    1.6657    3.8454 H   0  0  0  0  0  0  0  0  0  0  0  0
   -3.2368    1.2374    1.3661 H   0  0  0  0  0  0  0  0  0  0  0  0
   -1.6248    3.6099    2.4815 H   0  0  0  0  0  0  0  0  0  0  0  0
   -2.2644    3.4949    0.8375 H   0  0  0  0  0  0  0  0  0  0  0  0
   -3.3741    3.5939    2.2175 H   0  0  0  0  0  0  0  0  0  0  0  0
   -0.9750    1.0274    0.1566 N   0  0  0  0  0  0  0  0  0  0  0  0
    0.2023    0.5266   -0.5070 C   0  0  2  0  0  0  0  0  0  0  0  0
    1.1836    0.0979    0.5780 C   0  0  0  0  0  0  0  0  0  0  0  0
    2.3807   -0.0818    0.3644 O   0  0  0  0  0  0  0  0  0  0  0  0
    0.8434    1.5778   -1.4203 C   0  0  0  0  0  0  0  0  0  0  0  0
   -0.0228    1.9273   -2.6058 C   0  0  0  0  0  0  0  0  0  0  0  0
   -0.0361    1.0994   -3.7283 C   0  0  0  0  0  0  0  0  0  0  0  0
   -0.8097    3.0787   -2.5790 C   0  0  0  0  0  0  0  0  0  0  0  0
   -0.8362    1.4228   -4.8240 C   0  0  0  0  0  0  0  0  0  0  0  0
   -1.6098    3.4022   -3.6748 C   0  0  0  0  0  0  0  0  0  0  0  0
   -1.6231    2.5742   -4.7973 C   0  0  0  0  0  0  0  0  0  0  0  0
   -2.4029    2.8903   -5.8672 O   0  0  0  0  0  0  0  0  0  0  0  0
   -1.7582    1.3241   -0.4207 H   0  0  0  0  0  0  0  0  0  0  0  0
   -0.1117   -0.3563   -1.0762 H   0  0  0  0  0  0  0  0  0  0  0  0
    1.8251    1.2302   -1.7698 H   0  0  0  0  0  0  0  0  0  0  0  0
    1.0473    2.4997   -0.8598 H   0  0  0  0  0  0  0  0  0  0  0  0
    0.5737    0.2004   -3.7577 H   0  0  0  0  0  0  0  0  0  0  0  0
   -0.8057    3.7297   -1.7085 H   0  0  0  0  0  0  0  0  0  0  0  0
   -0.8421    0.7739   -5.6958 H   0  0  0  0  0  0  0  0  0  0  0  0
   -2.2202    4.3005   -3.6480 H   0  0  0  0  0  0  0  0  0  0  0  0
   -2.8875    3.7141   -5.6985 H   0  0  0  0  0  0  0  0  0  0  0  0
    0.5715   -0.0104    1.8190 N   0  0  0  0  0  0  0  0  0  0  0  0
    1.2796   -0.3790    3.0237 C   0  0  2  0  0  0  0  0  0  0  0  0
    2.0840   -1.6384    2.7298 C   0  0  0  0  0  0  0  0  0  0  0  0
    1.8055   -2.4147    1.8182 O   0  0  0  0  0  0  0  0  0  0  0  0
    0.3206   -0.6046    4.1822 C   0  0  0  0  0  0  0  0  0  0  0  0
   -0.4244    0.1789    1.8837 H   0  0  0  0  0  0  0  0  0  0  0  0
    1.9627    0.4458    3.2539 H   0  0  0  0  0  0  0  0  0  0  0  0
   -0.3717   -1.4274    3.9698 H   0  0  0  0  0  0  0  0  0  0  0  0
    0.8605   -0.8558    5.1011 H   0  0  0  0  0  0  0  0  0  0  0  0
   -0.2781    0.2926    4.3729 H   0  0  0  0  0  0  0  0  0  0  0  0
    3.1234   -1.8163    3.6320 N   0  0  0  0  0  0  0  0  0  0  0  0
    4.0234   -2.9443    3.5721 C   0  0  0  0  0  0  0  0  0  0  0  0
    3.2923   -1.1125    4.3447 H   0  0  0  0  0  0  0  0  0  0  0  0
    3.6434   -3.7517    4.2153 H   0  0  0  0  0  0  0  0  0  0  0  0
    4.0921   -3.3037    2.5348 H   0  0  0  0  0  0  0  0  0  0  0  0
    5.0204   -2.6367    3.9205 H   0  0  0  0  0  0  0  0  0  0  0  0
 23 25  2  0  0  0  0
 22 23  1  0  0  0  0
 24 26  1  0  0  0  0
 22 24  2  0  0  0  0
 25 27  1  0  0  0  0
 26 27  2  0  0  0  0
 21 22  1  0  0  0  0
 27 28  1  0  0  0  0
  1  3  1  0  0  0  0
  1  7  1  0  0  0  0
  1  2  2  0  0  0  0
 39 40  1  0  0  0  0
 40 48  1  0  0  0  0
 40 41  2  0  0  0  0
  8  9  1  0  0  0  0
  9 17  1  0  0  0  0
  9 10  2  0  0  0  0
 18 19  1  0  0  0  0
 19 38  1  0  0  0  0
 19 20  2  0  0  0  0
 39 42  1  0  0  0  0
  8 11  1  0  0  0  0
 48 49  1  0  0  0  0
 18 21  1  0  0  0  0
 38 39  1  0  0  0  0
  7  8  1  0  0  0  0
 17 18  1  0  0  0  0
 23 33  1  0  0  0  0
 24 34  1  0  0  0  0
 25 35  1  0  0  0  0
 26 36  1  0  0  0  0
  3  4  1  0  0  0  0
  3  5  1  0  0  0  0
  3  6  1  0  0  0  0
 42 45  1  0  0  0  0
 42 46  1  0  0  0  0
 42 47  1  0  0  0  0
 11 14  1  0  0  0  0
 11 15  1  0  0  0  0
 11 16  1  0  0  0  0
 49 51  1  0  0  0  0
 49 52  1  0  0  0  0
 49 53  1  0  0  0  0
 21 31  1  0  0  0  0
 21 32  1  0  0  0  0
 39 44  1  0  0  0  0
  8 13  1  0  0  0  0
 18 30  1  0  0  0  0
 48 50  1  0  0  0  0
  7 12  1  0  0  0  0
 38 43  1  0  0  0  0
 17 29  1  0  0  0  0
 28 37  1  0  0  0  0
M  END
$$$$

  -OEChem-05262214473D

 53 53  0     1  0  0  0  0  0999 V2000
   -1.9298    0.2574    3.9747 C   0  0  0  0  0  0  0  0  0  0  0  0
   -0.9825   -0.3573    3.4990 O   0  0  0  0  0  0  0  0  0  0  0  0
   -2.3617   -0.0250    5.3754 C   0  0  0  0  0  0  0  0  0  0  0  0
   -3.1214   -0.8213    5.4288 H   0  0  0  0  0  0  0  0  0  0  0  0
   -1.5305   -0.3726    6.0097 H   0  0  0  0  0  0  0  0  0  0  0  0
   -2.7997    0.8299    5.9150 H   0  0  0  0  0  0  0  0  0  0  0  0
   -2.6795    1.2298    3.3336 N   0  0  0  0  0  0  0  0  0  0  0  0
   -2.4327    1.6559    1.9812 C   0  0  2  0  0  0  0  0  0  0  0  0
   -1.0977    1.0705    1.5400 C   0  0  0  0  0  0  0  0  0  0  0  0
   -0.2256    0.7177    2.3313 O   0  0  0  0  0  0  0  0  0  0  0  0
   -2.4239    3.1726    1.8718 C   0  0  0  0  0  0  0  0  0  0  0  0
   -3.4446    1.6657    3.8454 H   0  0  0  0  0  0  0  0  0  0  0  0
   -3.2368    1.2374    1.3661 H   0  0  0  0  0  0  0  0  0  0  0  0
   -1.6248    3.6099    2.4815 H   0  0  0  0  0  0  0  0  0  0  0  0
   -2.2644    3.4949    0.8375 H   0  0  0  0  0  0  0  0  0  0  0  0
   -3.3741    3.5939    2.2175 H   0  0  0  0  0  0  0  0  0  0  0  0
   -0.9750    1.0274    0.1566 N   0  0  0  0  0  0  0  0  0  0  0  0
    0.2023    0.5266   -0.5070 C   0  0  2  0  0  0  0  0  0  0  0  0
    1.1836    0.0979    0.5780 C   0  0  0  0  0  0  0  0  0  0  0  0
    2.4032    0.1740    0.4451 O   0  0  0  0  0  0  0  0  0  0  0  0
    0.8434    1.5778   -1.4203 C   0  0  0  0  0  0  0  0  0  0  0  0
   -0.0228    1.9273   -2.6058 C   0  0  0  0  0  0  0  0  0  0  0  0
   -0.0361    1.0994   -3.7283 C   0  0  0  0  0  0  0  0  0  0  0  0
   -0.8097    3.0787   -2.5790 C   0  0  0  0  0  0  0  0  0  0  0  0
   -0.8362    1.4228   -4.8240 C   0  0  0  0  0  0  0  0  0  0  0  0
   -1.6098    3.4022   -3.6748 C   0  0  0  0  0  0  0  0  0  0  0  0
   -1.6231    2.5742   -4.7973 C   0  0  0  0  0  0  0  0  0  0  0  0
   -2.4029    2.8903   -5.8672 O   0  0  0  0  0  0  0  0  0  0  0  0
   -1.7582    1.3241   -0.4207 H   0  0  0  0  0  0  0  0  0  0  0  0
   -0.1117   -0.3563   -1.0762 H   0  0  0  0  0  0  0  0  0  0  0  0
    1.8251    1.2302   -1.7698 H   0  0  0  0  0  0  0  0  0  0  0  0
    1.0473    2.4997   -0.8598 H   0  0  0  0  0  0  0  0  0  0  0  0
    0.5737    0.2004   -3.7577 H   0  0  0  0  0  0  0  0  0  0  0  0
   -0.8057    3.7297   -1.7085 H   0  0  0  0  0  0  0  0  0  0  0  0
   -0.8421    0.7739   -5.6958 H   0  0  0  0  0  0  0  0  0  0  0  0
   -2.2202    4.3005   -3.6480 H   0  0  0  0  0  0  0  0  0  0  0  0
   -2.8875    3.7141   -5.6985 H   0  0  0  0  0  0  0  0  0  0  0  0
    0.5333   -0.3312    1.7267 N   0  0  0  0  0  0  0  0  0  0  0  0
    1.2287   -0.7711    2.9149 C   0  0  2  0  0  0  0  0  0  0  0  0
    2.2735   -1.7969    2.4957 C   0  0  0  0  0  0  0  0  0  0  0  0
    2.2005   -2.4402    1.4508 O   0  0  0  0  0  0  0  0  0  0  0  0
    0.2655   -1.3613    3.9331 C   0  0  0  0  0  0  0  0  0  0  0  0
   -0.4824   -0.3364    1.7325 H   0  0  0  0  0  0  0  0  0  0  0  0
    1.7279    0.1095    3.3334 H   0  0  0  0  0  0  0  0  0  0  0  0
   -0.2443   -2.2447    3.5316 H   0  0  0  0  0  0  0  0  0  0  0  0
    0.7899   -1.6679    4.8441 H   0  0  0  0  0  0  0  0  0  0  0  0
   -0.5030   -0.6318    4.2110 H   0  0  0  0  0  0  0  0  0  0  0  0
    3.2745   -1.9405    3.4463 N   0  0  0  0  0  0  0  0  0  0  0  0
    4.3746   -2.8626    3.2867 C   0  0  0  0  0  0  0  0  0  0  0  0
    3.2653   -1.3524    4.2744 H   0  0  0  0  0  0  0  0  0  0  0  0
    4.1192   -3.8238    3.7565 H   0  0  0  0  0  0  0  0  0  0  0  0
    4.5698   -3.0185    2.2155 H   0  0  0  0  0  0  0  0  0  0  0  0
    5.2733   -2.4475    3.7665 H   0  0  0  0  0  0  0  0  0  0  0  0
 23 25  2  0  0  0  0
 22 23  1  0  0  0  0
 24 26  1  0  0  0  0
 22 24  2  0  0  0  0
 25 27  1  0  0  0  0
 26 27  2  0  0  0  0
 21 22  1  0  0  0  0
 27 28  1  0  0  0  0
  1  3  1  0  0  0  0
  1  7  1  0  0  0  0
  1  2  2  0  0  0  0
 39 40  1  0  0  0  0
 40 48  1  0  0  0  0
 40 41  2  0  0  0  0
  8  9  1  0  0  0  0
  9 17  1  0  0  0  0
  9 10  2  0  0  0  0
 18 19  1  0  0  0  0
 19 38  1  0  0  0  0
 19 20  2  0  0  0  0
 39 42  1  0  0  0  0
  8 11  1  0  0  0  0
 48 49  1  0  0  0  0
 18 21  1  0  0  0  0
 38 39  1  0  0  0  0
  7  8  1  0  0  0  0
 17 18  1  0  0  0  0
 23 33  1  0  0  0  0
 24 34  1  0  0  0  0
 25 35  1  0  0  0  0
 26 36  1  0  0  0  0
  3  4  1  0  0  0  0
  3  5  1  0  0  0  0
  3  6  1  0  0  0  0
 42 45  1  0  0  0  0
 42 46  1  0  0  0  0
 42 47  1  0  0  0  0
 11 14  1  0  0  0  0
 11 15  1  0  0  0  0
 11 16  1  0  0  0  0
 49 51  1  0  0  0  0
 49 52  1  0  0  0  0
 49 53  1  0  0  0  0
 21 31  1  0  0  0  0
 21 32  1  0  0  0  0
 39 44  1  0  0  0  0
  8 13  1  0  0  0  0
 18 30  1  0  0  0  0
 48 50  1  0  0  0  0
  7 12  1  0  0  0  0
 38 43  1  0  0  0  0
 17 29  1  0  0  0  0
 28 37  1  0  0  0  0
M  END
$$$$

  -OEChem-05262214473D

 53 53  0     1  0  0  0  0  0999 V2000
   -1.9298    0.2574    3.9747 C   0  0  0  0  0  0  0  0  0  0  0  0
   -0.9825   -0.3573    3.4990 O   0  0  0  0  0  0  0  0  0  0  0  0
   -2.3617   -0.0250    5.3754 C   0  0  0  0  0  0  0  0  0  0  0  0
   -3.1214   -0.8213    5.4288 H   0  0  0  0  0  0  0  0  0  0  0  0
   -1.5305   -0.3726    6.0097 H   0  0  0  0  0  0  0  0  0  0  0  0
   -2.7997    0.8299    5.9150 H   0  0  0  0  0  0  0  0  0  0  0  0
   -2.6795    1.2298    3.3336 N   0  0  0  0  0  0  0  0  0  0  0  0
   -2.4327    1.6559    1.9812 C   0  0  2  0  0  0  0  0  0  0  0  0
   -1.0977    1.0705    1.5400 C   0  0  0  0  0  0  0  0  0  0  0  0
   -0.2256    0.7177    2.3313 O   0  0  0  0  0  0  0  0  0  0  0  0
   -2.4239    3.1726    1.8718 C   0  0  0  0  0  0  0  0  0  0  0  0
   -3.4446    1.6657    3.8454 H   0  0  0  0  0  0  0  0  0  0  0  0
   -3.2368    1.2374    1.3661 H   0  0  0  0  0  0  0  0  0  0  0  0
   -1.6248    3.6099    2.4815 H   0  0  0  0  0  0  0  0  0  0  0  0
   -2.2644    3.4949    0.8375 H   0  0  0  0  0  0  0  0  0  0  0  0
   -3.3741    3.5939    2.2175 H   0  0  0  0  0  0  0  0  0  0  0  0
   -0.9750    1.0274    0.1566 N   0  0  0  0  0  0  0  0  0  0  0  0
    0.2023    0.5266   -0.5070 C   0  0  2  0  0  0  0  0  0  0  0  0
    1.1836    0.0979    0.5780 C   0  0  0  0  0  0  0  0  0  0  0  0
    2.3720    0.4118    0.5673 O   0  0  0  0  0  0  0  0  0  0  0  0
    0.8434    1.5778   -1.4203 C   0  0  0  0  0  0  0  0  0  0  0  0
   -0.0228    1.9273   -2.6058 C   0  0  0  0  0  0  0  0  0  0  0  0
   -0.0361    1.0994   -3.7283 C   0  0  0  0  0  0  0  0  0  0  0  0
   -0.8097    3.0787   -2.5790 C   0  0  0  0  0  0  0  0  0  0  0  0
   -0.8362    1.4228   -4.8240 C   0  0  0  0  0  0  0  0  0  0  0  0
   -1.6098    3.4022   -3.6748 C   0  0  0  0  0  0  0  0  0  0  0  0
   -1.6231    2.5742   -4.7973 C   0  0  0  0  0  0  0  0  0  0  0  0
   -2.4029    2.8903   -5.8672 O   0  0  0  0  0  0  0  0  0  0  0  0
   -1.7582    1.3241   -0.4207 H   0  0  0  0  0  0  0  0  0  0  0  0
   -0.1117   -0.3563   -1.0762 H   0  0  0  0  0  0  0  0  0  0  0  0
    1.8251    1.2302   -1.7698 H   0  0  0  0  0  0  0  0  0  0  0  0
    1.0473    2.4997   -0.8598 H   0  0  0  0  0  0  0  0  0  0  0  0
    0.5737    0.2004   -3.7577 H   0  0  0  0  0  0  0  0  0  0  0  0
   -0.8057    3.7297   -1.7085 H   0  0  0  0  0  0  0  0  0  0  0  0
   -0.8421    0.7739   -5.6958 H   0  0  0  0  0  0  0  0  0  0  0  0
   -2.2202    4.3005   -3.6480 H   0  0  0  0  0  0  0  0  0  0  0  0
   -2.8875    3.7141   -5.6985 H   0  0  0  0  0  0  0  0  0  0  0  0
    0.5623   -0.6328    1.5813 N   0  0  0  0  0  0  0  0  0  0  0  0
    1.2596   -1.1411    2.7407 C   0  0  2  0  0  0  0  0  0  0  0  0
    2.5028   -1.8760    2.2571 C   0  0  0  0  0  0  0  0  0  0  0  0
    2.6135   -2.3309    1.1205 O   0  0  0  0  0  0  0  0  0  0  0  0
    0.3697   -2.0608    3.5623 C   0  0  0  0  0  0  0  0  0  0  0  0
   -0.4325   -0.8196    1.4964 H   0  0  0  0  0  0  0  0  0  0  0  0
    1.5573   -0.2718    3.3371 H   0  0  0  0  0  0  0  0  0  0  0  0
    0.0613   -2.9376    2.9814 H   0  0  0  0  0  0  0  0  0  0  0  0
    0.8900   -2.4224    4.4554 H   0  0  0  0  0  0  0  0  0  0  0  0
   -0.5381   -1.5393    3.8842 H   0  0  0  0  0  0  0  0  0  0  0  0
    3.4568   -2.0018    3.2572 N   0  0  0  0  0  0  0  0  0  0  0  0
    4.7197   -2.6713    3.0502 C   0  0  0  0  0  0  0  0  0  0  0  0
    3.2885   -1.5773    4.1645 H   0  0  0  0  0  0  0  0  0  0  0  0
    4.6255   -3.7294    3.3359 H   0  0  0  0  0  0  0  0  0  0  0  0
    5.0018   -2.6018    1.9893 H   0  0  0  0  0  0  0  0  0  0  0  0
    5.4939   -2.1925    3.6677 H   0  0  0  0  0  0  0  0  0  0  0  0
 23 25  2  0  0  0  0
 22 23  1  0  0  0  0
 24 26  1  0  0  0  0
 22 24  2  0  0  0  0
 25 27  1  0  0  0  0
 26 27  2  0  0  0  0
 21 22  1  0  0  0  0
 27 28  1  0  0  0  0
  1  3  1  0  0  0  0
  1  7  1  0  0  0  0
  1  2  2  0  0  0  0
 39 40  1  0  0  0  0
 40 48  1  0  0  0  0
 40 41  2  0  0  0  0
  8  9  1  0  0  0  0
  9 17  1  0  0  0  0
  9 10  2  0  0  0  0
 18 19  1  0  0  0  0
 19 38  1  0  0  0  0
 19 20  2  0  0  0  0
 39 42  1  0  0  0  0
  8 11  1  0  0  0  0
 48 49  1  0  0  0  0
 18 21  1  0  0  0  0
 38 39  1  0  0  0  0
  7  8  1  0  0  0  0
 17 18  1  0  0  0  0
 23 33  1  0  0  0  0
 24 34  1  0  0  0  0
 25 35  1  0  0  0  0
 26 36  1  0  0  0  0
  3  4  1  0  0  0  0
  3  5  1  0  0  0  0
  3  6  1  0  0  0  0
 42 45  1  0  0  0  0
 42 46  1  0  0  0  0
 42 47  1  0  0  0  0
 11 14  1  0  0  0  0
 11 15  1  0  0  0  0
 11 16  1  0  0  0  0
 49 51  1  0  0  0  0
 49 52  1  0  0  0  0
 49 53  1  0  0  0  0
 21 31  1  0  0  0  0
 21 32  1  0  0  0  0
 39 44  1  0  0  0  0
  8 13  1  0  0  0  0
 18 30  1  0  0  0  0
 48 50  1  0  0  0  0
  7 12  1  0  0  0  0
 38 43  1  0  0  0  0
 17 29  1  0  0  0  0
 28 37  1  0  0  0  0
M  END
$$$$

  -OEChem-05262214473D

 53 53  0     1  0  0  0  0  0999 V2000
   -1.9298    0.2574    3.9747 C   0  0  0  0  0  0  0  0  0  0  0  0
   -0.9825   -0.3573    3.4990 O   0  0  0  0  0  0  0  0  0  0  0  0
   -2.3617   -0.0250    5.3754 C   0  0  0  0  0  0  0  0  0  0  0  0
   -3.1214   -0.8213    5.4288 H   0  0  0  0  0  0  0  0  0  0  0  0
   -1.5305   -0.3726    6.0097 H   0  0  0  0  0  0  0  0  0  0  0  0
   -2.7997    0.8299    5.9150 H   0  0  0  0  0  0  0  0  0  0  0  0
   -2.6795    1.2298    3.3336 N   0  0  0  0  0  0  0  0  0  0  0  0
   -2.4327    1.6559    1.9812 C   0  0  2  0  0  0  0  0  0  0  0  0
   -1.0977    1.0705    1.5400 C   0  0  0  0  0  0  0  0  0  0  0  0
   -0.2256    0.7177    2.3313 O   0  0  0  0  0  0  0  0  0  0  0  0
   -2.4239    3.1726    1.8718 C   0  0  0  0  0  0  0  0  0  0  0  0
   -3.4446    1.6657    3.8454 H   0  0  0  0  0  0  0  0  0  0  0  0
   -3.2368    1.2374    1.3661 H   0  0  0  0  0  0  0  0  0  0  0  0
   -1.6248    3.6099    2.4815 H   0  0  0  0  0  0  0  0  0  0  0  0
   -2.2644    3.4949    0.8375 H   0  0  0  0  0  0  0  0  0  0  0  0
   -3.3741    3.5939    2.2175 H   0  0  0  0  0  0  0  0  0  0  0  0
   -0.9750    1.0274    0.1566 N   0  0  0  0  0  0  0  0  0  0  0  0
    0.2023    0.5266   -0.5070 C   0  0  2  0  0  0  0  0  0  0  0  0
    1.1836    0.0979    0.5780 C   0  0  0  0  0  0  0  0  0  0  0  0
    2.2892    0.6153    0.7227 O   0  0  0  0  0  0  0  0  0  0  0  0
    0.8434    1.5778   -1.4203 C   0  0  0  0  0  0  0  0  0  0  0  0
   -0.0228    1.9273   -2.6058 C   0  0  0  0  0  0  0  0  0  0  0  0
   -0.0361    1.0994   -3.7283 C   0  0  0  0  0  0  0  0  0  0  0  0
   -0.8097    3.0787   -2.5790 C   0  0  0  0  0  0  0  0  0  0  0  0
   -0.8362    1.4228   -4.8240 C   0  0  0  0  0  0  0  0  0  0  0  0
   -1.6098    3.4022   -3.6748 C   0  0  0  0  0  0  0  0  0  0  0  0
   -1.6231    2.5742   -4.7973 C   0  0  0  0  0  0  0  0  0  0  0  0
   -2.4029    2.8903   -5.8672 O   0  0  0  0  0  0  0  0  0  0  0  0
   -1.7582    1.3241   -0.4207 H   0  0  0  0  0  0  0  0  0  0  0  0
   -0.1117   -0.3563   -1.0762 H   0  0  0  0  0  0  0  0  0  0  0  0
    1.8251    1.2302   -1.7698 H   0  0  0  0  0  0  0  0  0  0  0  0
    1.0473    2.4997   -0.8598 H   0  0  0  0  0  0  0  0  0  0  0  0
    0.5737    0.2004   -3.7577 H   0  0  0  0  0  0  0  0  0  0  0  0
   -0.8057    3.7297   -1.7085 H   0  0  0  0  0  0  0  0  0  0  0  0
   -0.8421    0.7739   -5.6958 H   0  0  0  0  0  0  0  0  0  0  0  0
   -2.2202    4.3005   -3.6480 H   0  0  0  0  0  0  0  0  0  0  0  0
   -2.8875    3.7141   -5.6985 H   0  0  0  0  0  0  0  0  0  0  0  0
    0.6564   -0.8945    1.3928 N   0  0  0  0  0  0  0  0  0  0  0  0
    1.3703   -1.4638    2.5131 C   0  0  2  0  0  0  0  0  0  0  0  0
    2.7562   -1.8704    2.0301 C   0  0  0  0  0  0  0  0  0  0  0  0
    3.0163   -2.0942    0.8497 O   0  0  0  0  0  0  0  0  0  0  0  0
    0.6263   -2.6555    3.0953 C   0  0  0  0  0  0  0  0  0  0  0  0
   -0.2781   -1.2378    1.1915 H   0  0  0  0  0  0  0  0  0  0  0  0
    1.4624   -0.6722    3.2646 H   0  0  0  0  0  0  0  0  0  0  0  0
    0.5242   -3.4590    2.3567 H   0  0  0  0  0  0  0  0  0  0  0  0
    1.1539   -3.0681    3.9616 H   0  0  0  0  0  0  0  0  0  0  0  0
   -0.3811   -2.3678    3.4148 H   0  0  0  0  0  0  0  0  0  0  0  0
    3.6580   -1.9958    3.0776 N   0  0  0  0  0  0  0  0  0  0  0  0
    5.0349   -2.3836    2.8787 C   0  0  0  0  0  0  0  0  0  0  0  0
    3.3603   -1.7720    4.0226 H   0  0  0  0  0  0  0  0  0  0  0  0
    5.1277   -3.4748    2.9822 H   0  0  0  0  0  0  0  0  0  0  0  0
    5.3589   -2.0821    1.8717 H   0  0  0  0  0  0  0  0  0  0  0  0
    5.6673   -1.8891    3.6308 H   0  0  0  0  0  0  0  0  0  0  0  0
 23 25  2  0  0  0  0
 22 23  1  0  0  0  0
 24 26  1  0  0  0  0
 22 24  2  0  0  0  0
 25 27  1  0  0  0  0
 26 27  2  0  0  0  0
 21 22  1  0  0  0  0
 27 28  1  0  0  0  0
  1  3  1  0  0  0  0
  1  7  1  0  0  0  0
  1  2  2  0  0  0  0
 39 40  1  0  0  0  0
 40 48  1  0  0  0  0
 40 41  2  0  0  0  0
  8  9  1  0  0  0  0
  9 17  1  0  0  0  0
  9 10  2  0  0  0  0
 18 19  1  0  0  0  0
 19 38  1  0  0  0  0
 19 20  2  0  0  0  0
 39 42  1  0  0  0  0
  8 11  1  0  0  0  0
 48 49  1  0  0  0  0
 18 21  1  0  0  0  0
 38 39  1  0  0  0  0
  7  8  1  0  0  0  0
 17 18  1  0  0  0  0
 23 33  1  0  0  0  0
 24 34  1  0  0  0  0
 25 35  1  0  0  0  0
 26 36  1  0  0  0  0
  3  4  1  0  0  0  0
  3  5  1  0  0  0  0
  3  6  1  0  0  0  0
 42 45  1  0  0  0  0
 42 46  1  0  0  0  0
 42 47  1  0  0  0  0
 11 14  1  0  0  0  0
 11 15  1  0  0  0  0
 11 16  1  0  0  0  0
 49 51  1  0  0  0  0
 49 52  1  0  0  0  0
 49 53  1  0  0  0  0
 21 31  1  0  0  0  0
 21 32  1  0  0  0  0
 39 44  1  0  0  0  0
  8 13  1  0  0  0  0
 18 30  1  0  0  0  0
 48 50  1  0  0  0  0
  7 12  1  0  0  0  0
 38 43  1  0  0  0  0
 17 29  1  0  0  0  0
 28 37  1  0  0  0  0
M  END
$$$$

  -OEChem-05262214473D

 53 53  0     1  0  0  0  0  0999 V2000
   -1.9298    0.2574    3.9747 C   0  0  0  0  0  0  0  0  0  0  0  0
   -0.9825   -0.3573    3.4990 O   0  0  0  0  0  0  0  0  0  0  0  0
   -2.3617   -0.0250    5.3754 C   0  0  0  0  0  0  0  0  0  0  0  0
   -3.1214   -0.8213    5.4288 H   0  0  0  0  0  0  0  0  0  0  0  0
   -1.5305   -0.3726    6.0097 H   0  0  0  0  0  0  0  0  0  0  0  0
   -2.7997    0.8299    5.9150 H   0  0  0  0  0  0  0  0  0  0  0  0
   -2.6795    1.2298    3.3336 N   0  0  0  0  0  0  0  0  0  0  0  0
   -2.4327    1.6559    1.9812 C   0  0  2  0  0  0  0  0  0  0  0  0
   -1.0977    1.0705    1.5400 C   0  0  0  0  0  0  0  0  0  0  0  0
   -0.2256    0.7177    2.3313 O   0  0  0  0  0  0  0  0  0  0  0  0
   -2.4239    3.1726    1.8718 C   0  0  0  0  0  0  0  0  0  0  0  0
   -3.4446    1.6657    3.8454 H   0  0  0  0  0  0  0  0  0  0  0  0
   -3.2368    1.2374    1.3661 H   0  0  0  0  0  0  0  0  0  0  0  0
   -1.6248    3.6099    2.4815 H   0  0  0  0  0  0  0  0  0  0  0  0
   -2.2644    3.4949    0.8375 H   0  0  0  0  0  0  0  0  0  0  0  0
   -3.3741    3.5939    2.2175 H   0  0  0  0  0  0  0  0  0  0  0  0
   -0.9750    1.0274    0.1566 N   0  0  0  0  0  0  0  0  0  0  0  0
    0.2023    0.5266   -0.5070 C   0  0  2  0  0  0  0  0  0  0  0  0
    1.1836    0.0979    0.5780 C   0  0  0  0  0  0  0  0  0  0  0  0
    2.1603    0.7708    0.9007 O   0  0  0  0  0  0  0  0  0  0  0  0
    0.8434    1.5778   -1.4203 C   0  0  0  0  0  0  0  0  0  0  0  0
   -0.0228    1.9273   -2.6058 C   0  0  0  0  0  0  0  0  0  0  0  0
   -0.0361    1.0994   -3.7283 C   0  0  0  0  0  0  0  0  0  0  0  0
   -0.8097    3.0787   -2.5790 C   0  0  0  0  0  0  0  0  0  0  0  0
   -0.8362    1.4228   -4.8240 C   0  0  0  0  0  0  0  0  0  0  0  0
   -1.6098    3.4022   -3.6748 C   0  0  0  0  0  0  0  0  0  0  0  0
   -1.6231    2.5742   -4.7973 C   0  0  0  0  0  0  0  0  0  0  0  0
   -2.4029    2.8903   -5.8672 O   0  0  0  0  0  0  0  0  0  0  0  0
   -1.7582    1.3241   -0.4207 H   0  0  0  0  0  0  0  0  0  0  0  0
   -0.1117   -0.3563   -1.0762 H   0  0  0  0  0  0  0  0  0  0  0  0
    1.8251    1.2302   -1.7698 H   0  0  0  0  0  0  0  0  0  0  0  0
    1.0473    2.4997   -0.8598 H   0  0  0  0  0  0  0  0  0  0  0  0
    0.5737    0.2004   -3.7577 H   0  0  0  0  0  0  0  0  0  0  0  0
   -0.8057    3.7297   -1.7085 H   0  0  0  0  0  0  0  0  0  0  0  0
   -0.8421    0.7739   -5.6958 H   0  0  0  0  0  0  0  0  0  0  0  0
   -2.2202    4.3005   -3.6480 H   0  0  0  0  0  0  0  0  0  0  0  0
   -2.8875    3.7141   -5.6985 H   0  0  0  0  0  0  0  0  0  0  0  0
    0.8093   -1.0985    1.1739 N   0  0  0  0  0  0  0  0  0  0  0  0
    1.5532   -1.7172    2.2475 C   0  0  2  0  0  0  0  0  0  0  0  0
    3.0165   -1.7805    1.8302 C   0  0  0  0  0  0  0  0  0  0  0  0
    3.3815   -1.7462    0.6568 O   0  0  0  0  0  0  0  0  0  0  0  0
    1.0176   -3.1049    2.5637 C   0  0  0  0  0  0  0  0  0  0  0  0
   -0.0297   -1.5625    0.8386 H   0  0  0  0  0  0  0  0  0  0  0  0
    1.4499   -1.0643    3.1211 H   0  0  0  0  0  0  0  0  0  0  0  0
    1.1127   -3.7733    1.7002 H   0  0  0  0  0  0  0  0  0  0  0  0
    1.5638   -3.5608    3.3962 H   0  0  0  0  0  0  0  0  0  0  0  0
   -0.0427   -3.0610    2.8348 H   0  0  0  0  0  0  0  0  0  0  0  0
    3.8642   -1.9231    2.9197 N   0  0  0  0  0  0  0  0  0  0  0  0
    5.2989   -2.0191    2.7840 C   0  0  0  0  0  0  0  0  0  0  0  0
    3.4759   -1.9232    3.8583 H   0  0  0  0  0  0  0  0  0  0  0  0
    5.5917   -3.0775    2.7196 H   0  0  0  0  0  0  0  0  0  0  0  0
    5.6166   -1.4947    1.8707 H   0  0  0  0  0  0  0  0  0  0  0  0
    5.7815   -1.5579    3.6583 H   0  0  0  0  0  0  0  0  0  0  0  0
 23 25  2  0  0  0  0
 22 23  1  0  0  0  0
 24 26  1  0  0  0  0
 22 24  2  0  0  0  0
 25 27  1  0  0  0  0
 26 27  2  0  0  0  0
 21 22  1  0  0  0  0
 27 28  1  0  0  0  0
  1  3  1  0  0  0  0
  1  7  1  0  0  0  0
  1  2  2  0  0  0  0
 39 40  1  0  0  0  0
 40 48  1  0  0  0  0
 40 41  2  0  0  0  0
  8  9  1  0  0  0  0
  9 17  1  0  0  0  0
  9 10  2  0  0  0  0
 18 19  1  0  0  0  0
 19 38  1  0  0  0  0
 19 20  2  0  0  0  0
 39 42  1  0  0  0  0
  8 11  1  0  0  0  0
 48 49  1  0  0  0  0
 18 21  1  0  0  0  0
 38 39  1  0  0  0  0
  7  8  1  0  0  0  0
 17 18  1  0  0  0  0
 23 33  1  0  0  0  0
 24 34  1  0  0  0  0
 25 35  1  0  0  0  0
 26 36  1  0  0  0  0
  3  4  1  0  0  0  0
  3  5  1  0  0  0  0
  3  6  1  0  0  0  0
 42 45  1  0  0  0  0
 42 46  1  0  0  0  0
 42 47  1  0  0  0  0
 11 14  1  0  0  0  0
 11 15  1  0  0  0  0
 11 16  1  0  0  0  0
 49 51  1  0  0  0  0
 49 52  1  0  0  0  0
 49 53  1  0  0  0  0
 21 31  1  0  0  0  0
 21 32  1  0  0  0  0
 39 44  1  0  0  0  0
  8 13  1  0  0  0  0
 18 30  1  0  0  0  0
 48 50  1  0  0  0  0
  7 12  1  0  0  0  0
 38 43  1  0  0  0  0
 17 29  1  0  0  0  0
 28 37  1  0  0  0  0
M  END
$$$$

  -OEChem-05262214473D

 53 53  0     1  0  0  0  0  0999 V2000
   -1.9298    0.2574    3.9747 C   0  0  0  0  0  0  0  0  0  0  0  0
   -0.9825   -0.3573    3.4990 O   0  0  0  0  0  0  0  0  0  0  0  0
   -2.3617   -0.0250    5.3754 C   0  0  0  0  0  0  0  0  0  0  0  0
   -3.1214   -0.8213    5.4288 H   0  0  0  0  0  0  0  0  0  0  0  0
   -1.5305   -0.3726    6.0097 H   0  0  0  0  0  0  0  0  0  0  0  0
   -2.7997    0.8299    5.9150 H   0  0  0  0  0  0  0  0  0  0  0  0
   -2.6795    1.2298    3.3336 N   0  0  0  0  0  0  0  0  0  0  0  0
   -2.4327    1.6559    1.9812 C   0  0  2  0  0  0  0  0  0  0  0  0
   -1.0977    1.0705    1.5400 C   0  0  0  0  0  0  0  0  0  0  0  0
   -0.2256    0.7177    2.3313 O   0  0  0  0  0  0  0  0  0  0  0  0
   -2.4239    3.1726    1.8718 C   0  0  0  0  0  0  0  0  0  0  0  0
   -3.4446    1.6657    3.8454 H   0  0  0  0  0  0  0  0  0  0  0  0
   -3.2368    1.2374    1.3661 H   0  0  0  0  0  0  0  0  0  0  0  0
   -1.6248    3.6099    2.4815 H   0  0  0  0  0  0  0  0  0  0  0  0
   -2.2644    3.4949    0.8375 H   0  0  0  0  0  0  0  0  0  0  0  0
   -3.3741    3.5939    2.2175 H   0  0  0  0  0  0  0  0  0  0  0  0
   -0.9750    1.0274    0.1566 N   0  0  0  0  0  0  0  0  0  0  0  0
    0.2023    0.5266   -0.5070 C   0  0  2  0  0  0  0  0  0  0  0  0
    1.1836    0.0979    0.5780 C   0  0  0  0  0  0  0  0  0  0  0  0
    1.9943    0.8676    1.0891 O   0  0  0  0  0  0  0  0  0  0  0  0
    0.8434    1.5778   -1.4203 C   0  0  0  0  0  0  0  0  0  0  0  0
   -0.0228    1.9273   -2.6058 C   0  0  0  0  0  0  0  0  0  0  0  0
   -0.0361    1.0994   -3.7283 C   0  0  0  0  0  0  0  0  0  0  0  0
   -0.8097    3.0787   -2.5790 C   0  0  0  0  0  0  0  0  0  0  0  0
   -0.8362    1.4228   -4.8240 C   0  0  0  0  0  0  0  0  0  0  0  0
   -1.6098    3.4022   -3.6748 C   0  0  0  0  0  0  0  0  0  0  0  0
   -1.6231    2.5742   -4.7973 C   0  0  0  0  0  0  0  0  0  0  0  0
   -2.4029    2.8903   -5.8672 O   0  0  0  0  0  0  0  0  0  0  0  0
   -1.7582    1.3241   -0.4207 H   0  0  0  0  0  0  0  0  0  0  0  0
   -0.1117   -0.3563   -1.0762 H   0  0  0  0  0  0  0  0  0  0  0  0
    1.8251    1.2302   -1.7698 H   0  0  0  0  0  0  0  0  0  0  0  0
    1.0473    2.4997   -0.8598 H   0  0  0  0  0  0  0  0  0  0  0  0
    0.5737    0.2004   -3.7577 H   0  0  0  0  0  0  0  0  0  0  0  0
   -0.8057    3.7297   -1.7085 H   0  0  0  0  0  0  0  0  0  0  0  0
   -0.8421    0.7739   -5.6958 H   0  0  0  0  0  0  0  0  0  0  0  0
   -2.2202    4.3005   -3.6480 H   0  0  0  0  0  0  0  0  0  0  0  0
   -2.8875    3.7141   -5.6985 H   0  0  0  0  0  0  0  0  0  0  0  0
    1.0104   -1.2309    0.9396 N   0  0  0  0  0  0  0  0  0  0  0  0
    1.7959   -1.8840    1.9621 C   0  0  2  0  0  0  0  0  0  0  0  0
    3.2659   -1.6124    1.6710 C   0  0  0  0  0  0  0  0  0  0  0  0
    3.6842   -1.3107    0.5551 O   0  0  0  0  0  0  0  0  0  0  0  0
    1.5171   -3.3784    2.0039 C   0  0  0  0  0  0  0  0  0  0  0  0
    0.2957   -1.7716    0.4616 H   0  0  0  0  0  0  0  0  0  0  0  0
    1.5204   -1.4215    2.9161 H   0  0  0  0  0  0  0  0  0  0  0  0
    1.7870   -3.8591    1.0565 H   0  0  0  0  0  0  0  0  0  0  0  0
    2.0916   -3.8671    2.7978 H   0  0  0  0  0  0  0  0  0  0  0  0
    0.4541   -3.5717    2.1837 H   0  0  0  0  0  0  0  0  0  0  0  0
    4.0616   -1.7886    2.7944 N   0  0  0  0  0  0  0  0  0  0  0  0
    5.4937   -1.6026    2.7724 C   0  0  0  0  0  0  0  0  0  0  0  0
    3.6274   -2.0206    3.6829 H   0  0  0  0  0  0  0  0  0  0  0  0
    5.9858   -2.5645    2.5658 H   0  0  0  0  0  0  0  0  0  0  0  0
    5.7574   -0.8797    1.9864 H   0  0  0  0  0  0  0  0  0  0  0  0
    5.8289   -1.2216    3.7484 H   0  0  0  0  0  0  0  0  0  0  0  0
 23 25  2  0  0  0  0
 22 23  1  0  0  0  0
 24 26  1  0  0  0  0
 22 24  2  0  0  0  0
 25 27  1  0  0  0  0
 26 27  2  0  0  0  0
 21 22  1  0  0  0  0
 27 28  1  0  0  0  0
  1  3  1  0  0  0  0
  1  7  1  0  0  0  0
  1  2  2  0  0  0  0
 39 40  1  0  0  0  0
 40 48  1  0  0  0  0
 40 41  2  0  0  0  0
  8  9  1  0  0  0  0
  9 17  1  0  0  0  0
  9 10  2  0  0  0  0
 18 19  1  0  0  0  0
 19 38  1  0  0  0  0
 19 20  2  0  0  0  0
 39 42  1  0  0  0  0
  8 11  1  0  0  0  0
 48 49  1  0  0  0  0
 18 21  1  0  0  0  0
 38 39  1  0  0  0  0
  7  8  1  0  0  0  0
 17 18  1  0  0  0  0
 23 33  1  0  0  0  0
 24 34  1  0  0  0  0
 25 35  1  0  0  0  0
 26 36  1  0  0  0  0
  3  4  1  0  0  0  0
  3  5  1  0  0  0  0
  3  6  1  0  0  0  0
 42 45  1  0  0  0  0
 42 46  1  0  0  0  0
 42 47  1  0  0  0  0
 11 14  1  0  0  0  0
 11 15  1  0  0  0  0
 11 16  1  0  0  0  0
 49 51  1  0  0  0  0
 49 52  1  0  0  0  0
 49 53  1  0  0  0  0
 21 31  1  0  0  0  0
 21 32  1  0  0  0  0
 39 44  1  0  0  0  0
  8 13  1  0  0  0  0
 18 30  1  0  0  0  0
 48 50  1  0  0  0  0
  7 12  1  0  0  0  0
 38 43  1  0  0  0  0
 17 29  1  0  0  0  0
 28 37  1  0  0  0  0
M  END
$$$$

  -OEChem-05262214473D

 53 53  0     1  0  0  0  0  0999 V2000
   -1.9298    0.2574    3.9747 C   0  0  0  0  0  0  0  0  0  0  0  0
   -0.9825   -0.3573    3.4990 O   0  0  0  0  0  0  0  0  0  0  0  0
   -2.3617   -0.0250    5.3754 C   0  0  0  0  0  0  0  0  0  0  0  0
   -3.1214   -0.8213    5.4288 H   0  0  0  0  0  0  0  0  0  0  0  0
   -1.5305   -0.3726    6.0097 H   0  0  0  0  0  0  0  0  0  0  0  0
   -2.7997    0.8299    5.9150 H   0  0  0  0  0  0  0  0  0  0  0  0
   -2.6795    1.2298    3.3336 N   0  0  0  0  0  0  0  0  0  0  0  0
   -2.4327    1.6559    1.9812 C   0  0  2  0  0  0  0  0  0  0  0  0
   -1.0977    1.0705    1.5400 C   0  0  0  0  0  0  0  0  0  0  0  0
   -0.2256    0.7177    2.3313 O   0  0  0  0  0  0  0  0  0  0  0  0
   -2.4239    3.1726    1.8718 C   0  0  0  0  0  0  0  0  0  0  0  0
   -3.4446    1.6657    3.8454 H   0  0  0  0  0  0  0  0  0  0  0  0
   -3.2368    1.2374    1.3661 H   0  0  0  0  0  0  0  0  0  0  0  0
   -1.6248    3.6099    2.4815 H   0  0  0  0  0  0  0  0  0  0  0  0
   -2.2644    3.4949    0.8375 H   0  0  0  0  0  0  0  0  0  0  0  0
   -3.3741    3.5939    2.2175 H   0  0  0  0  0  0  0  0  0  0  0  0
   -0.9750    1.0274    0.1566 N   0  0  0  0  0  0  0  0  0  0  0  0
    0.2023    0.5266   -0.5070 C   0  0  2  0  0  0  0  0  0  0  0  0
    1.1836    0.0979    0.5780 C   0  0  0  0  0  0  0  0  0  0  0  0
    1.8023    0.8991    1.2752 O   0  0  0  0  0  0  0  0  0  0  0  0
    0.8434    1.5778   -1.4203 C   0  0  0  0  0  0  0  0  0  0  0  0
   -0.0228    1.9273   -2.6058 C   0  0  0  0  0  0  0  0  0  0  0  0
   -0.0361    1.0994   -3.7283 C   0  0  0  0  0  0  0  0  0  0  0  0
   -0.8097    3.0787   -2.5790 C   0  0  0  0  0  0  0  0  0  0  0  0
   -0.8362    1.4228   -4.8240 C   0  0  0  0  0  0  0  0  0  0  0  0
   -1.6098    3.4022   -3.6748 C   0  0  0  0  0  0  0  0  0  0  0  0
   -1.6231    2.5742   -4.7973 C   0  0  0  0  0  0  0  0  0  0  0  0
   -2.4029    2.8903   -5.8672 O   0  0  0  0  0  0  0  0  0  0  0  0
   -1.7582    1.3241   -0.4207 H   0  0  0  0  0  0  0  0  0  0  0  0
   -0.1117   -0.3563   -1.0762 H   0  0  0  0  0  0  0  0  0  0  0  0
    1.8251    1.2302   -1.7698 H   0  0  0  0  0  0  0  0  0  0  0  0
    1.0473    2.4997   -0.8598 H   0  0  0  0  0  0  0  0  0  0  0  0
    0.5737    0.2004   -3.7577 H   0  0  0  0  0  0  0  0  0  0  0  0
   -0.8057    3.7297   -1.7085 H   0  0  0  0  0  0  0  0  0  0  0  0
   -0.8421    0.7739   -5.6958 H   0  0  0  0  0  0  0  0  0  0  0  0
   -2.2202    4.3005   -3.6480 H   0  0  0  0  0  0  0  0  0  0  0  0
   -2.8875    3.7141   -5.6985 H   0  0  0  0  0  0  0  0  0  0  0  0
    1.2462   -1.2828    0.7059 N   0  0  0  0  0  0  0  0  0  0  0  0
    2.0818   -1.9528    1.6763 C   0  0  2  0  0  0  0  0  0  0  0  0
    3.4875   -1.3775    1.5634 C   0  0  0  0  0  0  0  0  0  0  0  0
    3.9038   -0.8174    0.5515 O   0  0  0  0  0  0  0  0  0  0  0  0
    2.0907   -3.4572    1.4539 C   0  0  0  0  0  0  0  0  0  0  0  0
    0.6759   -1.8509    0.0864 H   0  0  0  0  0  0  0  0  0  0  0  0
    1.6692   -1.7194    2.6638 H   0  0  0  0  0  0  0  0  0  0  0  0
    2.5008   -3.7105    0.4695 H   0  0  0  0  0  0  0  0  0  0  0  0
    2.7013   -3.9660    2.2072 H   0  0  0  0  0  0  0  0  0  0  0  0
    1.0754   -3.8649    1.5059 H   0  0  0  0  0  0  0  0  0  0  0  0
    4.2366   -1.6014    2.7101 N   0  0  0  0  0  0  0  0  0  0  0  0
    5.6059   -1.1625    2.8448 C   0  0  0  0  0  0  0  0  0  0  0  0
    3.8044   -2.0575    3.5082 H   0  0  0  0  0  0  0  0  0  0  0  0
    6.2831   -1.9708    2.5315 H   0  0  0  0  0  0  0  0  0  0  0  0
    5.7717   -0.2790    2.2108 H   0  0  0  0  0  0  0  0  0  0  0  0
    5.8061   -0.9030    3.8949 H   0  0  0  0  0  0  0  0  0  0  0  0
 23 25  2  0  0  0  0
 22 23  1  0  0  0  0
 24 26  1  0  0  0  0
 22 24  2  0  0  0  0
 25 27  1  0  0  0  0
 26 27  2  0  0  0  0
 21 22  1  0  0  0  0
 27 28  1  0  0  0  0
  1  3  1  0  0  0  0
  1  7  1  0  0  0  0
  1  2  2  0  0  0  0
 39 40  1  0  0  0  0
 40 48  1  0  0  0  0
 40 41  2  0  0  0  0
  8  9  1  0  0  0  0
  9 17  1  0  0  0  0
  9 10  2  0  0  0  0
 18 19  1  0  0  0  0
 19 38  1  0  0  0  0
 19 20  2  0  0  0  0
 39 42  1  0  0  0  0
  8 11  1  0  0  0  0
 48 49  1  0  0  0  0
 18 21  1  0  0  0  0
 38 39  1  0  0  0  0
  7  8  1  0  0  0  0
 17 18  1  0  0  0  0
 23 33  1  0  0  0  0
 24 34  1  0  0  0  0
 25 35  1  0  0  0  0
 26 36  1  0  0  0  0
  3  4  1  0  0  0  0
  3  5  1  0  0  0  0
  3  6  1  0  0  0  0
 42 45  1  0  0  0  0
 42 46  1  0  0  0  0
 42 47  1  0  0  0  0
 11 14  1  0  0  0  0
 11 15  1  0  0  0  0
 11 16  1  0  0  0  0
 49 51  1  0  0  0  0
 49 52  1  0  0  0  0
 49 53  1  0  0  0  0
 21 31  1  0  0  0  0
 21 32  1  0  0  0  0
 39 44  1  0  0  0  0
  8 13  1  0  0  0  0
 18 30  1  0  0  0  0
 48 50  1  0  0  0  0
  7 12  1  0  0  0  0
 38 43  1  0  0  0  0
 17 29  1  0  0  0  0
 28 37  1  0  0  0  0
M  END
$$$$

  -OEChem-05262214473D

 53 53  0     1  0  0  0  0  0999 V2000
   -1.9298    0.2574    3.9747 C   0  0  0  0  0  0  0  0  0  0  0  0
   -0.9825   -0.3573    3.4990 O   0  0  0  0  0  0  0  0  0  0  0  0
   -2.3617   -0.0250    5.3754 C   0  0  0  0  0  0  0  0  0  0  0  0
   -3.1214   -0.8213    5.4288 H   0  0  0  0  0  0  0  0  0  0  0  0
   -1.5305   -0.3726    6.0097 H   0  0  0  0  0  0  0  0  0  0  0  0
   -2.7997    0.8299    5.9150 H   0  0  0  0  0  0  0  0  0  0  0  0
   -2.6795    1.2298    3.3336 N   0  0  0  0  0  0  0  0  0  0  0  0
   -2.4327    1.6559    1.9812 C   0  0  2  0  0  0  0  0  0  0  0  0
   -1.0977    1.0705    1.5400 C   0  0  0  0  0  0  0  0  0  0  0  0
   -0.2256    0.7177    2.3313 O   0  0  0  0  0  0  0  0  0  0  0  0
   -2.4239    3.1726    1.8718 C   0  0  0  0  0  0  0  0  0  0  0  0
   -3.4446    1.6657    3.8454 H   0  0  0  0  0  0  0  0  0  0  0  0
   -3.2368    1.2374    1.3661 H   0  0  0  0  0  0  0  0  0  0  0  0
   -1.6248    3.6099    2.4815 H   0  0  0  0  0  0  0  0  0  0  0  0
   -2.2644    3.4949    0.8375 H   0  0  0  0  0  0  0  0  0  0  0  0
   -3.3741    3.5939    2.2175 H   0  0  0  0  0  0  0  0  0  0  0  0
   -0.9750    1.0274    0.1566 N   0  0  0  0  0  0  0  0  0  0  0  0
    0.2023    0.5266   -0.5070 C   0  0  2  0  0  0  0  0  0  0  0  0
    1.1836    0.0979    0.5780 C   0  0  0  0  0  0  0  0  0  0  0  0
    1.5976    0.8632    1.4462 O   0  0  0  0  0  0  0  0  0  0  0  0
    0.8434    1.5778   -1.4203 C   0  0  0  0  0  0  0  0  0  0  0  0
   -0.0228    1.9273   -2.6058 C   0  0  0  0  0  0  0  0  0  0  0  0
   -0.0361    1.0994   -3.7283 C   0  0  0  0  0  0  0  0  0  0  0  0
   -0.8097    3.0787   -2.5790 C   0  0  0  0  0  0  0  0  0  0  0  0
   -0.8362    1.4228   -4.8240 C   0  0  0  0  0  0  0  0  0  0  0  0
   -1.6098    3.4022   -3.6748 C   0  0  0  0  0  0  0  0  0  0  0  0
   -1.6231    2.5742   -4.7973 C   0  0  0  0  0  0  0  0  0  0  0  0
   -2.4029    2.8903   -5.8672 O   0  0  0  0  0  0  0  0  0  0  0  0
   -1.7582    1.3241   -0.4207 H   0  0  0  0  0  0  0  0  0  0  0  0
   -0.1117   -0.3563   -1.0762 H   0  0  0  0  0  0  0  0  0  0  0  0
    1.8251    1.2302   -1.7698 H   0  0  0  0  0  0  0  0  0  0  0  0
    1.0473    2.4997   -0.8598 H   0  0  0  0  0  0  0  0  0  0  0  0
    0.5737    0.2004   -3.7577 H   0  0  0  0  0  0  0  0  0  0  0  0
   -0.8057    3.7297   -1.7085 H   0  0  0  0  0  0  0  0  0  0  0  0
   -0.8421    0.7739   -5.6958 H   0  0  0  0  0  0  0  0  0  0  0  0
   -2.2202    4.3005   -3.6480 H   0  0  0  0  0  0  0  0  0  0  0  0
   -2.8875    3.7141   -5.6985 H   0  0  0  0  0  0  0  0  0  0  0  0
    1.5004   -1.2505    0.4887 N   0  0  0  0  0  0  0  0  0  0  0  0
    2.3915   -1.9190    1.4095 C   0  0  2  0  0  0  0  0  0  0  0  0
    3.6660   -1.0920    1.5148 C   0  0  0  0  0  0  0  0  0  0  0  0
    4.0252   -0.2998    0.6462 O   0  0  0  0  0  0  0  0  0  0  0  0
    2.6993   -3.3361    0.9513 C   0  0  0  0  0  0  0  0  0  0  0  0
    1.0852   -1.7949   -0.2616 H   0  0  0  0  0  0  0  0  0  0  0  0
    1.8862   -1.9376    2.3813 H   0  0  0  0  0  0  0  0  0  0  0  0
    3.2058   -3.3376   -0.0208 H   0  0  0  0  0  0  0  0  0  0  0  0
    3.3515   -3.8508    1.6646 H   0  0  0  0  0  0  0  0  0  0  0  0
    1.7789   -3.9207    0.8475 H   0  0  0  0  0  0  0  0  0  0  0  0
    4.3772   -1.3743    2.6726 N   0  0  0  0  0  0  0  0  0  0  0  0
    5.6280   -0.7288    2.9962 C   0  0  0  0  0  0  0  0  0  0  0  0
    3.9949   -2.0315    3.3462 H   0  0  0  0  0  0  0  0  0  0  0  0
    6.4635   -1.3368    2.6189 H   0  0  0  0  0  0  0  0  0  0  0  0
    5.6586    0.2665    2.5287 H   0  0  0  0  0  0  0  0  0  0  0  0
    5.7147   -0.6239    4.0878 H   0  0  0  0  0  0  0  0  0  0  0  0
 23 25  2  0  0  0  0
 22 23  1  0  0  0  0
 24 26  1  0  0  0  0
 22 24  2  0  0  0  0
 25 27  1  0  0  0  0
 26 27  2  0  0  0  0
 21 22  1  0  0  0  0
 27 28  1  0  0  0  0
  1  3  1  0  0  0  0
  1  7  1  0  0  0  0
  1  2  2  0  0  0  0
 39 40  1  0  0  0  0
 40 48  1  0  0  0  0
 40 41  2  0  0  0  0
  8  9  1  0  0  0  0
  9 17  1  0  0  0  0
  9 10  2  0  0  0  0
 18 19  1  0  0  0  0
 19 38  1  0  0  0  0
 19 20  2  0  0  0  0
 39 42  1  0  0  0  0
  8 11  1  0  0  0  0
 48 49  1  0  0  0  0
 18 21  1  0  0  0  0
 38 39  1  0  0  0  0
  7  8  1  0  0  0  0
 17 18  1  0  0  0  0
 23 33  1  0  0  0  0
 24 34  1  0  0  0  0
 25 35  1  0  0  0  0
 26 36  1  0  0  0  0
  3  4  1  0  0  0  0
  3  5  1  0  0  0  0
  3  6  1  0  0  0  0
 42 45  1  0  0  0  0
 42 46  1  0  0  0  0
 42 47  1  0  0  0  0
 11 14  1  0  0  0  0
 11 15  1  0  0  0  0
 11 16  1  0  0  0  0
 49 51  1  0  0  0  0
 49 52  1  0  0  0  0
 49 53  1  0  0  0  0
 21 31  1  0  0  0  0
 21 32  1  0  0  0  0
 39 44  1  0  0  0  0
  8 13  1  0  0  0  0
 18 30  1  0  0  0  0
 48 50  1  0  0  0  0
  7 12  1  0  0  0  0
 38 43  1  0  0  0  0
 17 29  1  0  0  0  0
 28 37  1  0  0  0  0
M  END
$$$$

  -OEChem-05262214473D

 53 53  0     1  0  0  0  0  0999 V2000
   -1.9298    0.2574    3.9747 C   0  0  0  0  0  0  0  0  0  0  0  0
   -0.9825   -0.3573    3.4990 O   0  0  0  0  0  0  0  0  0  0  0  0
   -2.3617   -0.0250    5.3754 C   0  0  0  0  0  0  0  0  0  0  0  0
   -3.1214   -0.8213    5.4288 H   0  0  0  0  0  0  0  0  0  0  0  0
   -1.5305   -0.3726    6.0097 H   0  0  0  0  0  0  0  0  0  0  0  0
   -2.7997    0.8299    5.9150 H   0  0  0  0  0  0  0  0  0  0  0  0
   -2.6795    1.2298    3.3336 N   0  0  0  0  0  0  0  0  0  0  0  0
   -2.4327    1.6559    1.9812 C   0  0  2  0  0  0  0  0  0  0  0  0
   -1.0977    1.0705    1.5400 C   0  0  0  0  0  0  0  0  0  0  0  0
   -0.2256    0.7177    2.3313 O   0  0  0  0  0  0  0  0  0  0  0  0
   -2.4239    3.1726    1.8718 C   0  0  0  0  0  0  0  0  0  0  0  0
   -3.4446    1.6657    3.8454 H   0  0  0  0  0  0  0  0  0  0  0  0
   -3.2368    1.2374    1.3661 H   0  0  0  0  0  0  0  0  0  0  0  0
   -1.6248    3.6099    2.4815 H   0  0  0  0  0  0  0  0  0  0  0  0
   -2.2644    3.4949    0.8375 H   0  0  0  0  0  0  0  0  0  0  0  0
   -3.3741    3.5939    2.2175 H   0  0  0  0  0  0  0  0  0  0  0  0
   -0.9750    1.0274    0.1566 N   0  0  0  0  0  0  0  0  0  0  0  0
    0.2023    0.5266   -0.5070 C   0  0  2  0  0  0  0  0  0  0  0  0
    1.1836    0.0979    0.5780 C   0  0  0  0  0  0  0  0  0  0  0  0
    1.3940    0.7623    1.5905 O   0  0  0  0  0  0  0  0  0  0  0  0
    0.8434    1.5778   -1.4203 C   0  0  0  0  0  0  0  0  0  0  0  0
   -0.0228    1.9273   -2.6058 C   0  0  0  0  0  0  0  0  0  0  0  0
   -0.0361    1.0994   -3.7283 C   0  0  0  0  0  0  0  0  0  0  0  0
   -0.8097    3.0787   -2.5790 C   0  0  0  0  0  0  0  0  0  0  0  0
   -0.8362    1.4228   -4.8240 C   0  0  0  0  0  0  0  0  0  0  0  0
   -1.6098    3.4022   -3.6748 C   0  0  0  0  0  0  0  0  0  0  0  0
   -1.6231    2.5742   -4.7973 C   0  0  0  0  0  0  0  0  0  0  0  0
   -2.4029    2.8903   -5.8672 O   0  0  0  0  0  0  0  0  0  0  0  0
   -1.7582    1.3241   -0.4207 H   0  0  0  0  0  0  0  0  0  0  0  0
   -0.1117   -0.3563   -1.0762 H   0  0  0  0  0  0  0  0  0  0  0  0
    1.8251    1.2302   -1.7698 H   0  0  0  0  0  0  0  0  0  0  0  0
    1.0473    2.4997   -0.8598 H   0  0  0  0  0  0  0  0  0  0  0  0
    0.5737    0.2004   -3.7577 H   0  0  0  0  0  0  0  0  0  0  0  0
   -0.8057    3.7297   -1.7085 H   0  0  0  0  0  0  0  0  0  0  0  0
   -0.8421    0.7739   -5.6958 H   0  0  0  0  0  0  0  0  0  0  0  0
   -2.2202    4.3005   -3.6480 H   0  0  0  0  0  0  0  0  0  0  0  0
   -2.8875    3.7141   -5.6985 H   0  0  0  0  0  0  0  0  0  0  0  0
    1.7559   -1.1363    0.3027 N   0  0  0  0  0  0  0  0  0  0  0  0
    2.7038   -1.7849    1.1800 C   0  0  2  0  0  0  0  0  0  0  0  0
    3.7894   -0.7752    1.5283 C   0  0  0  0  0  0  0  0  0  0  0  0
    4.0403    0.2068    0.8327 O   0  0  0  0  0  0  0  0  0  0  0  0
    3.3015   -3.0232    0.5303 C   0  0  0  0  0  0  0  0  0  0  0  0
    1.4954   -1.6074   -0.5587 H   0  0  0  0  0  0  0  0  0  0  0  0
    2.1566   -2.0614    2.0878 H   0  0  0  0  0  0  0  0  0  0  0  0
    3.8537   -2.7660   -0.3809 H   0  0  0  0  0  0  0  0  0  0  0  0
    3.9979   -3.5294    1.2070 H   0  0  0  0  0  0  0  0  0  0  0  0
    2.5166   -3.7354    0.2535 H   0  0  0  0  0  0  0  0  0  0  0  0
    4.4740   -1.1228    2.6845 N   0  0  0  0  0  0  0  0  0  0  0  0
    5.5584   -0.3309    3.2164 C   0  0  0  0  0  0  0  0  0  0  0  0
    4.1859   -1.9443    3.2079 H   0  0  0  0  0  0  0  0  0  0  0  0
    6.5145   -0.7057    2.8221 H   0  0  0  0  0  0  0  0  0  0  0  0
    5.4256    0.7196    2.9185 H   0  0  0  0  0  0  0  0  0  0  0  0
    5.5610   -0.4033    4.3140 H   0  0  0  0  0  0  0  0  0  0  0  0
 23 25  2  0  0  0  0
 22 23  1  0  0  0  0
 24 26  1  0  0  0  0
 22 24  2  0  0  0  0
 25 27  1  0  0  0  0
 26 27  2  0  0  0  0
 21 22  1  0  0  0  0
 27 28  1  0  0  0  0
  1  3  1  0  0  0  0
  1  7  1  0  0  0  0
  1  2  2  0  0  0  0
 39 40  1  0  0  0  0
 40 48  1  0  0  0  0
 40 41  2  0  0  0  0
  8  9  1  0  0  0  0
  9 17  1  0  0  0  0
  9 10  2  0  0  0  0
 18 19  1  0  0  0  0
 19 38  1  0  0  0  0
 19 20  2  0  0  0  0
 39 42  1  0  0  0  0
  8 11  1  0  0  0  0
 48 49  1  0  0  0  0
 18 21  1  0  0  0  0
 38 39  1  0  0  0  0
  7  8  1  0  0  0  0
 17 18  1  0  0  0  0
 23 33  1  0  0  0  0
 24 34  1  0  0  0  0
 25 35  1  0  0  0  0
 26 36  1  0  0  0  0
  3  4  1  0  0  0  0
  3  5  1  0  0  0  0
  3  6  1  0  0  0  0
 42 45  1  0  0  0  0
 42 46  1  0  0  0  0
 42 47  1  0  0  0  0
 11 14  1  0  0  0  0
 11 15  1  0  0  0  0
 11 16  1  0  0  0  0
 49 51  1  0  0  0  0
 49 52  1  0  0  0  0
 49 53  1  0  0  0  0
 21 31  1  0  0  0  0
 21 32  1  0  0  0  0
 39 44  1  0  0  0  0
  8 13  1  0  0  0  0
 18 30  1  0  0  0  0
 48 50  1  0  0  0  0
  7 12  1  0  0  0  0
 38 43  1  0  0  0  0
 17 29  1  0  0  0  0
 28 37  1  0  0  0  0
M  END
$$$$

  -OEChem-05262214473D

 53 53  0     1  0  0  0  0  0999 V2000
   -1.9298    0.2574    3.9747 C   0  0  0  0  0  0  0  0  0  0  0  0
   -0.9825   -0.3573    3.4990 O   0  0  0  0  0  0  0  0  0  0  0  0
   -2.3617   -0.0250    5.3754 C   0  0  0  0  0  0  0  0  0  0  0  0
   -3.1214   -0.8213    5.4288 H   0  0  0  0  0  0  0  0  0  0  0  0
   -1.5305   -0.3726    6.0097 H   0  0  0  0  0  0  0  0  0  0  0  0
   -2.7997    0.8299    5.9150 H   0  0  0  0  0  0  0  0  0  0  0  0
   -2.6795    1.2298    3.3336 N   0  0  0  0  0  0  0  0  0  0  0  0
   -2.4327    1.6559    1.9812 C   0  0  2  0  0  0  0  0  0  0  0  0
   -1.0977    1.0705    1.5400 C   0  0  0  0  0  0  0  0  0  0  0  0
   -0.2256    0.7177    2.3313 O   0  0  0  0  0  0  0  0  0  0  0  0
   -2.4239    3.1726    1.8718 C   0  0  0  0  0  0  0  0  0  0  0  0
   -3.4446    1.6657    3.8454 H   0  0  0  0  0  0  0  0  0  0  0  0
   -3.2368    1.2374    1.3661 H   0  0  0  0  0  0  0  0  0  0  0  0
   -1.6248    3.6099    2.4815 H   0  0  0  0  0  0  0  0  0  0  0  0
   -2.2644    3.4949    0.8375 H   0  0  0  0  0  0  0  0  0  0  0  0
   -3.3741    3.5939    2.2175 H   0  0  0  0  0  0  0  0  0  0  0  0
   -0.9750    1.0274    0.1566 N   0  0  0  0  0  0  0  0  0  0  0  0
    0.2023    0.5266   -0.5070 C   0  0  2  0  0  0  0  0  0  0  0  0
    1.1836    0.0979    0.5780 C   0  0  0  0  0  0  0  0  0  0  0  0
    1.2054    0.6033    1.6982 O   0  0  0  0  0  0  0  0  0  0  0  0
    0.8434    1.5778   -1.4203 C   0  0  0  0  0  0  0  0  0  0  0  0
   -0.0228    1.9273   -2.6058 C   0  0  0  0  0  0  0  0  0  0  0  0
   -0.0361    1.0994   -3.7283 C   0  0  0  0  0  0  0  0  0  0  0  0
   -0.8097    3.0787   -2.5790 C   0  0  0  0  0  0  0  0  0  0  0  0
   -0.8362    1.4228   -4.8240 C   0  0  0  0  0  0  0  0  0  0  0  0
   -1.6098    3.4022   -3.6748 C   0  0  0  0  0  0  0  0  0  0  0  0
   -1.6231    2.5742   -4.7973 C   0  0  0  0  0  0  0  0  0  0  0  0
   -2.4029    2.8903   -5.8672 O   0  0  0  0  0  0  0  0  0  0  0  0
   -1.7582    1.3241   -0.4207 H   0  0  0  0  0  0  0  0  0  0  0  0
   -0.1117   -0.3563   -1.0762 H   0  0  0  0  0  0  0  0  0  0  0  0
    1.8251    1.2302   -1.7698 H   0  0  0  0  0  0  0  0  0  0  0  0
    1.0473    2.4997   -0.8598 H   0  0  0  0  0  0  0  0  0  0  0  0
    0.5737    0.2004   -3.7577 H   0  0  0  0  0  0  0  0  0  0  0  0
   -0.8057    3.7297   -1.7085 H   0  0  0  0  0  0  0  0  0  0  0  0
   -0.8421    0.7739   -5.6958 H   0  0  0  0  0  0  0  0  0  0  0  0
   -2.2202    4.3005   -3.6480 H   0  0  0  0  0  0  0  0  0  0  0  0
   -2.8875    3.7141   -5.6985 H   0  0  0  0  0  0  0  0  0  0  0  0
    1.9952   -0.9480    0.1607 N   0  0  0  0  0  0  0  0  0  0  0  0
    2.9975   -1.5596    1.0034 C   0  0  2  0  0  0  0  0  0  0  0  0
    3.8493   -0.4487    1.6032 C   0  0  0  0  0  0  0  0  0  0  0  0
    3.9480    0.6678    1.0983 O   0  0  0  0  0  0  0  0  0  0  0  0
    3.8561   -2.5400    0.2196 C   0  0  0  0  0  0  0  0  0  0  0  0
    1.8788   -1.3012   -0.7845 H   0  0  0  0  0  0  0  0  0  0  0  0
    2.4619   -2.0823    1.8034 H   0  0  0  0  0  0  0  0  0  0  0  0
    4.4004   -2.0345   -0.5864 H   0  0  0  0  0  0  0  0  0  0  0  0
    4.5963   -3.0236    0.8656 H   0  0  0  0  0  0  0  0  0  0  0  0
    3.2383   -3.3215   -0.2357 H   0  0  0  0  0  0  0  0  0  0  0  0
    4.5203   -0.8640    2.7449 N   0  0  0  0  0  0  0  0  0  0  0  0
    5.4019    0.0038    3.4902 C   0  0  0  0  0  0  0  0  0  0  0  0
    4.3643   -1.8018    3.1028 H   0  0  0  0  0  0  0  0  0  0  0  0
    6.4328   -0.1206    3.1272 H   0  0  0  0  0  0  0  0  0  0  0  0
    5.0888    1.0494    3.3534 H   0  0  0  0  0  0  0  0  0  0  0  0
    5.3555   -0.2561    4.5581 H   0  0  0  0  0  0  0  0  0  0  0  0
 23 25  2  0  0  0  0
 22 23  1  0  0  0  0
 24 26  1  0  0  0  0
 22 24  2  0  0  0  0
 25 27  1  0  0  0  0
 26 27  2  0  0  0  0
 21 22  1  0  0  0  0
 27 28  1  0  0  0  0
  1  3  1  0  0  0  0
  1  7  1  0  0  0  0
  1  2  2  0  0  0  0
 39 40  1  0  0  0  0
 40 48  1  0  0  0  0
 40 41  2  0  0  0  0
  8  9  1  0  0  0  0
  9 17  1  0  0  0  0
  9 10  2  0  0  0  0
 18 19  1  0  0  0  0
 19 38  1  0  0  0  0
 19 20  2  0  0  0  0
 39 42  1  0  0  0  0
  8 11  1  0  0  0  0
 48 49  1  0  0  0  0
 18 21  1  0  0  0  0
 38 39  1  0  0  0  0
  7  8  1  0  0  0  0
 17 18  1  0  0  0  0
 23 33  1  0  0  0  0
 24 34  1  0  0  0  0
 25 35  1  0  0  0  0
 26 36  1  0  0  0  0
  3  4  1  0  0  0  0
  3  5  1  0  0  0  0
  3  6  1  0  0  0  0
 42 45  1  0  0  0  0
 42 46  1  0  0  0  0
 42 47  1  0  0  0  0
 11 14  1  0  0  0  0
 11 15  1  0  0  0  0
 11 16  1  0  0  0  0
 49 51  1  0  0  0  0
 49 52  1  0  0  0  0
 49 53  1  0  0  0  0
 21 31  1  0  0  0  0
 21 32  1  0  0  0  0
 39 44  1  0  0  0  0
  8 13  1  0  0  0  0
 18 30  1  0  0  0  0
 48 50  1  0  0  0  0
  7 12  1  0  0  0  0
 38 43  1  0  0  0  0
 17 29  1  0  0  0  0
 28 37  1  0  0  0  0
M  END
$$$$

  -OEChem-05262214473D

 53 53  0     1  0  0  0  0  0999 V2000
   -1.9298    0.2574    3.9747 C   0  0  0  0  0  0  0  0  0  0  0  0
   -0.9825   -0.3573    3.4990 O   0  0  0  0  0  0  0  0  0  0  0  0
   -2.3617   -0.0250    5.3754 C   0  0  0  0  0  0  0  0  0  0  0  0
   -3.1214   -0.8213    5.4288 H   0  0  0  0  0  0  0  0  0  0  0  0
   -1.5305   -0.3726    6.0097 H   0  0  0  0  0  0  0  0  0  0  0  0
   -2.7997    0.8299    5.9150 H   0  0  0  0  0  0  0  0  0  0  0  0
   -2.6795    1.2298    3.3336 N   0  0  0  0  0  0  0  0  0  0  0  0
   -2.4327    1.6559    1.9812 C   0  0  2  0  0  0  0  0  0  0  0  0
   -1.0977    1.0705    1.5400 C   0  0  0  0  0  0  0  0  0  0  0  0
   -0.2256    0.7177    2.3313 O   0  0  0  0  0  0  0  0  0  0  0  0
   -2.4239    3.1726    1.8718 C   0  0  0  0  0  0  0  0  0  0  0  0
   -3.4446    1.6657    3.8454 H   0  0  0  0  0  0  0  0  0  0  0  0
   -3.2368    1.2374    1.3661 H   0  0  0  0  0  0  0  0  0  0  0  0
   -1.6248    3.6099    2.4815 H   0  0  0  0  0  0  0  0  0  0  0  0
   -2.2644    3.4949    0.8375 H   0  0  0  0  0  0  0  0  0  0  0  0
   -3.3741    3.5939    2.2175 H   0  0  0  0  0  0  0  0  0  0  0  0
   -0.9750    1.0274    0.1566 N   0  0  0  0  0  0  0  0  0  0  0  0
    0.2023    0.5266   -0.5070 C   0  0  2  0  0  0  0  0  0  0  0  0
    1.1836    0.0979    0.5780 C   0  0  0  0  0  0  0  0  0  0  0  0
    1.0447    0.3971    1.7621 O   0  0  0  0  0  0  0  0  0  0  0  0
    0.8434    1.5778   -1.4203 C   0  0  0  0  0  0  0  0  0  0  0  0
   -0.0228    1.9273   -2.6058 C   0  0  0  0  0  0  0  0  0  0  0  0
   -0.0361    1.0994   -3.7283 C   0  0  0  0  0  0  0  0  0  0  0  0
   -0.8097    3.0787   -2.5790 C   0  0  0  0  0  0  0  0  0  0  0  0
   -0.8362    1.4228   -4.8240 C   0  0  0  0  0  0  0  0  0  0  0  0
   -1.6098    3.4022   -3.6748 C   0  0  0  0  0  0  0  0  0  0  0  0
   -1.6231    2.5742   -4.7973 C   0  0  0  0  0  0  0  0  0  0  0  0
   -2.4029    2.8903   -5.8672 O   0  0  0  0  0  0  0  0  0  0  0  0
   -1.7582    1.3241   -0.4207 H   0  0  0  0  0  0  0  0  0  0  0  0
   -0.1117   -0.3563   -1.0762 H   0  0  0  0  0  0  0  0  0  0  0  0
    1.8251    1.2302   -1.7698 H   0  0  0  0  0  0  0  0  0  0  0  0
    1.0473    2.4997   -0.8598 H   0  0  0  0  0  0  0  0  0  0  0  0
    0.5737    0.2004   -3.7577 H   0  0  0  0  0  0  0  0  0  0  0  0
   -0.8057    3.7297   -1.7085 H   0  0  0  0  0  0  0  0  0  0  0  0
   -0.8421    0.7739   -5.6958 H   0  0  0  0  0  0  0  0  0  0  0  0
   -2.2202    4.3005   -3.6480 H   0  0  0  0  0  0  0  0  0  0  0  0
   -2.8875    3.7141   -5.6985 H   0  0  0  0  0  0  0  0  0  0  0  0
    2.2020   -0.6983    0.0724 N   0  0  0  0  0  0  0  0  0  0  0  0
    3.2525   -1.2584    0.8918 C   0  0  2  0  0  0  0  0  0  0  0  0
    3.8415   -0.1347    1.7343 C   0  0  0  0  0  0  0  0  0  0  0  0
    3.7546    1.0518    1.4250 O   0  0  0  0  0  0  0  0  0  0  0  0
    4.3254   -1.9193    0.0404 C   0  0  0  0  0  0  0  0  0  0  0  0
    2.2092   -0.8973   -0.9237 H   0  0  0  0  0  0  0  0  0  0  0  0
    2.7814   -1.9988    1.5475 H   0  0  0  0  0  0  0  0  0  0  0  0
    4.8087   -1.1929   -0.6231 H   0  0  0  0  0  0  0  0  0  0  0  0
    5.1060   -2.3680    0.6637 H   0  0  0  0  0  0  0  0  0  0  0  0
    3.8948   -2.7073   -0.5868 H   0  0  0  0  0  0  0  0  0  0  0  0
    4.5129   -0.6156    2.8497 N   0  0  0  0  0  0  0  0  0  0  0  0
    5.1691    0.2527    3.7991 C   0  0  0  0  0  0  0  0  0  0  0  0
    4.5182   -1.6138    3.0379 H   0  0  0  0  0  0  0  0  0  0  0  0
    6.2239    0.3787    3.5134 H   0  0  0  0  0  0  0  0  0  0  0  0
    4.6710    1.2334    3.8040 H   0  0  0  0  0  0  0  0  0  0  0  0
    5.1121   -0.1926    4.8034 H   0  0  0  0  0  0  0  0  0  0  0  0
 23 25  2  0  0  0  0
 22 23  1  0  0  0  0
 24 26  1  0  0  0  0
 22 24  2  0  0  0  0
 25 27  1  0  0  0  0
 26 27  2  0  0  0  0
 21 22  1  0  0  0  0
 27 28  1  0  0  0  0
  1  3  1  0  0  0  0
  1  7  1  0  0  0  0
  1  2  2  0  0  0  0
 39 40  1  0  0  0  0
 40 48  1  0  0  0  0
 40 41  2  0  0  0  0
  8  9  1  0  0  0  0
  9 17  1  0  0  0  0
  9 10  2  0  0  0  0
 18 19  1  0  0  0  0
 19 38  1  0  0  0  0
 19 20  2  0  0  0  0
 39 42  1  0  0  0  0
  8 11  1  0  0  0  0
 48 49  1  0  0  0  0
 18 21  1  0  0  0  0
 38 39  1  0  0  0  0
  7  8  1  0  0  0  0
 17 18  1  0  0  0  0
 23 33  1  0  0  0  0
 24 34  1  0  0  0  0
 25 35  1  0  0  0  0
 26 36  1  0  0  0  0
  3  4  1  0  0  0  0
  3  5  1  0  0  0  0
  3  6  1  0  0  0  0
 42 45  1  0  0  0  0
 42 46  1  0  0  0  0
 42 47  1  0  0  0  0
 11 14  1  0  0  0  0
 11 15  1  0  0  0  0
 11 16  1  0  0  0  0
 49 51  1  0  0  0  0
 49 52  1  0  0  0  0
 49 53  1  0  0  0  0
 21 31  1  0  0  0  0
 21 32  1  0  0  0  0
 39 44  1  0  0  0  0
  8 13  1  0  0  0  0
 18 30  1  0  0  0  0
 48 50  1  0  0  0  0
  7 12  1  0  0  0  0
 38 43  1  0  0  0  0
 17 29  1  0  0  0  0
 28 37  1  0  0  0  0
M  END
$$$$

  -OEChem-05262214473D

 53 53  0     1  0  0  0  0  0999 V2000
   -1.9298    0.2574    3.9747 C   0  0  0  0  0  0  0  0  0  0  0  0
   -0.9825   -0.3573    3.4990 O   0  0  0  0  0  0  0  0  0  0  0  0
   -2.3617   -0.0250    5.3754 C   0  0  0  0  0  0  0  0  0  0  0  0
   -3.1214   -0.8213    5.4288 H   0  0  0  0  0  0  0  0  0  0  0  0
   -1.5305   -0.3726    6.0097 H   0  0  0  0  0  0  0  0  0  0  0  0
   -2.7997    0.8299    5.9150 H   0  0  0  0  0  0  0  0  0  0  0  0
   -2.6795    1.2298    3.3336 N   0  0  0  0  0  0  0  0  0  0  0  0
   -2.4327    1.6559    1.9812 C   0  0  2  0  0  0  0  0  0  0  0  0
   -1.0977    1.0705    1.5400 C   0  0  0  0  0  0  0  0  0  0  0  0
   -0.2256    0.7177    2.3313 O   0  0  0  0  0  0  0  0  0  0  0  0
   -2.4239    3.1726    1.8718 C   0  0  0  0  0  0  0  0  0  0  0  0
   -3.4446    1.6657    3.8454 H   0  0  0  0  0  0  0  0  0  0  0  0
   -3.2368    1.2374    1.3661 H   0  0  0  0  0  0  0  0  0  0  0  0
   -1.6248    3.6099    2.4815 H   0  0  0  0  0  0  0  0  0  0  0  0
   -2.2644    3.4949    0.8375 H   0  0  0  0  0  0  0  0  0  0  0  0
   -3.3741    3.5939    2.2175 H   0  0  0  0  0  0  0  0  0  0  0  0
   -0.9750    1.0274    0.1566 N   0  0  0  0  0  0  0  0  0  0  0  0
    0.2023    0.5266   -0.5070 C   0  0  2  0  0  0  0  0  0  0  0  0
    1.0141   -0.2392    0.5316 C   0  0  0  0  0  0  0  0  0  0  0  0
    0.6394   -0.3948    1.6919 O   0  0  0  0  0  0  0  0  0  0  0  0
    1.0451    1.6518   -1.1184 C   0  0  0  0  0  0  0  0  0  0  0  0
    0.3488    2.3466   -2.2630 C   0  0  0  0  0  0  0  0  0  0  0  0
    0.3603    1.7764   -3.5360 C   0  0  0  0  0  0  0  0  0  0  0  0
   -0.3058    3.5594   -2.0480 C   0  0  0  0  0  0  0  0  0  0  0  0
   -0.2828    2.4189   -4.5939 C   0  0  0  0  0  0  0  0  0  0  0  0
   -0.9489    4.2020   -3.1059 C   0  0  0  0  0  0  0  0  0  0  0  0
   -0.9374    3.6317   -4.3789 C   0  0  0  0  0  0  0  0  0  0  0  0
   -1.5637    4.2592   -5.4116 O   0  0  0  0  0  0  0  0  0  0  0  0
   -1.7582    1.3241   -0.4207 H   0  0  0  0  0  0  0  0  0  0  0  0
   -0.1463   -0.1722   -1.2766 H   0  0  0  0  0  0  0  0  0  0  0  0
    2.0134    1.2601   -1.4581 H   0  0  0  0  0  0  0  0  0  0  0  0
    1.2900    2.4044   -0.3573 H   0  0  0  0  0  0  0  0  0  0  0  0
    0.8678    0.8318   -3.7125 H   0  0  0  0  0  0  0  0  0  0  0  0
   -0.3201    4.0110   -1.0594 H   0  0  0  0  0  0  0  0  0  0  0  0
   -0.2700    1.9698   -5.5834 H   0  0  0  0  0  0  0  0  0  0  0  0
   -1.4567    5.1465   -2.9321 H   0  0  0  0  0  0  0  0  0  0  0  0
   -1.9700    5.0859   -5.1061 H   0  0  0  0  0  0  0  0  0  0  0  0
    2.1791   -0.7682   -0.0064 N   0  0  0  0  0  0  0  0  0  0  0  0
    3.1185   -1.5579    0.7569 C   0  0  2  0  0  0  0  0  0  0  0  0
    3.4359   -0.8010    2.0398 C   0  0  0  0  0  0  0  0  0  0  0  0
    3.2884    0.4139    2.1559 O   0  0  0  0  0  0  0  0  0  0  0  0
    4.3847   -1.8336   -0.0389 C   0  0  0  0  0  0  0  0  0  0  0  0
    2.3817   -0.5913   -0.9859 H   0  0  0  0  0  0  0  0  0  0  0  0
    2.6143   -2.4989    1.0026 H   0  0  0  0  0  0  0  0  0  0  0  0
    4.9036   -0.9025   -0.2943 H   0  0  0  0  0  0  0  0  0  0  0  0
    5.0833   -2.4559    0.5300 H   0  0  0  0  0  0  0  0  0  0  0  0
    4.1513   -2.3517   -0.9754 H   0  0  0  0  0  0  0  0  0  0  0  0
    3.9439   -1.6351    3.0258 N   0  0  0  0  0  0  0  0  0  0  0  0
    4.3333   -1.1530    4.3304 C   0  0  0  0  0  0  0  0  0  0  0  0
    4.0141   -2.6329    2.8489 H   0  0  0  0  0  0  0  0  0  0  0  0
    5.4043   -0.9021    4.3245 H   0  0  0  0  0  0  0  0  0  0  0  0
    3.7480   -0.2556    4.5793 H   0  0  0  0  0  0  0  0  0  0  0  0
    4.1440   -1.9342    5.0814 H   0  0  0  0  0  0  0  0  0  0  0  0
 23 25  2  0  0  0  0
 22 23  1  0  0  0  0
 24 26  1  0  0  0  0
 22 24  2  0  0  0  0
 25 27  1  0  0  0  0
 26 27  2  0  0  0  0
 21 22  1  0  0  0  0
 27 28  1  0  0  0  0
  1  3  1  0  0  0  0
  1  7  1  0  0  0  0
  1  2  2  0  0  0  0
 39 40  1  0  0  0  0
 40 48  1  0  0  0  0
 40 41  2  0  0  0  0
  8  9  1  0  0  0  0
  9 17  1  0  0  0  0
  9 10  2  0  0  0  0
 18 19  1  0  0  0  0
 19 38  1  0  0  0  0
 19 20  2  0  0  0  0
 39 42  1  0  0  0  0
  8 11  1  0  0  0  0
 48 49  1  0  0  0  0
 18 21  1  0  0  0  0
 38 39  1  0  0  0  0
  7  8  1  0  0  0  0
 17 18  1  0  0  0  0
 23 33  1  0  0  0  0
 24 34  1  0  0  0  0
 25 35  1  0  0  0  0
 26 36  1  0  0  0  0
  3  4  1  0  0  0  0
  3  5  1  0  0  0  0
  3  6  1  0  0  0  0
 42 45  1  0  0  0  0
 42 46  1  0  0  0  0
 42 47  1  0  0  0  0
 11 14  1  0  0  0  0
 11 15  1  0  0  0  0
 11 16  1  0  0  0  0
 49 51  1  0  0  0  0
 49 52  1  0  0  0  0
 49 53  1  0  0  0  0
 21 31  1  0  0  0  0
 21 32  1  0  0  0  0
 39 44  1  0  0  0  0
  8 13  1  0  0  0  0
 18 30  1  0  0  0  0
 48 50  1  0  0  0  0
  7 12  1  0  0  0  0
 38 43  1  0  0  0  0
 17 29  1  0  0  0  0
 28 37  1  0  0  0  0
M  END
$$$$

  -OEChem-05262214473D

 53 53  0     1  0  0  0  0  0999 V2000
   -1.9298    0.2574    3.9747 C   0  0  0  0  0  0  0  0  0  0  0  0
   -0.9825   -0.3573    3.4990 O   0  0  0  0  0  0  0  0  0  0  0  0
   -2.3617   -0.0250    5.3754 C   0  0  0  0  0  0  0  0  0  0  0  0
   -3.1214   -0.8213    5.4288 H   0  0  0  0  0  0  0  0  0  0  0  0
   -1.5305   -0.3726    6.0097 H   0  0  0  0  0  0  0  0  0  0  0  0
   -2.7997    0.8299    5.9150 H   0  0  0  0  0  0  0  0  0  0  0  0
   -2.6795    1.2298    3.3336 N   0  0  0  0  0  0  0  0  0  0  0  0
   -2.4327    1.6559    1.9812 C   0  0  2  0  0  0  0  0  0  0  0  0
   -1.0977    1.0705    1.5400 C   0  0  0  0  0  0  0  0  0  0  0  0
   -0.2256    0.7177    2.3313 O   0  0  0  0  0  0  0  0  0  0  0  0
   -2.4239    3.1726    1.8718 C   0  0  0  0  0  0  0  0  0  0  0  0
   -3.4446    1.6657    3.8454 H   0  0  0  0  0  0  0  0  0  0  0  0
   -3.2368    1.2374    1.3661 H   0  0  0  0  0  0  0  0  0  0  0  0
   -1.6248    3.6099    2.4815 H   0  0  0  0  0  0  0  0  0  0  0  0
   -2.2644    3.4949    0.8375 H   0  0  0  0  0  0  0  0  0  0  0  0
   -3.3741    3.5939    2.2175 H   0  0  0  0  0  0  0  0  0  0  0  0
   -0.9750    1.0274    0.1566 N   0  0  0  0  0  0  0  0  0  0  0  0
    0.2023    0.5266   -0.5070 C   0  0  2  0  0  0  0  0  0  0  0  0
    1.0141   -0.2392    0.5316 C   0  0  0  0  0  0  0  0  0  0  0  0
    0.5409   -0.6269    1.5977 O   0  0  0  0  0  0  0  0  0  0  0  0
    1.0451    1.6518   -1.1184 C   0  0  0  0  0  0  0  0  0  0  0  0
    0.3488    2.3466   -2.2630 C   0  0  0  0  0  0  0  0  0  0  0  0
    0.3603    1.7764   -3.5360 C   0  0  0  0  0  0  0  0  0  0  0  0
   -0.3058    3.5594   -2.0480 C   0  0  0  0  0  0  0  0  0  0  0  0
   -0.2828    2.4189   -4.5939 C   0  0  0  0  0  0  0  0  0  0  0  0
   -0.9489    4.2020   -3.1059 C   0  0  0  0  0  0  0  0  0  0  0  0
   -0.9374    3.6317   -4.3789 C   0  0  0  0  0  0  0  0  0  0  0  0
   -1.5637    4.2592   -5.4116 O   0  0  0  0  0  0  0  0  0  0  0  0
   -1.7582    1.3241   -0.4207 H   0  0  0  0  0  0  0  0  0  0  0  0
   -0.1463   -0.1722   -1.2766 H   0  0  0  0  0  0  0  0  0  0  0  0
    2.0134    1.2601   -1.4581 H   0  0  0  0  0  0  0  0  0  0  0  0
    1.2900    2.4044   -0.3573 H   0  0  0  0  0  0  0  0  0  0  0  0
    0.8678    0.8318   -3.7125 H   0  0  0  0  0  0  0  0  0  0  0  0
   -0.3201    4.0110   -1.0594 H   0  0  0  0  0  0  0  0  0  0  0  0
   -0.2700    1.9698   -5.5834 H   0  0  0  0  0  0  0  0  0  0  0  0
   -1.4567    5.1465   -2.9321 H   0  0  0  0  0  0  0  0  0  0  0  0
   -1.9700    5.0859   -5.1061 H   0  0  0  0  0  0  0  0  0  0  0  0
    2.3120   -0.4795    0.1025 N   0  0  0  0  0  0  0  0  0  0  0  0
    3.2851   -1.2061    0.8860 C   0  0  2  0  0  0  0  0  0  0  0  0
    3.3035   -0.6072    2.2862 C   0  0  0  0  0  0  0  0  0  0  0  0
    2.9207    0.5347    2.5324 O   0  0  0  0  0  0  0  0  0  0  0  0
    4.6652   -1.1441    0.2502 C   0  0  0  0  0  0  0  0  0  0  0  0
    2.5921   -0.1268   -0.8079 H   0  0  0  0  0  0  0  0  0  0  0  0
    2.9389   -2.2442    0.9367 H   0  0  0  0  0  0  0  0  0  0  0  0
    5.0288   -0.1118    0.1908 H   0  0  0  0  0  0  0  0  0  0  0  0
    5.3952   -1.7188    0.8297 H   0  0  0  0  0  0  0  0  0  0  0  0
    4.6438   -1.5480   -0.7677 H   0  0  0  0  0  0  0  0  0  0  0  0
    3.8377   -1.4826    3.2213 N   0  0  0  0  0  0  0  0  0  0  0  0
    3.9748   -1.1426    4.6183 C   0  0  0  0  0  0  0  0  0  0  0  0
    4.1121   -2.4167    2.9317 H   0  0  0  0  0  0  0  0  0  0  0  0
    4.9738   -0.7181    4.7966 H   0  0  0  0  0  0  0  0  0  0  0  0
    3.2081   -0.4031    4.8926 H   0  0  0  0  0  0  0  0  0  0  0  0
    3.8466   -2.0478    5.2301 H   0  0  0  0  0  0  0  0  0  0  0  0
 23 25  2  0  0  0  0
 22 23  1  0  0  0  0
 24 26  1  0  0  0  0
 22 24  2  0  0  0  0
 25 27  1  0  0  0  0
 26 27  2  0  0  0  0
 21 22  1  0  0  0  0
 27 28  1  0  0  0  0
  1  3  1  0  0  0  0
  1  7  1  0  0  0  0
  1  2  2  0  0  0  0
 39 40  1  0  0  0  0
 40 48  1  0  0  0  0
 40 41  2  0  0  0  0
  8  9  1  0  0  0  0
  9 17  1  0  0  0  0
  9 10  2  0  0  0  0
 18 19  1  0  0  0  0
 19 38  1  0  0  0  0
 19 20  2  0  0  0  0
 39 42  1  0  0  0  0
  8 11  1  0  0  0  0
 48 49  1  0  0  0  0
 18 21  1  0  0  0  0
 38 39  1  0  0  0  0
  7  8  1  0  0  0  0
 17 18  1  0  0  0  0
 23 33  1  0  0  0  0
 24 34  1  0  0  0  0
 25 35  1  0  0  0  0
 26 36  1  0  0  0  0
  3  4  1  0  0  0  0
  3  5  1  0  0  0  0
  3  6  1  0  0  0  0
 42 45  1  0  0  0  0
 42 46  1  0  0  0  0
 42 47  1  0  0  0  0
 11 14  1  0  0  0  0
 11 15  1  0  0  0  0
 11 16  1  0  0  0  0
 49 51  1  0  0  0  0
 49 52  1  0  0  0  0
 49 53  1  0  0  0  0
 21 31  1  0  0  0  0
 21 32  1  0  0  0  0
 39 44  1  0  0  0  0
  8 13  1  0  0  0  0
 18 30  1  0  0  0  0
 48 50  1  0  0  0  0
  7 12  1  0  0  0  0
 38 43  1  0  0  0  0
 17 29  1  0  0  0  0
 28 37  1  0  0  0  0
M  END
$$$$

  -OEChem-05262214473D

 53 53  0     1  0  0  0  0  0999 V2000
   -1.9298    0.2574    3.9747 C   0  0  0  0  0  0  0  0  0  0  0  0
   -0.9825   -0.3573    3.4990 O   0  0  0  0  0  0  0  0  0  0  0  0
   -2.3617   -0.0250    5.3754 C   0  0  0  0  0  0  0  0  0  0  0  0
   -3.1214   -0.8213    5.4288 H   0  0  0  0  0  0  0  0  0  0  0  0
   -1.5305   -0.3726    6.0097 H   0  0  0  0  0  0  0  0  0  0  0  0
   -2.7997    0.8299    5.9150 H   0  0  0  0  0  0  0  0  0  0  0  0
   -2.6795    1.2298    3.3336 N   0  0  0  0  0  0  0  0  0  0  0  0
   -2.4327    1.6559    1.9812 C   0  0  2  0  0  0  0  0  0  0  0  0
   -1.0977    1.0705    1.5400 C   0  0  0  0  0  0  0  0  0  0  0  0
   -0.2256    0.7177    2.3313 O   0  0  0  0  0  0  0  0  0  0  0  0
   -2.4239    3.1726    1.8718 C   0  0  0  0  0  0  0  0  0  0  0  0
   -3.4446    1.6657    3.8454 H   0  0  0  0  0  0  0  0  0  0  0  0
   -3.2368    1.2374    1.3661 H   0  0  0  0  0  0  0  0  0  0  0  0
   -1.6248    3.6099    2.4815 H   0  0  0  0  0  0  0  0  0  0  0  0
   -2.2644    3.4949    0.8375 H   0  0  0  0  0  0  0  0  0  0  0  0
   -3.3741    3.5939    2.2175 H   0  0  0  0  0  0  0  0  0  0  0  0
   -0.9750    1.0274    0.1566 N   0  0  0  0  0  0  0  0  0  0  0  0
    0.2023    0.5266   -0.5070 C   0  0  2  0  0  0  0  0  0  0  0  0
    1.0141   -0.2392    0.5316 C   0  0  0  0  0  0  0  0  0  0  0  0
    0.4989   -0.8555    1.4620 O   0  0  0  0  0  0  0  0  0  0  0  0
    1.0451    1.6518   -1.1184 C   0  0  0  0  0  0  0  0  0  0  0  0
    0.3488    2.3466   -2.2630 C   0  0  0  0  0  0  0  0  0  0  0  0
    0.3603    1.7764   -3.5360 C   0  0  0  0  0  0  0  0  0  0  0  0
   -0.3058    3.5594   -2.0480 C   0  0  0  0  0  0  0  0  0  0  0  0
   -0.2828    2.4189   -4.5939 C   0  0  0  0  0  0  0  0  0  0  0  0
   -0.9489    4.2020   -3.1059 C   0  0  0  0  0  0  0  0  0  0  0  0
   -0.9374    3.6317   -4.3789 C   0  0  0  0  0  0  0  0  0  0  0  0
   -1.5637    4.2592   -5.4116 O   0  0  0  0  0  0  0  0  0  0  0  0
   -1.7582    1.3241   -0.4207 H   0  0  0  0  0  0  0  0  0  0  0  0
   -0.1463   -0.1722   -1.2766 H   0  0  0  0  0  0  0  0  0  0  0  0
    2.0134    1.2601   -1.4581 H   0  0  0  0  0  0  0  0  0  0  0  0
    1.2900    2.4044   -0.3573 H   0  0  0  0  0  0  0  0  0  0  0  0
    0.8678    0.8318   -3.7125 H   0  0  0  0  0  0  0  0  0  0  0  0
   -0.3201    4.0110   -1.0594 H   0  0  0  0  0  0  0  0  0  0  0  0
   -0.2700    1.9698   -5.5834 H   0  0  0  0  0  0  0  0  0  0  0  0
   -1.4567    5.1465   -2.9321 H   0  0  0  0  0  0  0  0  0  0  0  0
   -1.9700    5.0859   -5.1061 H   0  0  0  0  0  0  0  0  0  0  0  0
    2.3754   -0.1922    0.2649 N   0  0  0  0  0  0  0  0  0  0  0  0
    3.3673   -0.8547    1.0809 C   0  0  2  0  0  0  0  0  0  0  0  0
    3.1094   -0.4773    2.5337 C   0  0  0  0  0  0  0  0  0  0  0  0
    2.4952    0.5347    2.8650 O   0  0  0  0  0  0  0  0  0  0  0  0
    4.7769   -0.4685    0.6610 C   0  0  0  0  0  0  0  0  0  0  0  0
    2.6903    0.3344   -0.5446 H   0  0  0  0  0  0  0  0  0  0  0  0
    3.2160   -1.9318    0.9504 H   0  0  0  0  0  0  0  0  0  0  0  0
    4.9472    0.6072    0.7847 H   0  0  0  0  0  0  0  0  0  0  0  0
    5.5275   -0.9931    1.2614 H   0  0  0  0  0  0  0  0  0  0  0  0
    4.9507   -0.7135   -0.3923 H   0  0  0  0  0  0  0  0  0  0  0  0
    3.6829   -1.3808    3.4174 N   0  0  0  0  0  0  0  0  0  0  0  0
    3.5892   -1.2355    4.8513 C   0  0  0  0  0  0  0  0  0  0  0  0
    4.1579   -2.2020    3.0543 H   0  0  0  0  0  0  0  0  0  0  0  0
    4.4642   -0.6814    5.2221 H   0  0  0  0  0  0  0  0  0  0  0  0
    2.6718   -0.6840    5.1046 H   0  0  0  0  0  0  0  0  0  0  0  0
    3.5601   -2.2304    5.3194 H   0  0  0  0  0  0  0  0  0  0  0  0
 23 25  2  0  0  0  0
 22 23  1  0  0  0  0
 24 26  1  0  0  0  0
 22 24  2  0  0  0  0
 25 27  1  0  0  0  0
 26 27  2  0  0  0  0
 21 22  1  0  0  0  0
 27 28  1  0  0  0  0
  1  3  1  0  0  0  0
  1  7  1  0  0  0  0
  1  2  2  0  0  0  0
 39 40  1  0  0  0  0
 40 48  1  0  0  0  0
 40 41  2  0  0  0  0
  8  9  1  0  0  0  0
  9 17  1  0  0  0  0
  9 10  2  0  0  0  0
 18 19  1  0  0  0  0
 19 38  1  0  0  0  0
 19 20  2  0  0  0  0
 39 42  1  0  0  0  0
  8 11  1  0  0  0  0
 48 49  1  0  0  0  0
 18 21  1  0  0  0  0
 38 39  1  0  0  0  0
  7  8  1  0  0  0  0
 17 18  1  0  0  0  0
 23 33  1  0  0  0  0
 24 34  1  0  0  0  0
 25 35  1  0  0  0  0
 26 36  1  0  0  0  0
  3  4  1  0  0  0  0
  3  5  1  0  0  0  0
  3  6  1  0  0  0  0
 42 45  1  0  0  0  0
 42 46  1  0  0  0  0
 42 47  1  0  0  0  0
 11 14  1  0  0  0  0
 11 15  1  0  0  0  0
 11 16  1  0  0  0  0
 49 51  1  0  0  0  0
 49 52  1  0  0  0  0
 49 53  1  0  0  0  0
 21 31  1  0  0  0  0
 21 32  1  0  0  0  0
 39 44  1  0  0  0  0
  8 13  1  0  0  0  0
 18 30  1  0  0  0  0
 48 50  1  0  0  0  0
  7 12  1  0  0  0  0
 38 43  1  0  0  0  0
 17 29  1  0  0  0  0
 28 37  1  0  0  0  0
M  END
$$$$

  -OEChem-05262214473D

 53 53  0     1  0  0  0  0  0999 V2000
   -1.9298    0.2574    3.9747 C   0  0  0  0  0  0  0  0  0  0  0  0
   -0.9825   -0.3573    3.4990 O   0  0  0  0  0  0  0  0  0  0  0  0
   -2.3617   -0.0250    5.3754 C   0  0  0  0  0  0  0  0  0  0  0  0
   -3.1214   -0.8213    5.4288 H   0  0  0  0  0  0  0  0  0  0  0  0
   -1.5305   -0.3726    6.0097 H   0  0  0  0  0  0  0  0  0  0  0  0
   -2.7997    0.8299    5.9150 H   0  0  0  0  0  0  0  0  0  0  0  0
   -2.6795    1.2298    3.3336 N   0  0  0  0  0  0  0  0  0  0  0  0
   -2.4327    1.6559    1.9812 C   0  0  2  0  0  0  0  0  0  0  0  0
   -1.0977    1.0705    1.5400 C   0  0  0  0  0  0  0  0  0  0  0  0
   -0.2256    0.7177    2.3313 O   0  0  0  0  0  0  0  0  0  0  0  0
   -2.4239    3.1726    1.8718 C   0  0  0  0  0  0  0  0  0  0  0  0
   -3.4446    1.6657    3.8454 H   0  0  0  0  0  0  0  0  0  0  0  0
   -3.2368    1.2374    1.3661 H   0  0  0  0  0  0  0  0  0  0  0  0
   -1.6248    3.6099    2.4815 H   0  0  0  0  0  0  0  0  0  0  0  0
   -2.2644    3.4949    0.8375 H   0  0  0  0  0  0  0  0  0  0  0  0
   -3.3741    3.5939    2.2175 H   0  0  0  0  0  0  0  0  0  0  0  0
   -0.9750    1.0274    0.1566 N   0  0  0  0  0  0  0  0  0  0  0  0
    0.2023    0.5266   -0.5070 C   0  0  2  0  0  0  0  0  0  0  0  0
    1.0141   -0.2392    0.5316 C   0  0  0  0  0  0  0  0  0  0  0  0
    0.5163   -1.0650    1.2939 O   0  0  0  0  0  0  0  0  0  0  0  0
    1.0451    1.6518   -1.1184 C   0  0  0  0  0  0  0  0  0  0  0  0
    0.3488    2.3466   -2.2630 C   0  0  0  0  0  0  0  0  0  0  0  0
    0.3603    1.7764   -3.5360 C   0  0  0  0  0  0  0  0  0  0  0  0
   -0.3058    3.5594   -2.0480 C   0  0  0  0  0  0  0  0  0  0  0  0
   -0.2828    2.4189   -4.5939 C   0  0  0  0  0  0  0  0  0  0  0  0
   -0.9489    4.2020   -3.1059 C   0  0  0  0  0  0  0  0  0  0  0  0
   -0.9374    3.6317   -4.3789 C   0  0  0  0  0  0  0  0  0  0  0  0
   -1.5637    4.2592   -5.4116 O   0  0  0  0  0  0  0  0  0  0  0  0
   -1.7582    1.3241   -0.4207 H   0  0  0  0  0  0  0  0  0  0  0  0
   -0.1463   -0.1722   -1.2766 H   0  0  0  0  0  0  0  0  0  0  0  0
    2.0134    1.2601   -1.4581 H   0  0  0  0  0  0  0  0  0  0  0  0
    1.2900    2.4044   -0.3573 H   0  0  0  0  0  0  0  0  0  0  0  0
    0.8678    0.8318   -3.7125 H   0  0  0  0  0  0  0  0  0  0  0  0
   -0.3201    4.0110   -1.0594 H   0  0  0  0  0  0  0  0  0  0  0  0
   -0.2700    1.9698   -5.5834 H   0  0  0  0  0  0  0  0  0  0  0  0
   -1.4567    5.1465   -2.9321 H   0  0  0  0  0  0  0  0  0  0  0  0
   -1.9700    5.0859   -5.1061 H   0  0  0  0  0  0  0  0  0  0  0  0
    2.3648    0.0741    0.4695 N   0  0  0  0  0  0  0  0  0  0  0  0
    3.3593   -0.5277    1.3283 C   0  0  2  0  0  0  0  0  0  0  0  0
    2.8668   -0.4202    2.7654 C   0  0  0  0  0  0  0  0  0  0  0  0
    2.0410    0.4138    3.1309 O   0  0  0  0  0  0  0  0  0  0  0  0
    4.7124    0.1471    1.1655 C   0  0  0  0  0  0  0  0  0  0  0  0
    2.6697    0.7609   -0.2140 H   0  0  0  0  0  0  0  0  0  0  0  0
    3.4268   -1.5832    1.0427 H   0  0  0  0  0  0  0  0  0  0  0  0
    4.6645    1.2054    1.4469 H   0  0  0  0  0  0  0  0  0  0  0  0
    5.4713   -0.3284    1.7955 H   0  0  0  0  0  0  0  0  0  0  0  0
    5.0513    0.0949    0.1252 H   0  0  0  0  0  0  0  0  0  0  0  0
    3.4899   -1.3369    3.6006 N   0  0  0  0  0  0  0  0  0  0  0  0
    3.2029   -1.4252    5.0133 C   0  0  0  0  0  0  0  0  0  0  0  0
    4.1483   -2.0034    3.2082 H   0  0  0  0  0  0  0  0  0  0  0  0
    3.9101   -0.7944    5.5719 H   0  0  0  0  0  0  0  0  0  0  0  0
    2.1758   -1.0790    5.2010 H   0  0  0  0  0  0  0  0  0  0  0  0
    3.3038   -2.4697    5.3433 H   0  0  0  0  0  0  0  0  0  0  0  0
 23 25  2  0  0  0  0
 22 23  1  0  0  0  0
 24 26  1  0  0  0  0
 22 24  2  0  0  0  0
 25 27  1  0  0  0  0
 26 27  2  0  0  0  0
 21 22  1  0  0  0  0
 27 28  1  0  0  0  0
  1  3  1  0  0  0  0
  1  7  1  0  0  0  0
  1  2  2  0  0  0  0
 39 40  1  0  0  0  0
 40 48  1  0  0  0  0
 40 41  2  0  0  0  0
  8  9  1  0  0  0  0
  9 17  1  0  0  0  0
  9 10  2  0  0  0  0
 18 19  1  0  0  0  0
 19 38  1  0  0  0  0
 19 20  2  0  0  0  0
 39 42  1  0  0  0  0
  8 11  1  0  0  0  0
 48 49  1  0  0  0  0
 18 21  1  0  0  0  0
 38 39  1  0  0  0  0
  7  8  1  0  0  0  0
 17 18  1  0  0  0  0
 23 33  1  0  0  0  0
 24 34  1  0  0  0  0
 25 35  1  0  0  0  0
 26 36  1  0  0  0  0
  3  4  1  0  0  0  0
  3  5  1  0  0  0  0
  3  6  1  0  0  0  0
 42 45  1  0  0  0  0
 42 46  1  0  0  0  0
 42 47  1  0  0  0  0
 11 14  1  0  0  0  0
 11 15  1  0  0  0  0
 11 16  1  0  0  0  0
 49 51  1  0  0  0  0
 49 52  1  0  0  0  0
 49 53  1  0  0  0  0
 21 31  1  0  0  0  0
 21 32  1  0  0  0  0
 39 44  1  0  0  0  0
  8 13  1  0  0  0  0
 18 30  1  0  0  0  0
 48 50  1  0  0  0  0
  7 12  1  0  0  0  0
 38 43  1  0  0  0  0
 17 29  1  0  0  0  0
 28 37  1  0  0  0  0
M  END
$$$$

  -OEChem-05262214473D

 53 53  0     1  0  0  0  0  0999 V2000
   -1.9298    0.2574    3.9747 C   0  0  0  0  0  0  0  0  0  0  0  0
   -0.9825   -0.3573    3.4990 O   0  0  0  0  0  0  0  0  0  0  0  0
   -2.3617   -0.0250    5.3754 C   0  0  0  0  0  0  0  0  0  0  0  0
   -3.1214   -0.8213    5.4288 H   0  0  0  0  0  0  0  0  0  0  0  0
   -1.5305   -0.3726    6.0097 H   0  0  0  0  0  0  0  0  0  0  0  0
   -2.7997    0.8299    5.9150 H   0  0  0  0  0  0  0  0  0  0  0  0
   -2.6795    1.2298    3.3336 N   0  0  0  0  0  0  0  0  0  0  0  0
   -2.4327    1.6559    1.9812 C   0  0  2  0  0  0  0  0  0  0  0  0
   -1.0977    1.0705    1.5400 C   0  0  0  0  0  0  0  0  0  0  0  0
   -0.2256    0.7177    2.3313 O   0  0  0  0  0  0  0  0  0  0  0  0
   -2.4239    3.1726    1.8718 C   0  0  0  0  0  0  0  0  0  0  0  0
   -3.4446    1.6657    3.8454 H   0  0  0  0  0  0  0  0  0  0  0  0
   -3.2368    1.2374    1.3661 H   0  0  0  0  0  0  0  0  0  0  0  0
   -1.6248    3.6099    2.4815 H   0  0  0  0  0  0  0  0  0  0  0  0
   -2.2644    3.4949    0.8375 H   0  0  0  0  0  0  0  0  0  0  0  0
   -3.3741    3.5939    2.2175 H   0  0  0  0  0  0  0  0  0  0  0  0
   -0.9750    1.0274    0.1566 N   0  0  0  0  0  0  0  0  0  0  0  0
    0.2023    0.5266   -0.5070 C   0  0  2  0  0  0  0  0  0  0  0  0
    1.0141   -0.2392    0.5316 C   0  0  0  0  0  0  0  0  0  0  0  0
    0.5919   -1.2412    1.1049 O   0  0  0  0  0  0  0  0  0  0  0  0
    1.0451    1.6518   -1.1184 C   0  0  0  0  0  0  0  0  0  0  0  0
    0.3488    2.3466   -2.2630 C   0  0  0  0  0  0  0  0  0  0  0  0
    0.3603    1.7764   -3.5360 C   0  0  0  0  0  0  0  0  0  0  0  0
   -0.3058    3.5594   -2.0480 C   0  0  0  0  0  0  0  0  0  0  0  0
   -0.2828    2.4189   -4.5939 C   0  0  0  0  0  0  0  0  0  0  0  0
   -0.9489    4.2020   -3.1059 C   0  0  0  0  0  0  0  0  0  0  0  0
   -0.9374    3.6317   -4.3789 C   0  0  0  0  0  0  0  0  0  0  0  0
   -1.5637    4.2592   -5.4116 O   0  0  0  0  0  0  0  0  0  0  0  0
   -1.7582    1.3241   -0.4207 H   0  0  0  0  0  0  0  0  0  0  0  0
   -0.1463   -0.1722   -1.2766 H   0  0  0  0  0  0  0  0  0  0  0  0
    2.0134    1.2601   -1.4581 H   0  0  0  0  0  0  0  0  0  0  0  0
    1.2900    2.4044   -0.3573 H   0  0  0  0  0  0  0  0  0  0  0  0
    0.8678    0.8318   -3.7125 H   0  0  0  0  0  0  0  0  0  0  0  0
   -0.3201    4.0110   -1.0594 H   0  0  0  0  0  0  0  0  0  0  0  0
   -0.2700    1.9698   -5.5834 H   0  0  0  0  0  0  0  0  0  0  0  0
   -1.4567    5.1465   -2.9321 H   0  0  0  0  0  0  0  0  0  0  0  0
   -1.9700    5.0859   -5.1061 H   0  0  0  0  0  0  0  0  0  0  0  0
    2.2810    0.3012    0.7024 N   0  0  0  0  0  0  0  0  0  0  0  0
    3.2618   -0.2473    1.6112 C   0  0  2  0  0  0  0  0  0  0  0  0
    2.5923   -0.4397    2.9656 C   0  0  0  0  0  0  0  0  0  0  0  0
    1.5890    0.1804    3.3120 O   0  0  0  0  0  0  0  0  0  0  0  0
    4.4759    0.6609    1.7292 C   0  0  0  0  0  0  0  0  0  0  0  0
    2.5315    1.1237    0.1616 H   0  0  0  0  0  0  0  0  0  0  0  0
    3.5570   -1.2219    1.2074 H   0  0  0  0  0  0  0  0  0  0  0  0
    4.1998    1.6422    2.1321 H   0  0  0  0  0  0  0  0  0  0  0  0
    5.2303    0.2302    2.3958 H   0  0  0  0  0  0  0  0  0  0  0  0
    4.9386    0.8222    0.7495 H   0  0  0  0  0  0  0  0  0  0  0  0
    3.2719   -1.3537    3.7586 N   0  0  0  0  0  0  0  0  0  0  0  0
    2.8421   -1.6990    5.0935 C   0  0  0  0  0  0  0  0  0  0  0  0
    4.0840   -1.8345    3.3830 H   0  0  0  0  0  0  0  0  0  0  0  0
    3.3493   -1.0495    5.8221 H   0  0  0  0  0  0  0  0  0  0  0  0
    1.7538   -1.5614    5.1752 H   0  0  0  0  0  0  0  0  0  0  0  0
    3.0954   -2.7493    5.3000 H   0  0  0  0  0  0  0  0  0  0  0  0
 23 25  2  0  0  0  0
 22 23  1  0  0  0  0
 24 26  1  0  0  0  0
 22 24  2  0  0  0  0
 25 27  1  0  0  0  0
 26 27  2  0  0  0  0
 21 22  1  0  0  0  0
 27 28  1  0  0  0  0
  1  3  1  0  0  0  0
  1  7  1  0  0  0  0
  1  2  2  0  0  0  0
 39 40  1  0  0  0  0
 40 48  1  0  0  0  0
 40 41  2  0  0  0  0
  8  9  1  0  0  0  0
  9 17  1  0  0  0  0
  9 10  2  0  0  0  0
 18 19  1  0  0  0  0
 19 38  1  0  0  0  0
 19 20  2  0  0  0  0
 39 42  1  0  0  0  0
  8 11  1  0  0  0  0
 48 49  1  0  0  0  0
 18 21  1  0  0  0  0
 38 39  1  0  0  0  0
  7  8  1  0  0  0  0
 17 18  1  0  0  0  0
 23 33  1  0  0  0  0
 24 34  1  0  0  0  0
 25 35  1  0  0  0  0
 26 36  1  0  0  0  0
  3  4  1  0  0  0  0
  3  5  1  0  0  0  0
  3  6  1  0  0  0  0
 42 45  1  0  0  0  0
 42 46  1  0  0  0  0
 42 47  1  0  0  0  0
 11 14  1  0  0  0  0
 11 15  1  0  0  0  0
 11 16  1  0  0  0  0
 49 51  1  0  0  0  0
 49 52  1  0  0  0  0
 49 53  1  0  0  0  0
 21 31  1  0  0  0  0
 21 32  1  0  0  0  0
 39 44  1  0  0  0  0
  8 13  1  0  0  0  0
 18 30  1  0  0  0  0
 48 50  1  0  0  0  0
  7 12  1  0  0  0  0
 38 43  1  0  0  0  0
 17 29  1  0  0  0  0
 28 37  1  0  0  0  0
M  END
$$$$

  -OEChem-05262214473D

 53 53  0     1  0  0  0  0  0999 V2000
   -1.9298    0.2574    3.9747 C   0  0  0  0  0  0  0  0  0  0  0  0
   -0.9825   -0.3573    3.4990 O   0  0  0  0  0  0  0  0  0  0  0  0
   -2.3617   -0.0250    5.3754 C   0  0  0  0  0  0  0  0  0  0  0  0
   -3.1214   -0.8213    5.4288 H   0  0  0  0  0  0  0  0  0  0  0  0
   -1.5305   -0.3726    6.0097 H   0  0  0  0  0  0  0  0  0  0  0  0
   -2.7997    0.8299    5.9150 H   0  0  0  0  0  0  0  0  0  0  0  0
   -2.6795    1.2298    3.3336 N   0  0  0  0  0  0  0  0  0  0  0  0
   -2.4327    1.6559    1.9812 C   0  0  2  0  0  0  0  0  0  0  0  0
   -1.0977    1.0705    1.5400 C   0  0  0  0  0  0  0  0  0  0  0  0
   -0.2256    0.7177    2.3313 O   0  0  0  0  0  0  0  0  0  0  0  0
   -2.4239    3.1726    1.8718 C   0  0  0  0  0  0  0  0  0  0  0  0
   -3.4446    1.6657    3.8454 H   0  0  0  0  0  0  0  0  0  0  0  0
   -3.2368    1.2374    1.3661 H   0  0  0  0  0  0  0  0  0  0  0  0
   -1.6248    3.6099    2.4815 H   0  0  0  0  0  0  0  0  0  0  0  0
   -2.2644    3.4949    0.8375 H   0  0  0  0  0  0  0  0  0  0  0  0
   -3.3741    3.5939    2.2175 H   0  0  0  0  0  0  0  0  0  0  0  0
   -0.9750    1.0274    0.1566 N   0  0  0  0  0  0  0  0  0  0  0  0
    0.2023    0.5266   -0.5070 C   0  0  2  0  0  0  0  0  0  0  0  0
    1.0141   -0.2392    0.5316 C   0  0  0  0  0  0  0  0  0  0  0  0
    0.7206   -1.3720    0.9079 O   0  0  0  0  0  0  0  0  0  0  0  0
    1.0451    1.6518   -1.1184 C   0  0  0  0  0  0  0  0  0  0  0  0
    0.3488    2.3466   -2.2630 C   0  0  0  0  0  0  0  0  0  0  0  0
    0.3603    1.7764   -3.5360 C   0  0  0  0  0  0  0  0  0  0  0  0
   -0.3058    3.5594   -2.0480 C   0  0  0  0  0  0  0  0  0  0  0  0
   -0.2828    2.4189   -4.5939 C   0  0  0  0  0  0  0  0  0  0  0  0
   -0.9489    4.2020   -3.1059 C   0  0  0  0  0  0  0  0  0  0  0  0
   -0.9374    3.6317   -4.3789 C   0  0  0  0  0  0  0  0  0  0  0  0
   -1.5637    4.2592   -5.4116 O   0  0  0  0  0  0  0  0  0  0  0  0
   -1.7582    1.3241   -0.4207 H   0  0  0  0  0  0  0  0  0  0  0  0
   -0.1463   -0.1722   -1.2766 H   0  0  0  0  0  0  0  0  0  0  0  0
    2.0134    1.2601   -1.4581 H   0  0  0  0  0  0  0  0  0  0  0  0
    1.2900    2.4044   -0.3573 H   0  0  0  0  0  0  0  0  0  0  0  0
    0.8678    0.8318   -3.7125 H   0  0  0  0  0  0  0  0  0  0  0  0
   -0.3201    4.0110   -1.0594 H   0  0  0  0  0  0  0  0  0  0  0  0
   -0.2700    1.9698   -5.5834 H   0  0  0  0  0  0  0  0  0  0  0  0
   -1.4567    5.1465   -2.9321 H   0  0  0  0  0  0  0  0  0  0  0  0
   -1.9700    5.0859   -5.1061 H   0  0  0  0  0  0  0  0  0  0  0  0
    2.1298    0.4738    0.9479 N   0  0  0  0  0  0  0  0  0  0  0  0
    3.0814   -0.0327    1.9105 C   0  0  2  0  0  0  0  0  0  0  0  0
    2.3046   -0.5346    3.1205 C   0  0  0  0  0  0  0  0  0  0  0  0
    1.1701   -0.1498    3.3960 O   0  0  0  0  0  0  0  0  0  0  0  0
    4.0835    1.0378    2.3137 C   0  0  0  0  0  0  0  0  0  0  0  0
    2.2853    1.3980    0.5563 H   0  0  0  0  0  0  0  0  0  0  0  0
    3.5976   -0.8727    1.4331 H   0  0  0  0  0  0  0  0  0  0  0  0
    3.5848    1.8876    2.7938 H   0  0  0  0  0  0  0  0  0  0  0  0
    4.8210    0.6446    3.0213 H   0  0  0  0  0  0  0  0  0  0  0  0
    4.6203    1.4187    1.4382 H   0  0  0  0  0  0  0  0  0  0  0  0
    3.0438   -1.4302    3.8805 N   0  0  0  0  0  0  0  0  0  0  0  0
    2.5314   -2.0381    5.0863 C   0  0  0  0  0  0  0  0  0  0  0  0
    3.9694   -1.7068    3.5667 H   0  0  0  0  0  0  0  0  0  0  0  0
    2.8201   -1.4292    5.9558 H   0  0  0  0  0  0  0  0  0  0  0  0
    1.4346   -2.0982    5.0289 H   0  0  0  0  0  0  0  0  0  0  0  0
    2.9491   -3.0501    5.1926 H   0  0  0  0  0  0  0  0  0  0  0  0
 23 25  2  0  0  0  0
 22 23  1  0  0  0  0
 24 26  1  0  0  0  0
 22 24  2  0  0  0  0
 25 27  1  0  0  0  0
 26 27  2  0  0  0  0
 21 22  1  0  0  0  0
 27 28  1  0  0  0  0
  1  3  1  0  0  0  0
  1  7  1  0  0  0  0
  1  2  2  0  0  0  0
 39 40  1  0  0  0  0
 40 48  1  0  0  0  0
 40 41  2  0  0  0  0
  8  9  1  0  0  0  0
  9 17  1  0  0  0  0
  9 10  2  0  0  0  0
 18 19  1  0  0  0  0
 19 38  1  0  0  0  0
 19 20  2  0  0  0  0
 39 42  1  0  0  0  0
  8 11  1  0  0  0  0
 48 49  1  0  0  0  0
 18 21  1  0  0  0  0
 38 39  1  0  0  0  0
  7  8  1  0  0  0  0
 17 18  1  0  0  0  0
 23 33  1  0  0  0  0
 24 34  1  0  0  0  0
 25 35  1  0  0  0  0
 26 36  1  0  0  0  0
  3  4  1  0  0  0  0
  3  5  1  0  0  0  0
  3  6  1  0  0  0  0
 42 45  1  0  0  0  0
 42 46  1  0  0  0  0
 42 47  1  0  0  0  0
 11 14  1  0  0  0  0
 11 15  1  0  0  0  0
 11 16  1  0  0  0  0
 49 51  1  0  0  0  0
 49 52  1  0  0  0  0
 49 53  1  0  0  0  0
 21 31  1  0  0  0  0
 21 32  1  0  0  0  0
 39 44  1  0  0  0  0
  8 13  1  0  0  0  0
 18 30  1  0  0  0  0
 48 50  1  0  0  0  0
  7 12  1  0  0  0  0
 38 43  1  0  0  0  0
 17 29  1  0  0  0  0
 28 37  1  0  0  0  0
M  END
$$$$

  -OEChem-05262214473D

 53 53  0     1  0  0  0  0  0999 V2000
   -1.9298    0.2574    3.9747 C   0  0  0  0  0  0  0  0  0  0  0  0
   -0.9825   -0.3573    3.4990 O   0  0  0  0  0  0  0  0  0  0  0  0
   -2.3617   -0.0250    5.3754 C   0  0  0  0  0  0  0  0  0  0  0  0
   -3.1214   -0.8213    5.4288 H   0  0  0  0  0  0  0  0  0  0  0  0
   -1.5305   -0.3726    6.0097 H   0  0  0  0  0  0  0  0  0  0  0  0
   -2.7997    0.8299    5.9150 H   0  0  0  0  0  0  0  0  0  0  0  0
   -2.6795    1.2298    3.3336 N   0  0  0  0  0  0  0  0  0  0  0  0
   -2.4327    1.6559    1.9812 C   0  0  2  0  0  0  0  0  0  0  0  0
   -1.0977    1.0705    1.5400 C   0  0  0  0  0  0  0  0  0  0  0  0
   -0.2256    0.7177    2.3313 O   0  0  0  0  0  0  0  0  0  0  0  0
   -2.4239    3.1726    1.8718 C   0  0  0  0  0  0  0  0  0  0  0  0
   -3.4446    1.6657    3.8454 H   0  0  0  0  0  0  0  0  0  0  0  0
   -3.2368    1.2374    1.3661 H   0  0  0  0  0  0  0  0  0  0  0  0
   -1.6248    3.6099    2.4815 H   0  0  0  0  0  0  0  0  0  0  0  0
   -2.2644    3.4949    0.8375 H   0  0  0  0  0  0  0  0  0  0  0  0
   -3.3741    3.5939    2.2175 H   0  0  0  0  0  0  0  0  0  0  0  0
   -0.9750    1.0274    0.1566 N   0  0  0  0  0  0  0  0  0  0  0  0
    0.2023    0.5266   -0.5070 C   0  0  2  0  0  0  0  0  0  0  0  0
    1.0141   -0.2392    0.5316 C   0  0  0  0  0  0  0  0  0  0  0  0
    0.8935   -1.4484    0.7164 O   0  0  0  0  0  0  0  0  0  0  0  0
    1.0451    1.6518   -1.1184 C   0  0  0  0  0  0  0  0  0  0  0  0
    0.3488    2.3466   -2.2630 C   0  0  0  0  0  0  0  0  0  0  0  0
    0.3603    1.7764   -3.5360 C   0  0  0  0  0  0  0  0  0  0  0  0
   -0.3058    3.5594   -2.0480 C   0  0  0  0  0  0  0  0  0  0  0  0
   -0.2828    2.4189   -4.5939 C   0  0  0  0  0  0  0  0  0  0  0  0
   -0.9489    4.2020   -3.1059 C   0  0  0  0  0  0  0  0  0  0  0  0
   -0.9374    3.6317   -4.3789 C   0  0  0  0  0  0  0  0  0  0  0  0
   -1.5637    4.2592   -5.4116 O   0  0  0  0  0  0  0  0  0  0  0  0
   -1.7582    1.3241   -0.4207 H   0  0  0  0  0  0  0  0  0  0  0  0
   -0.1463   -0.1722   -1.2766 H   0  0  0  0  0  0  0  0  0  0  0  0
    2.0134    1.2601   -1.4581 H   0  0  0  0  0  0  0  0  0  0  0  0
    1.2900    2.4044   -0.3573 H   0  0  0  0  0  0  0  0  0  0  0  0
    0.8678    0.8318   -3.7125 H   0  0  0  0  0  0  0  0  0  0  0  0
   -0.3201    4.0110   -1.0594 H   0  0  0  0  0  0  0  0  0  0  0  0
   -0.2700    1.9698   -5.5834 H   0  0  0  0  0  0  0  0  0  0  0  0
   -1.4567    5.1465   -2.9321 H   0  0  0  0  0  0  0  0  0  0  0  0
   -1.9700    5.0859   -5.1061 H   0  0  0  0  0  0  0  0  0  0  0  0
    1.9213    0.5799    1.1891 N   0  0  0  0  0  0  0  0  0  0  0  0
    2.8304    0.1016    2.2057 C   0  0  2  0  0  0  0  0  0  0  0  0
    2.0233   -0.6983    3.2197 C   0  0  0  0  0  0  0  0  0  0  0  0
    0.8127   -0.5542    3.3772 O   0  0  0  0  0  0  0  0  0  0  0  0
    3.5621    1.2521    2.8793 C   0  0  0  0  0  0  0  0  0  0  0  0
    1.9477    1.5652    0.9434 H   0  0  0  0  0  0  0  0  0  0  0  0
    3.5459   -0.5593    1.7046 H   0  0  0  0  0  0  0  0  0  0  0  0
    2.8615    1.9251    3.3869 H   0  0  0  0  0  0  0  0  0  0  0  0
    4.2712    0.8864    3.6293 H   0  0  0  0  0  0  0  0  0  0  0  0
    4.1182    1.8439    2.1443 H   0  0  0  0  0  0  0  0  0  0  0  0
    2.8211   -1.5611    3.9581 N   0  0  0  0  0  0  0  0  0  0  0  0
    2.2921   -2.4194    4.9922 C   0  0  0  0  0  0  0  0  0  0  0  0
    3.8123   -1.6290    3.7469 H   0  0  0  0  0  0  0  0  0  0  0  0
    2.3585   -1.9077    5.9637 H   0  0  0  0  0  0  0  0  0  0  0  0
    1.2399   -2.6528    4.7721 H   0  0  0  0  0  0  0  0  0  0  0  0
    2.8747   -3.3517    5.0283 H   0  0  0  0  0  0  0  0  0  0  0  0
 23 25  2  0  0  0  0
 22 23  1  0  0  0  0
 24 26  1  0  0  0  0
 22 24  2  0  0  0  0
 25 27  1  0  0  0  0
 26 27  2  0  0  0  0
 21 22  1  0  0  0  0
 27 28  1  0  0  0  0
  1  3  1  0  0  0  0
  1  7  1  0  0  0  0
  1  2  2  0  0  0  0
 39 40  1  0  0  0  0
 40 48  1  0  0  0  0
 40 41  2  0  0  0  0
  8  9  1  0  0  0  0
  9 17  1  0  0  0  0
  9 10  2  0  0  0  0
 18 19  1  0  0  0  0
 19 38  1  0  0  0  0
 19 20  2  0  0  0  0
 39 42  1  0  0  0  0
  8 11  1  0  0  0  0
 48 49  1  0  0  0  0
 18 21  1  0  0  0  0
 38 39  1  0  0  0  0
  7  8  1  0  0  0  0
 17 18  1  0  0  0  0
 23 33  1  0  0  0  0
 24 34  1  0  0  0  0
 25 35  1  0  0  0  0
 26 36  1  0  0  0  0
  3  4  1  0  0  0  0
  3  5  1  0  0  0  0
  3  6  1  0  0  0  0
 42 45  1  0  0  0  0
 42 46  1  0  0  0  0
 42 47  1  0  0  0  0
 11 14  1  0  0  0  0
 11 15  1  0  0  0  0
 11 16  1  0  0  0  0
 49 51  1  0  0  0  0
 49 52  1  0  0  0  0
 49 53  1  0  0  0  0
 21 31  1  0  0  0  0
 21 32  1  0  0  0  0
 39 44  1  0  0  0  0
  8 13  1  0  0  0  0
 18 30  1  0  0  0  0
 48 50  1  0  0  0  0
  7 12  1  0  0  0  0
 38 43  1  0  0  0  0
 17 29  1  0  0  0  0
 28 37  1  0  0  0  0
M  END
$$$$

  -OEChem-05262214473D

 53 53  0     1  0  0  0  0  0999 V2000
   -1.9298    0.2574    3.9747 C   0  0  0  0  0  0  0  0  0  0  0  0
   -0.9825   -0.3573    3.4990 O   0  0  0  0  0  0  0  0  0  0  0  0
   -2.3617   -0.0250    5.3754 C   0  0  0  0  0  0  0  0  0  0  0  0
   -3.1214   -0.8213    5.4288 H   0  0  0  0  0  0  0  0  0  0  0  0
   -1.5305   -0.3726    6.0097 H   0  0  0  0  0  0  0  0  0  0  0  0
   -2.7997    0.8299    5.9150 H   0  0  0  0  0  0  0  0  0  0  0  0
   -2.6795    1.2298    3.3336 N   0  0  0  0  0  0  0  0  0  0  0  0
   -2.4327    1.6559    1.9812 C   0  0  2  0  0  0  0  0  0  0  0  0
   -1.0977    1.0705    1.5400 C   0  0  0  0  0  0  0  0  0  0  0  0
   -0.2256    0.7177    2.3313 O   0  0  0  0  0  0  0  0  0  0  0  0
   -2.4239    3.1726    1.8718 C   0  0  0  0  0  0  0  0  0  0  0  0
   -3.4446    1.6657    3.8454 H   0  0  0  0  0  0  0  0  0  0  0  0
   -3.2368    1.2374    1.3661 H   0  0  0  0  0  0  0  0  0  0  0  0
   -1.6248    3.6099    2.4815 H   0  0  0  0  0  0  0  0  0  0  0  0
   -2.2644    3.4949    0.8375 H   0  0  0  0  0  0  0  0  0  0  0  0
   -3.3741    3.5939    2.2175 H   0  0  0  0  0  0  0  0  0  0  0  0
   -0.9750    1.0274    0.1566 N   0  0  0  0  0  0  0  0  0  0  0  0
    0.2023    0.5266   -0.5070 C   0  0  2  0  0  0  0  0  0  0  0  0
    1.0141   -0.2392    0.5316 C   0  0  0  0  0  0  0  0  0  0  0  0
    1.0989   -1.4654    0.5433 O   0  0  0  0  0  0  0  0  0  0  0  0
    1.0451    1.6518   -1.1184 C   0  0  0  0  0  0  0  0  0  0  0  0
    0.3488    2.3466   -2.2630 C   0  0  0  0  0  0  0  0  0  0  0  0
    0.3603    1.7764   -3.5360 C   0  0  0  0  0  0  0  0  0  0  0  0
   -0.3058    3.5594   -2.0480 C   0  0  0  0  0  0  0  0  0  0  0  0
   -0.2828    2.4189   -4.5939 C   0  0  0  0  0  0  0  0  0  0  0  0
   -0.9489    4.2020   -3.1059 C   0  0  0  0  0  0  0  0  0  0  0  0
   -0.9374    3.6317   -4.3789 C   0  0  0  0  0  0  0  0  0  0  0  0
   -1.5637    4.2592   -5.4116 O   0  0  0  0  0  0  0  0  0  0  0  0
   -1.7582    1.3241   -0.4207 H   0  0  0  0  0  0  0  0  0  0  0  0
   -0.1463   -0.1722   -1.2766 H   0  0  0  0  0  0  0  0  0  0  0  0
    2.0134    1.2601   -1.4581 H   0  0  0  0  0  0  0  0  0  0  0  0
    1.2900    2.4044   -0.3573 H   0  0  0  0  0  0  0  0  0  0  0  0
    0.8678    0.8318   -3.7125 H   0  0  0  0  0  0  0  0  0  0  0  0
   -0.3201    4.0110   -1.0594 H   0  0  0  0  0  0  0  0  0  0  0  0
   -0.2700    1.9698   -5.5834 H   0  0  0  0  0  0  0  0  0  0  0  0
   -1.4567    5.1465   -2.9321 H   0  0  0  0  0  0  0  0  0  0  0  0
   -1.9700    5.0859   -5.1061 H   0  0  0  0  0  0  0  0  0  0  0  0
    1.6699    0.6125    1.4096 N   0  0  0  0  0  0  0  0  0  0  0  0
    2.5259    0.1464    2.4768 C   0  0  2  0  0  0  0  0  0  0  0  0
    1.7675   -0.9197    3.2564 C   0  0  0  0  0  0  0  0  0  0  0  0
    0.5412   -1.0052    3.2568 O   0  0  0  0  0  0  0  0  0  0  0  0
    2.9472    1.2892    3.3874 C   0  0  0  0  0  0  0  0  0  0  0  0
    1.5419    1.6137    1.2964 H   0  0  0  0  0  0  0  0  0  0  0  0
    3.4055   -0.3032    2.0032 H   0  0  0  0  0  0  0  0  0  0  0  0
    2.0791    1.7521    3.8708 H   0  0  0  0  0  0  0  0  0  0  0  0
    3.6185    0.9393    4.1785 H   0  0  0  0  0  0  0  0  0  0  0  0
    3.4664    2.0688    2.8196 H   0  0  0  0  0  0  0  0  0  0  0  0
    2.6190   -1.7374    3.9860 N   0  0  0  0  0  0  0  0  0  0  0  0
    2.1403   -2.8169    4.8177 C   0  0  0  0  0  0  0  0  0  0  0  0
    3.6234   -1.6063    3.9113 H   0  0  0  0  0  0  0  0  0  0  0  0
    1.9960   -2.4525    5.8454 H   0  0  0  0  0  0  0  0  0  0  0  0
    1.1830   -3.1874    4.4223 H   0  0  0  0  0  0  0  0  0  0  0  0
    2.8774   -3.6335    4.8185 H   0  0  0  0  0  0  0  0  0  0  0  0
 23 25  2  0  0  0  0
 22 23  1  0  0  0  0
 24 26  1  0  0  0  0
 22 24  2  0  0  0  0
 25 27  1  0  0  0  0
 26 27  2  0  0  0  0
 21 22  1  0  0  0  0
 27 28  1  0  0  0  0
  1  3  1  0  0  0  0
  1  7  1  0  0  0  0
  1  2  2  0  0  0  0
 39 40  1  0  0  0  0
 40 48  1  0  0  0  0
 40 41  2  0  0  0  0
  8  9  1  0  0  0  0
  9 17  1  0  0  0  0
  9 10  2  0  0  0  0
 18 19  1  0  0  0  0
 19 38  1  0  0  0  0
 19 20  2  0  0  0  0
 39 42  1  0  0  0  0
  8 11  1  0  0  0  0
 48 49  1  0  0  0  0
 18 21  1  0  0  0  0
 38 39  1  0  0  0  0
  7  8  1  0  0  0  0
 17 18  1  0  0  0  0
 23 33  1  0  0  0  0
 24 34  1  0  0  0  0
 25 35  1  0  0  0  0
 26 36  1  0  0  0  0
  3  4  1  0  0  0  0
  3  5  1  0  0  0  0
  3  6  1  0  0  0  0
 42 45  1  0  0  0  0
 42 46  1  0  0  0  0
 42 47  1  0  0  0  0
 11 14  1  0  0  0  0
 11 15  1  0  0  0  0
 11 16  1  0  0  0  0
 49 51  1  0  0  0  0
 49 52  1  0  0  0  0
 49 53  1  0  0  0  0
 21 31  1  0  0  0  0
 21 32  1  0  0  0  0
 39 44  1  0  0  0  0
  8 13  1  0  0  0  0
 18 30  1  0  0  0  0
 48 50  1  0  0  0  0
  7 12  1  0  0  0  0
 38 43  1  0  0  0  0
 17 29  1  0  0  0  0
 28 37  1  0  0  0  0
M  END
$$$$

  -OEChem-05262214473D

 53 53  0     1  0  0  0  0  0999 V2000
   -1.9298    0.2574    3.9747 C   0  0  0  0  0  0  0  0  0  0  0  0
   -0.9825   -0.3573    3.4990 O   0  0  0  0  0  0  0  0  0  0  0  0
   -2.3617   -0.0250    5.3754 C   0  0  0  0  0  0  0  0  0  0  0  0
   -3.1214   -0.8213    5.4288 H   0  0  0  0  0  0  0  0  0  0  0  0
   -1.5305   -0.3726    6.0097 H   0  0  0  0  0  0  0  0  0  0  0  0
   -2.7997    0.8299    5.9150 H   0  0  0  0  0  0  0  0  0  0  0  0
   -2.6795    1.2298    3.3336 N   0  0  0  0  0  0  0  0  0  0  0  0
   -2.4327    1.6559    1.9812 C   0  0  2  0  0  0  0  0  0  0  0  0
   -1.0977    1.0705    1.5400 C   0  0  0  0  0  0  0  0  0  0  0  0
   -0.2256    0.7177    2.3313 O   0  0  0  0  0  0  0  0  0  0  0  0
   -2.4239    3.1726    1.8718 C   0  0  0  0  0  0  0  0  0  0  0  0
   -3.4446    1.6657    3.8454 H   0  0  0  0  0  0  0  0  0  0  0  0
   -3.2368    1.2374    1.3661 H   0  0  0  0  0  0  0  0  0  0  0  0
   -1.6248    3.6099    2.4815 H   0  0  0  0  0  0  0  0  0  0  0  0
   -2.2644    3.4949    0.8375 H   0  0  0  0  0  0  0  0  0  0  0  0
   -3.3741    3.5939    2.2175 H   0  0  0  0  0  0  0  0  0  0  0  0
   -0.9750    1.0274    0.1566 N   0  0  0  0  0  0  0  0  0  0  0  0
    0.2023    0.5266   -0.5070 C   0  0  2  0  0  0  0  0  0  0  0  0
    1.0141   -0.2392    0.5316 C   0  0  0  0  0  0  0  0  0  0  0  0
    1.3228   -1.4217    0.4004 O   0  0  0  0  0  0  0  0  0  0  0  0
    1.0451    1.6518   -1.1184 C   0  0  0  0  0  0  0  0  0  0  0  0
    0.3488    2.3466   -2.2630 C   0  0  0  0  0  0  0  0  0  0  0  0
    0.3603    1.7764   -3.5360 C   0  0  0  0  0  0  0  0  0  0  0  0
   -0.3058    3.5594   -2.0480 C   0  0  0  0  0  0  0  0  0  0  0  0
   -0.2828    2.4189   -4.5939 C   0  0  0  0  0  0  0  0  0  0  0  0
   -0.9489    4.2020   -3.1059 C   0  0  0  0  0  0  0  0  0  0  0  0
   -0.9374    3.6317   -4.3789 C   0  0  0  0  0  0  0  0  0  0  0  0
   -1.5637    4.2592   -5.4116 O   0  0  0  0  0  0  0  0  0  0  0  0
   -1.7582    1.3241   -0.4207 H   0  0  0  0  0  0  0  0  0  0  0  0
   -0.1463   -0.1722   -1.2766 H   0  0  0  0  0  0  0  0  0  0  0  0
    2.0134    1.2601   -1.4581 H   0  0  0  0  0  0  0  0  0  0  0  0
    1.2900    2.4044   -0.3573 H   0  0  0  0  0  0  0  0  0  0  0  0
    0.8678    0.8318   -3.7125 H   0  0  0  0  0  0  0  0  0  0  0  0
   -0.3201    4.0110   -1.0594 H   0  0  0  0  0  0  0  0  0  0  0  0
   -0.2700    1.9698   -5.5834 H   0  0  0  0  0  0  0  0  0  0  0  0
   -1.4567    5.1465   -2.9321 H   0  0  0  0  0  0  0  0  0  0  0  0
   -1.9700    5.0859   -5.1061 H   0  0  0  0  0  0  0  0  0  0  0  0
    1.3927    0.5692    1.5944 N   0  0  0  0  0  0  0  0  0  0  0  0
    2.1886    0.0985    2.7051 C   0  0  2  0  0  0  0  0  0  0  0  0
    1.5547   -1.1837    3.2281 C   0  0  0  0  0  0  0  0  0  0  0  0
    0.3741   -1.4722    3.0431 O   0  0  0  0  0  0  0  0  0  0  0  0
    2.2806    1.1466    3.8033 C   0  0  0  0  0  0  0  0  0  0  0  0
    1.0954    1.5404    1.5914 H   0  0  0  0  0  0  0  0  0  0  0  0
    3.1858   -0.1217    2.3088 H   0  0  0  0  0  0  0  0  0  0  0  0
    1.2910    1.3802    4.2127 H   0  0  0  0  0  0  0  0  0  0  0  0
    2.9073    0.7996    4.6314 H   0  0  0  0  0  0  0  0  0  0  0  0
    2.7093    2.0780    3.4181 H   0  0  0  0  0  0  0  0  0  0  0  0
    2.4512   -1.9473    3.9624 N   0  0  0  0  0  0  0  0  0  0  0  0
    2.0866   -3.2037    4.5745 C   0  0  0  0  0  0  0  0  0  0  0  0
    3.4156   -1.6404    4.0486 H   0  0  0  0  0  0  0  0  0  0  0  0
    1.7573   -3.0262    5.6090 H   0  0  0  0  0  0  0  0  0  0  0  0
    1.2678   -3.6657    4.0034 H   0  0  0  0  0  0  0  0  0  0  0  0
    2.9569   -3.8763    4.5772 H   0  0  0  0  0  0  0  0  0  0  0  0
 23 25  2  0  0  0  0
 22 23  1  0  0  0  0
 24 26  1  0  0  0  0
 22 24  2  0  0  0  0
 25 27  1  0  0  0  0
 26 27  2  0  0  0  0
 21 22  1  0  0  0  0
 27 28  1  0  0  0  0
  1  3  1  0  0  0  0
  1  7  1  0  0  0  0
  1  2  2  0  0  0  0
 39 40  1  0  0  0  0
 40 48  1  0  0  0  0
 40 41  2  0  0  0  0
  8  9  1  0  0  0  0
  9 17  1  0  0  0  0
  9 10  2  0  0  0  0
 18 19  1  0  0  0  0
 19 38  1  0  0  0  0
 19 20  2  0  0  0  0
 39 42  1  0  0  0  0
  8 11  1  0  0  0  0
 48 49  1  0  0  0  0
 18 21  1  0  0  0  0
 38 39  1  0  0  0  0
  7  8  1  0  0  0  0
 17 18  1  0  0  0  0
 23 33  1  0  0  0  0
 24 34  1  0  0  0  0
 25 35  1  0  0  0  0
 26 36  1  0  0  0  0
  3  4  1  0  0  0  0
  3  5  1  0  0  0  0
  3  6  1  0  0  0  0
 42 45  1  0  0  0  0
 42 46  1  0  0  0  0
 42 47  1  0  0  0  0
 11 14  1  0  0  0  0
 11 15  1  0  0  0  0
 11 16  1  0  0  0  0
 49 51  1  0  0  0  0
 49 52  1  0  0  0  0
 49 53  1  0  0  0  0
 21 31  1  0  0  0  0
 21 32  1  0  0  0  0
 39 44  1  0  0  0  0
  8 13  1  0  0  0  0
 18 30  1  0  0  0  0
 48 50  1  0  0  0  0
  7 12  1  0  0  0  0
 38 43  1  0  0  0  0
 17 29  1  0  0  0  0
 28 37  1  0  0  0  0
M  END
$$$$

  -OEChem-05262214473D

 53 53  0     1  0  0  0  0  0999 V2000
   -1.9298    0.2574    3.9747 C   0  0  0  0  0  0  0  0  0  0  0  0
   -0.9825   -0.3573    3.4990 O   0  0  0  0  0  0  0  0  0  0  0  0
   -2.3617   -0.0250    5.3754 C   0  0  0  0  0  0  0  0  0  0  0  0
   -3.1214   -0.8213    5.4288 H   0  0  0  0  0  0  0  0  0  0  0  0
   -1.5305   -0.3726    6.0097 H   0  0  0  0  0  0  0  0  0  0  0  0
   -2.7997    0.8299    5.9150 H   0  0  0  0  0  0  0  0  0  0  0  0
   -2.6795    1.2298    3.3336 N   0  0  0  0  0  0  0  0  0  0  0  0
   -2.4327    1.6559    1.9812 C   0  0  2  0  0  0  0  0  0  0  0  0
   -1.0977    1.0705    1.5400 C   0  0  0  0  0  0  0  0  0  0  0  0
   -0.2256    0.7177    2.3313 O   0  0  0  0  0  0  0  0  0  0  0  0
   -2.4239    3.1726    1.8718 C   0  0  0  0  0  0  0  0  0  0  0  0
   -3.4446    1.6657    3.8454 H   0  0  0  0  0  0  0  0  0  0  0  0
   -3.2368    1.2374    1.3661 H   0  0  0  0  0  0  0  0  0  0  0  0
   -1.6248    3.6099    2.4815 H   0  0  0  0  0  0  0  0  0  0  0  0
   -2.2644    3.4949    0.8375 H   0  0  0  0  0  0  0  0  0  0  0  0
   -3.3741    3.5939    2.2175 H   0  0  0  0  0  0  0  0  0  0  0  0
   -0.9750    1.0274    0.1566 N   0  0  0  0  0  0  0  0  0  0  0  0
    0.2023    0.5266   -0.5070 C   0  0  2  0  0  0  0  0  0  0  0  0
    1.0141   -0.2392    0.5316 C   0  0  0  0  0  0  0  0  0  0  0  0
    1.5500   -1.3204    0.2976 O   0  0  0  0  0  0  0  0  0  0  0  0
    1.0451    1.6518   -1.1184 C   0  0  0  0  0  0  0  0  0  0  0  0
    0.3488    2.3466   -2.2630 C   0  0  0  0  0  0  0  0  0  0  0  0
    0.3603    1.7764   -3.5360 C   0  0  0  0  0  0  0  0  0  0  0  0
   -0.3058    3.5594   -2.0480 C   0  0  0  0  0  0  0  0  0  0  0  0
   -0.2828    2.4189   -4.5939 C   0  0  0  0  0  0  0  0  0  0  0  0
   -0.9489    4.2020   -3.1059 C   0  0  0  0  0  0  0  0  0  0  0  0
   -0.9374    3.6317   -4.3789 C   0  0  0  0  0  0  0  0  0  0  0  0
   -1.5637    4.2592   -5.4116 O   0  0  0  0  0  0  0  0  0  0  0  0
   -1.7582    1.3241   -0.4207 H   0  0  0  0  0  0  0  0  0  0  0  0
   -0.1463   -0.1722   -1.2766 H   0  0  0  0  0  0  0  0  0  0  0  0
    2.0134    1.2601   -1.4581 H   0  0  0  0  0  0  0  0  0  0  0  0
    1.2900    2.4044   -0.3573 H   0  0  0  0  0  0  0  0  0  0  0  0
    0.8678    0.8318   -3.7125 H   0  0  0  0  0  0  0  0  0  0  0  0
   -0.3201    4.0110   -1.0594 H   0  0  0  0  0  0  0  0  0  0  0  0
   -0.2700    1.9698   -5.5834 H   0  0  0  0  0  0  0  0  0  0  0  0
   -1.4567    5.1465   -2.9321 H   0  0  0  0  0  0  0  0  0  0  0  0
   -1.9700    5.0859   -5.1061 H   0  0  0  0  0  0  0  0  0  0  0  0
    1.1085    0.4530    1.7309 N   0  0  0  0  0  0  0  0  0  0  0  0
    1.8416   -0.0386    2.8753 C   0  0  2  0  0  0  0  0  0  0  0  0
    1.3993   -1.4723    3.1367 C   0  0  0  0  0  0  0  0  0  0  0  0
    0.3229   -1.9232    2.7506 O   0  0  0  0  0  0  0  0  0  0  0  0
    1.6078    0.8340    4.0987 C   0  0  0  0  0  0  0  0  0  0  0  0
    0.6387    1.3503    1.8081 H   0  0  0  0  0  0  0  0  0  0  0  0
    2.9019   -0.0272    2.6003 H   0  0  0  0  0  0  0  0  0  0  0  0
    0.5508    0.8350    4.3892 H   0  0  0  0  0  0  0  0  0  0  0  0
    2.1861    0.4768    4.9572 H   0  0  0  0  0  0  0  0  0  0  0  0
    1.8986    1.8710    3.8991 H   0  0  0  0  0  0  0  0  0  0  0  0
    2.3292   -2.1764    3.8889 N   0  0  0  0  0  0  0  0  0  0  0  0
    2.1344   -3.5532    4.2794 C   0  0  0  0  0  0  0  0  0  0  0  0
    3.2030   -1.7289    4.1495 H   0  0  0  0  0  0  0  0  0  0  0  0
    1.6585   -3.5899    5.2705 H   0  0  0  0  0  0  0  0  0  0  0  0
    1.4886   -4.0550    3.5438 H   0  0  0  0  0  0  0  0  0  0  0  0
    3.1080   -4.0636    4.3211 H   0  0  0  0  0  0  0  0  0  0  0  0
 23 25  2  0  0  0  0
 22 23  1  0  0  0  0
 24 26  1  0  0  0  0
 22 24  2  0  0  0  0
 25 27  1  0  0  0  0
 26 27  2  0  0  0  0
 21 22  1  0  0  0  0
 27 28  1  0  0  0  0
  1  3  1  0  0  0  0
  1  7  1  0  0  0  0
  1  2  2  0  0  0  0
 39 40  1  0  0  0  0
 40 48  1  0  0  0  0
 40 41  2  0  0  0  0
  8  9  1  0  0  0  0
  9 17  1  0  0  0  0
  9 10  2  0  0  0  0
 18 19  1  0  0  0  0
 19 38  1  0  0  0  0
 19 20  2  0  0  0  0
 39 42  1  0  0  0  0
  8 11  1  0  0  0  0
 48 49  1  0  0  0  0
 18 21  1  0  0  0  0
 38 39  1  0  0  0  0
  7  8  1  0  0  0  0
 17 18  1  0  0  0  0
 23 33  1  0  0  0  0
 24 34  1  0  0  0  0
 25 35  1  0  0  0  0
 26 36  1  0  0  0  0
  3  4  1  0  0  0  0
  3  5  1  0  0  0  0
  3  6  1  0  0  0  0
 42 45  1  0  0  0  0
 42 46  1  0  0  0  0
 42 47  1  0  0  0  0
 11 14  1  0  0  0  0
 11 15  1  0  0  0  0
 11 16  1  0  0  0  0
 49 51  1  0  0  0  0
 49 52  1  0  0  0  0
 49 53  1  0  0  0  0
 21 31  1  0  0  0  0
 21 32  1  0  0  0  0
 39 44  1  0  0  0  0
  8 13  1  0  0  0  0
 18 30  1  0  0  0  0
 48 50  1  0  0  0  0
  7 12  1  0  0  0  0
 38 43  1  0  0  0  0
 17 29  1  0  0  0  0
 28 37  1  0  0  0  0
M  END
$$$$

  -OEChem-05262214473D

 53 53  0     1  0  0  0  0  0999 V2000
   -1.9298    0.2574    3.9747 C   0  0  0  0  0  0  0  0  0  0  0  0
   -0.9825   -0.3573    3.4990 O   0  0  0  0  0  0  0  0  0  0  0  0
   -2.3617   -0.0250    5.3754 C   0  0  0  0  0  0  0  0  0  0  0  0
   -3.1214   -0.8213    5.4288 H   0  0  0  0  0  0  0  0  0  0  0  0
   -1.5305   -0.3726    6.0097 H   0  0  0  0  0  0  0  0  0  0  0  0
   -2.7997    0.8299    5.9150 H   0  0  0  0  0  0  0  0  0  0  0  0
   -2.6795    1.2298    3.3336 N   0  0  0  0  0  0  0  0  0  0  0  0
   -2.4327    1.6559    1.9812 C   0  0  2  0  0  0  0  0  0  0  0  0
   -1.0977    1.0705    1.5400 C   0  0  0  0  0  0  0  0  0  0  0  0
   -0.2256    0.7177    2.3313 O   0  0  0  0  0  0  0  0  0  0  0  0
   -2.4239    3.1726    1.8718 C   0  0  0  0  0  0  0  0  0  0  0  0
   -3.4446    1.6657    3.8454 H   0  0  0  0  0  0  0  0  0  0  0  0
   -3.2368    1.2374    1.3661 H   0  0  0  0  0  0  0  0  0  0  0  0
   -1.6248    3.6099    2.4815 H   0  0  0  0  0  0  0  0  0  0  0  0
   -2.2644    3.4949    0.8375 H   0  0  0  0  0  0  0  0  0  0  0  0
   -3.3741    3.5939    2.2175 H   0  0  0  0  0  0  0  0  0  0  0  0
   -0.9750    1.0274    0.1566 N   0  0  0  0  0  0  0  0  0  0  0  0
    0.2023    0.5266   -0.5070 C   0  0  2  0  0  0  0  0  0  0  0  0
    1.0141   -0.2392    0.5316 C   0  0  0  0  0  0  0  0  0  0  0  0
    1.7649   -1.1683    0.2418 O   0  0  0  0  0  0  0  0  0  0  0  0
    1.0451    1.6518   -1.1184 C   0  0  0  0  0  0  0  0  0  0  0  0
    0.3488    2.3466   -2.2630 C   0  0  0  0  0  0  0  0  0  0  0  0
    0.3603    1.7764   -3.5360 C   0  0  0  0  0  0  0  0  0  0  0  0
   -0.3058    3.5594   -2.0480 C   0  0  0  0  0  0  0  0  0  0  0  0
   -0.2828    2.4189   -4.5939 C   0  0  0  0  0  0  0  0  0  0  0  0
   -0.9489    4.2020   -3.1059 C   0  0  0  0  0  0  0  0  0  0  0  0
   -0.9374    3.6317   -4.3789 C   0  0  0  0  0  0  0  0  0  0  0  0
   -1.5637    4.2592   -5.4116 O   0  0  0  0  0  0  0  0  0  0  0  0
   -1.7582    1.3241   -0.4207 H   0  0  0  0  0  0  0  0  0  0  0  0
   -0.1463   -0.1722   -1.2766 H   0  0  0  0  0  0  0  0  0  0  0  0
    2.0134    1.2601   -1.4581 H   0  0  0  0  0  0  0  0  0  0  0  0
    1.2900    2.4044   -0.3573 H   0  0  0  0  0  0  0  0  0  0  0  0
    0.8678    0.8318   -3.7125 H   0  0  0  0  0  0  0  0  0  0  0  0
   -0.3201    4.0110   -1.0594 H   0  0  0  0  0  0  0  0  0  0  0  0
   -0.2700    1.9698   -5.5834 H   0  0  0  0  0  0  0  0  0  0  0  0
   -1.4567    5.1465   -2.9321 H   0  0  0  0  0  0  0  0  0  0  0  0
   -1.9700    5.0859   -5.1061 H   0  0  0  0  0  0  0  0  0  0  0  0
    0.8367    0.2719    1.8097 N   0  0  0  0  0  0  0  0  0  0  0  0
    1.5084   -0.2557    2.9756 C   0  0  2  0  0  0  0  0  0  0  0  0
    1.3121   -1.7659    2.9884 C   0  0  0  0  0  0  0  0  0  0  0  0
    0.3910   -2.3276    2.3992 O   0  0  0  0  0  0  0  0  0  0  0  0
    0.9746    0.3727    4.2535 C   0  0  0  0  0  0  0  0  0  0  0  0
    0.2029    1.0562    1.9319 H   0  0  0  0  0  0  0  0  0  0  0  0
    2.5731   -0.0262    2.8581 H   0  0  0  0  0  0  0  0  0  0  0  0
   -0.0909    0.1536    4.3883 H   0  0  0  0  0  0  0  0  0  0  0  0
    1.5040   -0.0070    5.1336 H   0  0  0  0  0  0  0  0  0  0  0  0
    1.0895    1.4617    4.2298 H   0  0  0  0  0  0  0  0  0  0  0  0
    2.2613   -2.4090    3.7704 N   0  0  0  0  0  0  0  0  0  0  0  0
    2.2806   -3.8417    3.9524 C   0  0  0  0  0  0  0  0  0  0  0  0
    3.0001   -1.8657    4.2071 H   0  0  0  0  0  0  0  0  0  0  0  0
    1.7066   -4.1052    4.8530 H   0  0  0  0  0  0  0  0  0  0  0  0
    1.8301   -4.3287    3.0750 H   0  0  0  0  0  0  0  0  0  0  0  0
    3.3202   -4.1825    4.0675 H   0  0  0  0  0  0  0  0  0  0  0  0
 23 25  2  0  0  0  0
 22 23  1  0  0  0  0
 24 26  1  0  0  0  0
 22 24  2  0  0  0  0
 25 27  1  0  0  0  0
 26 27  2  0  0  0  0
 21 22  1  0  0  0  0
 27 28  1  0  0  0  0
  1  3  1  0  0  0  0
  1  7  1  0  0  0  0
  1  2  2  0  0  0  0
 39 40  1  0  0  0  0
 40 48  1  0  0  0  0
 40 41  2  0  0  0  0
  8  9  1  0  0  0  0
  9 17  1  0  0  0  0
  9 10  2  0  0  0  0
 18 19  1  0  0  0  0
 19 38  1  0  0  0  0
 19 20  2  0  0  0  0
 39 42  1  0  0  0  0
  8 11  1  0  0  0  0
 48 49  1  0  0  0  0
 18 21  1  0  0  0  0
 38 39  1  0  0  0  0
  7  8  1  0  0  0  0
 17 18  1  0  0  0  0
 23 33  1  0  0  0  0
 24 34  1  0  0  0  0
 25 35  1  0  0  0  0
 26 36  1  0  0  0  0
  3  4  1  0  0  0  0
  3  5  1  0  0  0  0
  3  6  1  0  0  0  0
 42 45  1  0  0  0  0
 42 46  1  0  0  0  0
 42 47  1  0  0  0  0
 11 14  1  0  0  0  0
 11 15  1  0  0  0  0
 11 16  1  0  0  0  0
 49 51  1  0  0  0  0
 49 52  1  0  0  0  0
 49 53  1  0  0  0  0
 21 31  1  0  0  0  0
 21 32  1  0  0  0  0
 39 44  1  0  0  0  0
  8 13  1  0  0  0  0
 18 30  1  0  0  0  0
 48 50  1  0  0  0  0
  7 12  1  0  0  0  0
 38 43  1  0  0  0  0
 17 29  1  0  0  0  0
 28 37  1  0  0  0  0
M  END
$$$$

  -OEChem-05262214473D

 53 53  0     1  0  0  0  0  0999 V2000
   -1.9298    0.2574    3.9747 C   0  0  0  0  0  0  0  0  0  0  0  0
   -0.9825   -0.3573    3.4990 O   0  0  0  0  0  0  0  0  0  0  0  0
   -2.3617   -0.0250    5.3754 C   0  0  0  0  0  0  0  0  0  0  0  0
   -3.1214   -0.8213    5.4288 H   0  0  0  0  0  0  0  0  0  0  0  0
   -1.5305   -0.3726    6.0097 H   0  0  0  0  0  0  0  0  0  0  0  0
   -2.7997    0.8299    5.9150 H   0  0  0  0  0  0  0  0  0  0  0  0
   -2.6795    1.2298    3.3336 N   0  0  0  0  0  0  0  0  0  0  0  0
   -2.4327    1.6559    1.9812 C   0  0  2  0  0  0  0  0  0  0  0  0
   -1.0977    1.0705    1.5400 C   0  0  0  0  0  0  0  0  0  0  0  0
   -0.2256    0.7177    2.3313 O   0  0  0  0  0  0  0  0  0  0  0  0
   -2.4239    3.1726    1.8718 C   0  0  0  0  0  0  0  0  0  0  0  0
   -3.4446    1.6657    3.8454 H   0  0  0  0  0  0  0  0  0  0  0  0
   -3.2368    1.2374    1.3661 H   0  0  0  0  0  0  0  0  0  0  0  0
   -1.6248    3.6099    2.4815 H   0  0  0  0  0  0  0  0  0  0  0  0
   -2.2644    3.4949    0.8375 H   0  0  0  0  0  0  0  0  0  0  0  0
   -3.3741    3.5939    2.2175 H   0  0  0  0  0  0  0  0  0  0  0  0
   -0.9750    1.0274    0.1566 N   0  0  0  0  0  0  0  0  0  0  0  0
    0.2023    0.5266   -0.5070 C   0  0  2  0  0  0  0  0  0  0  0  0
    1.0141   -0.2392    0.5316 C   0  0  0  0  0  0  0  0  0  0  0  0
    1.9530   -0.9757    0.2368 O   0  0  0  0  0  0  0  0  0  0  0  0
    1.0451    1.6518   -1.1184 C   0  0  0  0  0  0  0  0  0  0  0  0
    0.3488    2.3466   -2.2630 C   0  0  0  0  0  0  0  0  0  0  0  0
    0.3603    1.7764   -3.5360 C   0  0  0  0  0  0  0  0  0  0  0  0
   -0.3058    3.5594   -2.0480 C   0  0  0  0  0  0  0  0  0  0  0  0
   -0.2828    2.4189   -4.5939 C   0  0  0  0  0  0  0  0  0  0  0  0
   -0.9489    4.2020   -3.1059 C   0  0  0  0  0  0  0  0  0  0  0  0
   -0.9374    3.6317   -4.3789 C   0  0  0  0  0  0  0  0  0  0  0  0
   -1.5637    4.2592   -5.4116 O   0  0  0  0  0  0  0  0  0  0  0  0
   -1.7582    1.3241   -0.4207 H   0  0  0  0  0  0  0  0  0  0  0  0
   -0.1463   -0.1722   -1.2766 H   0  0  0  0  0  0  0  0  0  0  0  0
    2.0134    1.2601   -1.4581 H   0  0  0  0  0  0  0  0  0  0  0  0
    1.2900    2.4044   -0.3573 H   0  0  0  0  0  0  0  0  0  0  0  0
    0.8678    0.8318   -3.7125 H   0  0  0  0  0  0  0  0  0  0  0  0
   -0.3201    4.0110   -1.0594 H   0  0  0  0  0  0  0  0  0  0  0  0
   -0.2700    1.9698   -5.5834 H   0  0  0  0  0  0  0  0  0  0  0  0
   -1.4567    5.1465   -2.9321 H   0  0  0  0  0  0  0  0  0  0  0  0
   -1.9700    5.0859   -5.1061 H   0  0  0  0  0  0  0  0  0  0  0  0
    0.5959    0.0381    1.8256 N   0  0  0  0  0  0  0  0  0  0  0  0
    1.2119   -0.5379    2.9993 C   0  0  2  0  0  0  0  0  0  0  0  0
    1.2989   -2.0444    2.7933 C   0  0  0  0  0  0  0  0  0  0  0  0
    0.5737   -2.6577    2.0129 O   0  0  0  0  0  0  0  0  0  0  0  0
    0.4242   -0.2059    4.2571 C   0  0  0  0  0  0  0  0  0  0  0  0
   -0.1822    0.6782    1.9543 H   0  0  0  0  0  0  0  0  0  0  0  0
    2.2218   -0.1187    3.0645 H   0  0  0  0  0  0  0  0  0  0  0  0
   -0.5905   -0.6177    4.2101 H   0  0  0  0  0  0  0  0  0  0  0  0
    0.9076   -0.6189    5.1486 H   0  0  0  0  0  0  0  0  0  0  0  0
    0.3372    0.8782    4.3876 H   0  0  0  0  0  0  0  0  0  0  0  0
    2.2521   -2.6293    3.6151 N   0  0  0  0  0  0  0  0  0  0  0  0
    2.5153   -4.0495    3.6158 C   0  0  0  0  0  0  0  0  0  0  0  0
    2.8208   -2.0417    4.2176 H   0  0  0  0  0  0  0  0  0  0  0  0
    1.8982   -4.5369    4.3849 H   0  0  0  0  0  0  0  0  0  0  0  0
    2.2693   -4.4683    2.6288 H   0  0  0  0  0  0  0  0  0  0  0  0
    3.5791   -4.2250    3.8338 H   0  0  0  0  0  0  0  0  0  0  0  0
 23 25  2  0  0  0  0
 22 23  1  0  0  0  0
 24 26  1  0  0  0  0
 22 24  2  0  0  0  0
 25 27  1  0  0  0  0
 26 27  2  0  0  0  0
 21 22  1  0  0  0  0
 27 28  1  0  0  0  0
  1  3  1  0  0  0  0
  1  7  1  0  0  0  0
  1  2  2  0  0  0  0
 39 40  1  0  0  0  0
 40 48  1  0  0  0  0
 40 41  2  0  0  0  0
  8  9  1  0  0  0  0
  9 17  1  0  0  0  0
  9 10  2  0  0  0  0
 18 19  1  0  0  0  0
 19 38  1  0  0  0  0
 19 20  2  0  0  0  0
 39 42  1  0  0  0  0
  8 11  1  0  0  0  0
 48 49  1  0  0  0  0
 18 21  1  0  0  0  0
 38 39  1  0  0  0  0
  7  8  1  0  0  0  0
 17 18  1  0  0  0  0
 23 33  1  0  0  0  0
 24 34  1  0  0  0  0
 25 35  1  0  0  0  0
 26 36  1  0  0  0  0
  3  4  1  0  0  0  0
  3  5  1  0  0  0  0
  3  6  1  0  0  0  0
 42 45  1  0  0  0  0
 42 46  1  0  0  0  0
 42 47  1  0  0  0  0
 11 14  1  0  0  0  0
 11 15  1  0  0  0  0
 11 16  1  0  0  0  0
 49 51  1  0  0  0  0
 49 52  1  0  0  0  0
 49 53  1  0  0  0  0
 21 31  1  0  0  0  0
 21 32  1  0  0  0  0
 39 44  1  0  0  0  0
  8 13  1  0  0  0  0
 18 30  1  0  0  0  0
 48 50  1  0  0  0  0
  7 12  1  0  0  0  0
 38 43  1  0  0  0  0
 17 29  1  0  0  0  0
 28 37  1  0  0  0  0
M  END
$$$$

  -OEChem-05262214473D

 53 53  0     1  0  0  0  0  0999 V2000
   -1.9298    0.2574    3.9747 C   0  0  0  0  0  0  0  0  0  0  0  0
   -0.9825   -0.3573    3.4990 O   0  0  0  0  0  0  0  0  0  0  0  0
   -2.3617   -0.0250    5.3754 C   0  0  0  0  0  0  0  0  0  0  0  0
   -3.1214   -0.8213    5.4288 H   0  0  0  0  0  0  0  0  0  0  0  0
   -1.5305   -0.3726    6.0097 H   0  0  0  0  0  0  0  0  0  0  0  0
   -2.7997    0.8299    5.9150 H   0  0  0  0  0  0  0  0  0  0  0  0
   -2.6795    1.2298    3.3336 N   0  0  0  0  0  0  0  0  0  0  0  0
   -2.4327    1.6559    1.9812 C   0  0  2  0  0  0  0  0  0  0  0  0
   -1.0977    1.0705    1.5400 C   0  0  0  0  0  0  0  0  0  0  0  0
   -0.2256    0.7177    2.3313 O   0  0  0  0  0  0  0  0  0  0  0  0
   -2.4239    3.1726    1.8718 C   0  0  0  0  0  0  0  0  0  0  0  0
   -3.4446    1.6657    3.8454 H   0  0  0  0  0  0  0  0  0  0  0  0
   -3.2368    1.2374    1.3661 H   0  0  0  0  0  0  0  0  0  0  0  0
   -1.6248    3.6099    2.4815 H   0  0  0  0  0  0  0  0  0  0  0  0
   -2.2644    3.4949    0.8375 H   0  0  0  0  0  0  0  0  0  0  0  0
   -3.3741    3.5939    2.2175 H   0  0  0  0  0  0  0  0  0  0  0  0
   -0.9750    1.0274    0.1566 N   0  0  0  0  0  0  0  0  0  0  0  0
    0.2023    0.5266   -0.5070 C   0  0  2  0  0  0  0  0  0  0  0  0
    1.0141   -0.2392    0.5316 C   0  0  0  0  0  0  0  0  0  0  0  0
    2.1013   -0.7559    0.2829 O   0  0  0  0  0  0  0  0  0  0  0  0
    1.0451    1.6518   -1.1184 C   0  0  0  0  0  0  0  0  0  0  0  0
    0.3488    2.3466   -2.2630 C   0  0  0  0  0  0  0  0  0  0  0  0
    0.3603    1.7764   -3.5360 C   0  0  0  0  0  0  0  0  0  0  0  0
   -0.3058    3.5594   -2.0480 C   0  0  0  0  0  0  0  0  0  0  0  0
   -0.2828    2.4189   -4.5939 C   0  0  0  0  0  0  0  0  0  0  0  0
   -0.9489    4.2020   -3.1059 C   0  0  0  0  0  0  0  0  0  0  0  0
   -0.9374    3.6317   -4.3789 C   0  0  0  0  0  0  0  0  0  0  0  0
   -1.5637    4.2592   -5.4116 O   0  0  0  0  0  0  0  0  0  0  0  0
   -1.7582    1.3241   -0.4207 H   0  0  0  0  0  0  0  0  0  0  0  0
   -0.1463   -0.1722   -1.2766 H   0  0  0  0  0  0  0  0  0  0  0  0
    2.0134    1.2601   -1.4581 H   0  0  0  0  0  0  0  0  0  0  0  0
    1.2900    2.4044   -0.3573 H   0  0  0  0  0  0  0  0  0  0  0  0
    0.8678    0.8318   -3.7125 H   0  0  0  0  0  0  0  0  0  0  0  0
   -0.3201    4.0110   -1.0594 H   0  0  0  0  0  0  0  0  0  0  0  0
   -0.2700    1.9698   -5.5834 H   0  0  0  0  0  0  0  0  0  0  0  0
   -1.4567    5.1465   -2.9321 H   0  0  0  0  0  0  0  0  0  0  0  0
   -1.9700    5.0859   -5.1061 H   0  0  0  0  0  0  0  0  0  0  0  0
    0.4024   -0.2323    1.7775 N   0  0  0  0  0  0  0  0  0  0  0  0
    0.9721   -0.8661    2.9447 C   0  0  2  0  0  0  0  0  0  0  0  0
    1.3606   -2.2889    2.5648 C   0  0  0  0  0  0  0  0  0  0  0  0
    0.8586   -2.8912    1.6180 O   0  0  0  0  0  0  0  0  0  0  0  0
   -0.0059   -0.8623    4.1093 C   0  0  0  0  0  0  0  0  0  0  0  0
   -0.4906    0.2422    1.8737 H   0  0  0  0  0  0  0  0  0  0  0  0
    1.8720   -0.2985    3.2054 H   0  0  0  0  0  0  0  0  0  0  0  0
   -0.9140   -1.4263    3.8668 H   0  0  0  0  0  0  0  0  0  0  0  0
    0.4374   -1.3172    5.0012 H   0  0  0  0  0  0  0  0  0  0  0  0
   -0.3072    0.1601    4.3618 H   0  0  0  0  0  0  0  0  0  0  0  0
    2.3023   -2.8224    3.4335 N   0  0  0  0  0  0  0  0  0  0  0  0
    2.8223   -4.1624    3.2925 C   0  0  0  0  0  0  0  0  0  0  0  0
    2.6773   -2.2446    4.1801 H   0  0  0  0  0  0  0  0  0  0  0  0
    2.2202   -4.8556    3.8982 H   0  0  0  0  0  0  0  0  0  0  0  0
    2.7761   -4.4641    2.2357 H   0  0  0  0  0  0  0  0  0  0  0  0
    3.8670   -4.1882    3.6358 H   0  0  0  0  0  0  0  0  0  0  0  0
 23 25  2  0  0  0  0
 22 23  1  0  0  0  0
 24 26  1  0  0  0  0
 22 24  2  0  0  0  0
 25 27  1  0  0  0  0
 26 27  2  0  0  0  0
 21 22  1  0  0  0  0
 27 28  1  0  0  0  0
  1  3  1  0  0  0  0
  1  7  1  0  0  0  0
  1  2  2  0  0  0  0
 39 40  1  0  0  0  0
 40 48  1  0  0  0  0
 40 41  2  0  0  0  0
  8  9  1  0  0  0  0
  9 17  1  0  0  0  0
  9 10  2  0  0  0  0
 18 19  1  0  0  0  0
 19 38  1  0  0  0  0
 19 20  2  0  0  0  0
 39 42  1  0  0  0  0
  8 11  1  0  0  0  0
 48 49  1  0  0  0  0
 18 21  1  0  0  0  0
 38 39  1  0  0  0  0
  7  8  1  0  0  0  0
 17 18  1  0  0  0  0
 23 33  1  0  0  0  0
 24 34  1  0  0  0  0
 25 35  1  0  0  0  0
 26 36  1  0  0  0  0
  3  4  1  0  0  0  0
  3  5  1  0  0  0  0
  3  6  1  0  0  0  0
 42 45  1  0  0  0  0
 42 46  1  0  0  0  0
 42 47  1  0  0  0  0
 11 14  1  0  0  0  0
 11 15  1  0  0  0  0
 11 16  1  0  0  0  0
 49 51  1  0  0  0  0
 49 52  1  0  0  0  0
 49 53  1  0  0  0  0
 21 31  1  0  0  0  0
 21 32  1  0  0  0  0
 39 44  1  0  0  0  0
  8 13  1  0  0  0  0
 18 30  1  0  0  0  0
 48 50  1  0  0  0  0
  7 12  1  0  0  0  0
 38 43  1  0  0  0  0
 17 29  1  0  0  0  0
 28 37  1  0  0  0  0
M  END
$$$$

  -OEChem-05262214473D

 53 53  0     1  0  0  0  0  0999 V2000
   -1.9298    0.2574    3.9747 C   0  0  0  0  0  0  0  0  0  0  0  0
   -0.9825   -0.3573    3.4990 O   0  0  0  0  0  0  0  0  0  0  0  0
   -2.3617   -0.0250    5.3754 C   0  0  0  0  0  0  0  0  0  0  0  0
   -3.1214   -0.8213    5.4288 H   0  0  0  0  0  0  0  0  0  0  0  0
   -1.5305   -0.3726    6.0097 H   0  0  0  0  0  0  0  0  0  0  0  0
   -2.7997    0.8299    5.9150 H   0  0  0  0  0  0  0  0  0  0  0  0
   -2.6795    1.2298    3.3336 N   0  0  0  0  0  0  0  0  0  0  0  0
   -2.4327    1.6559    1.9812 C   0  0  2  0  0  0  0  0  0  0  0  0
   -1.0977    1.0705    1.5400 C   0  0  0  0  0  0  0  0  0  0  0  0
   -0.2256    0.7177    2.3313 O   0  0  0  0  0  0  0  0  0  0  0  0
   -2.4239    3.1726    1.8718 C   0  0  0  0  0  0  0  0  0  0  0  0
   -3.4446    1.6657    3.8454 H   0  0  0  0  0  0  0  0  0  0  0  0
   -3.2368    1.2374    1.3661 H   0  0  0  0  0  0  0  0  0  0  0  0
   -1.6248    3.6099    2.4815 H   0  0  0  0  0  0  0  0  0  0  0  0
   -2.2644    3.4949    0.8375 H   0  0  0  0  0  0  0  0  0  0  0  0
   -3.3741    3.5939    2.2175 H   0  0  0  0  0  0  0  0  0  0  0  0
   -0.9750    1.0274    0.1566 N   0  0  0  0  0  0  0  0  0  0  0  0
    0.2023    0.5266   -0.5070 C   0  0  2  0  0  0  0  0  0  0  0  0
    1.0141   -0.2392    0.5316 C   0  0  0  0  0  0  0  0  0  0  0  0
    2.1998   -0.5238    0.3771 O   0  0  0  0  0  0  0  0  0  0  0  0
    1.0451    1.6518   -1.1184 C   0  0  0  0  0  0  0  0  0  0  0  0
    0.3488    2.3466   -2.2630 C   0  0  0  0  0  0  0  0  0  0  0  0
    0.3603    1.7764   -3.5360 C   0  0  0  0  0  0  0  0  0  0  0  0
   -0.3058    3.5594   -2.0480 C   0  0  0  0  0  0  0  0  0  0  0  0
   -0.2828    2.4189   -4.5939 C   0  0  0  0  0  0  0  0  0  0  0  0
   -0.9489    4.2020   -3.1059 C   0  0  0  0  0  0  0  0  0  0  0  0
   -0.9374    3.6317   -4.3789 C   0  0  0  0  0  0  0  0  0  0  0  0
   -1.5637    4.2592   -5.4116 O   0  0  0  0  0  0  0  0  0  0  0  0
   -1.7582    1.3241   -0.4207 H   0  0  0  0  0  0  0  0  0  0  0  0
   -0.1463   -0.1722   -1.2766 H   0  0  0  0  0  0  0  0  0  0  0  0
    2.0134    1.2601   -1.4581 H   0  0  0  0  0  0  0  0  0  0  0  0
    1.2900    2.4044   -0.3573 H   0  0  0  0  0  0  0  0  0  0  0  0
    0.8678    0.8318   -3.7125 H   0  0  0  0  0  0  0  0  0  0  0  0
   -0.3201    4.0110   -1.0594 H   0  0  0  0  0  0  0  0  0  0  0  0
   -0.2700    1.9698   -5.5834 H   0  0  0  0  0  0  0  0  0  0  0  0
   -1.4567    5.1465   -2.9321 H   0  0  0  0  0  0  0  0  0  0  0  0
   -1.9700    5.0859   -5.1061 H   0  0  0  0  0  0  0  0  0  0  0  0
    0.2695   -0.5210    1.6685 N   0  0  0  0  0  0  0  0  0  0  0  0
    0.8055   -1.2179    2.8156 C   0  0  2  0  0  0  0  0  0  0  0  0
    1.4930   -2.4827    2.3184 C   0  0  0  0  0  0  0  0  0  0  0  0
    1.2264   -3.0120    1.2415 O   0  0  0  0  0  0  0  0  0  0  0  0
   -0.2864   -1.5517    3.8201 C   0  0  0  0  0  0  0  0  0  0  0  0
   -0.7010   -0.2223    1.6957 H   0  0  0  0  0  0  0  0  0  0  0  0
    1.5475   -0.5532    3.2712 H   0  0  0  0  0  0  0  0  0  0  0  0
   -1.0392   -2.2170    3.3816 H   0  0  0  0  0  0  0  0  0  0  0  0
    0.1255   -2.0543    4.7015 H   0  0  0  0  0  0  0  0  0  0  0  0
   -0.7996   -0.6435    4.1541 H   0  0  0  0  0  0  0  0  0  0  0  0
    2.4085   -2.9750    3.2381 N   0  0  0  0  0  0  0  0  0  0  0  0
    3.1808   -4.1728    3.0046 C   0  0  0  0  0  0  0  0  0  0  0  0
    2.5793   -2.4609    4.0973 H   0  0  0  0  0  0  0  0  0  0  0  0
    2.6507   -5.0396    3.4260 H   0  0  0  0  0  0  0  0  0  0  0  0
    3.3161   -4.3166    1.9224 H   0  0  0  0  0  0  0  0  0  0  0  0
    4.1644   -4.0746    3.4871 H   0  0  0  0  0  0  0  0  0  0  0  0
 23 25  2  0  0  0  0
 22 23  1  0  0  0  0
 24 26  1  0  0  0  0
 22 24  2  0  0  0  0
 25 27  1  0  0  0  0
 26 27  2  0  0  0  0
 21 22  1  0  0  0  0
 27 28  1  0  0  0  0
  1  3  1  0  0  0  0
  1  7  1  0  0  0  0
  1  2  2  0  0  0  0
 39 40  1  0  0  0  0
 40 48  1  0  0  0  0
 40 41  2  0  0  0  0
  8  9  1  0  0  0  0
  9 17  1  0  0  0  0
  9 10  2  0  0  0  0
 18 19  1  0  0  0  0
 19 38  1  0  0  0  0
 19 20  2  0  0  0  0
 39 42  1  0  0  0  0
  8 11  1  0  0  0  0
 48 49  1  0  0  0  0
 18 21  1  0  0  0  0
 38 39  1  0  0  0  0
  7  8  1  0  0  0  0
 17 18  1  0  0  0  0
 23 33  1  0  0  0  0
 24 34  1  0  0  0  0
 25 35  1  0  0  0  0
 26 36  1  0  0  0  0
  3  4  1  0  0  0  0
  3  5  1  0  0  0  0
  3  6  1  0  0  0  0
 42 45  1  0  0  0  0
 42 46  1  0  0  0  0
 42 47  1  0  0  0  0
 11 14  1  0  0  0  0
 11 15  1  0  0  0  0
 11 16  1  0  0  0  0
 49 51  1  0  0  0  0
 49 52  1  0  0  0  0
 49 53  1  0  0  0  0
 21 31  1  0  0  0  0
 21 32  1  0  0  0  0
 39 44  1  0  0  0  0
  8 13  1  0  0  0  0
 18 30  1  0  0  0  0
 48 50  1  0  0  0  0
  7 12  1  0  0  0  0
 38 43  1  0  0  0  0
 17 29  1  0  0  0  0
 28 37  1  0  0  0  0
M  END
$$$$

  -OEChem-05262214473D

 53 53  0     1  0  0  0  0  0999 V2000
   -1.9298    0.2574    3.9747 C   0  0  0  0  0  0  0  0  0  0  0  0
   -0.9825   -0.3573    3.4990 O   0  0  0  0  0  0  0  0  0  0  0  0
   -2.3617   -0.0250    5.3754 C   0  0  0  0  0  0  0  0  0  0  0  0
   -3.1214   -0.8213    5.4288 H   0  0  0  0  0  0  0  0  0  0  0  0
   -1.5305   -0.3726    6.0097 H   0  0  0  0  0  0  0  0  0  0  0  0
   -2.7997    0.8299    5.9150 H   0  0  0  0  0  0  0  0  0  0  0  0
   -2.6795    1.2298    3.3336 N   0  0  0  0  0  0  0  0  0  0  0  0
   -2.4327    1.6559    1.9812 C   0  0  2  0  0  0  0  0  0  0  0  0
   -1.0977    1.0705    1.5400 C   0  0  0  0  0  0  0  0  0  0  0  0
   -0.2256    0.7177    2.3313 O   0  0  0  0  0  0  0  0  0  0  0  0
   -2.4239    3.1726    1.8718 C   0  0  0  0  0  0  0  0  0  0  0  0
   -3.4446    1.6657    3.8454 H   0  0  0  0  0  0  0  0  0  0  0  0
   -3.2368    1.2374    1.3661 H   0  0  0  0  0  0  0  0  0  0  0  0
   -1.6248    3.6099    2.4815 H   0  0  0  0  0  0  0  0  0  0  0  0
   -2.2644    3.4949    0.8375 H   0  0  0  0  0  0  0  0  0  0  0  0
   -3.3741    3.5939    2.2175 H   0  0  0  0  0  0  0  0  0  0  0  0
   -0.9750    1.0274    0.1566 N   0  0  0  0  0  0  0  0  0  0  0  0
    0.2023    0.5266   -0.5070 C   0  0  2  0  0  0  0  0  0  0  0  0
    1.0141   -0.2392    0.5316 C   0  0  0  0  0  0  0  0  0  0  0  0
    2.2418   -0.2952    0.5128 O   0  0  0  0  0  0  0  0  0  0  0  0
    1.0451    1.6518   -1.1184 C   0  0  0  0  0  0  0  0  0  0  0  0
    0.3488    2.3466   -2.2630 C   0  0  0  0  0  0  0  0  0  0  0  0
    0.3603    1.7764   -3.5360 C   0  0  0  0  0  0  0  0  0  0  0  0
   -0.3058    3.5594   -2.0480 C   0  0  0  0  0  0  0  0  0  0  0  0
   -0.2828    2.4189   -4.5939 C   0  0  0  0  0  0  0  0  0  0  0  0
   -0.9489    4.2020   -3.1059 C   0  0  0  0  0  0  0  0  0  0  0  0
   -0.9374    3.6317   -4.3789 C   0  0  0  0  0  0  0  0  0  0  0  0
   -1.5637    4.2592   -5.4116 O   0  0  0  0  0  0  0  0  0  0  0  0
   -1.7582    1.3241   -0.4207 H   0  0  0  0  0  0  0  0  0  0  0  0
   -0.1463   -0.1722   -1.2766 H   0  0  0  0  0  0  0  0  0  0  0  0
    2.0134    1.2601   -1.4581 H   0  0  0  0  0  0  0  0  0  0  0  0
    1.2900    2.4044   -0.3573 H   0  0  0  0  0  0  0  0  0  0  0  0
    0.8678    0.8318   -3.7125 H   0  0  0  0  0  0  0  0  0  0  0  0
   -0.3201    4.0110   -1.0594 H   0  0  0  0  0  0  0  0  0  0  0  0
   -0.2700    1.9698   -5.5834 H   0  0  0  0  0  0  0  0  0  0  0  0
   -1.4567    5.1465   -2.9321 H   0  0  0  0  0  0  0  0  0  0  0  0
   -1.9700    5.0859   -5.1061 H   0  0  0  0  0  0  0  0  0  0  0  0
    0.2061   -0.8083    1.5062 N   0  0  0  0  0  0  0  0  0  0  0  0
    0.7233   -1.5693    2.6207 C   0  0  2  0  0  0  0  0  0  0  0  0
    1.6871   -2.6126    2.0710 C   0  0  0  0  0  0  0  0  0  0  0  0
    1.6518   -3.0120    0.9089 O   0  0  0  0  0  0  0  0  0  0  0  0
   -0.3982   -2.2273    3.4093 C   0  0  0  0  0  0  0  0  0  0  0  0
   -0.7992   -0.6835    1.4324 H   0  0  0  0  0  0  0  0  0  0  0  0
    1.2704   -0.8655    3.2575 H   0  0  0  0  0  0  0  0  0  0  0  0
   -0.9576   -2.9359    2.7877 H   0  0  0  0  0  0  0  0  0  0  0  0
   -0.0069   -2.7800    4.2698 H   0  0  0  0  0  0  0  0  0  0  0  0
   -1.1066   -1.4780    3.7787 H   0  0  0  0  0  0  0  0  0  0  0  0
    2.5633   -3.0767    3.0420 N   0  0  0  0  0  0  0  0  0  0  0  0
    3.5664   -4.0800    2.7716 C   0  0  0  0  0  0  0  0  0  0  0  0
    2.5335   -2.6756    3.9747 H   0  0  0  0  0  0  0  0  0  0  0  0
    3.1603   -5.0763    3.0006 H   0  0  0  0  0  0  0  0  0  0  0  0
    3.8523   -4.0358    1.7103 H   0  0  0  0  0  0  0  0  0  0  0  0
    4.4510   -3.8920    3.3978 H   0  0  0  0  0  0  0  0  0  0  0  0
 23 25  2  0  0  0  0
 22 23  1  0  0  0  0
 24 26  1  0  0  0  0
 22 24  2  0  0  0  0
 25 27  1  0  0  0  0
 26 27  2  0  0  0  0
 21 22  1  0  0  0  0
 27 28  1  0  0  0  0
  1  3  1  0  0  0  0
  1  7  1  0  0  0  0
  1  2  2  0  0  0  0
 39 40  1  0  0  0  0
 40 48  1  0  0  0  0
 40 41  2  0  0  0  0
  8  9  1  0  0  0  0
  9 17  1  0  0  0  0
  9 10  2  0  0  0  0
 18 19  1  0  0  0  0
 19 38  1  0  0  0  0
 19 20  2  0  0  0  0
 39 42  1  0  0  0  0
  8 11  1  0  0  0  0
 48 49  1  0  0  0  0
 18 21  1  0  0  0  0
 38 39  1  0  0  0  0
  7  8  1  0  0  0  0
 17 18  1  0  0  0  0
 23 33  1  0  0  0  0
 24 34  1  0  0  0  0
 25 35  1  0  0  0  0
 26 36  1  0  0  0  0
  3  4  1  0  0  0  0
  3  5  1  0  0  0  0
  3  6  1  0  0  0  0
 42 45  1  0  0  0  0
 42 46  1  0  0  0  0
 42 47  1  0  0  0  0
 11 14  1  0  0  0  0
 11 15  1  0  0  0  0
 11 16  1  0  0  0  0
 49 51  1  0  0  0  0
 49 52  1  0  0  0  0
 49 53  1  0  0  0  0
 21 31  1  0  0  0  0
 21 32  1  0  0  0  0
 39 44  1  0  0  0  0
  8 13  1  0  0  0  0
 18 30  1  0  0  0  0
 48 50  1  0  0  0  0
  7 12  1  0  0  0  0
 38 43  1  0  0  0  0
 17 29  1  0  0  0  0
 28 37  1  0  0  0  0
M  END
$$$$

  -OEChem-05262214473D

 53 53  0     1  0  0  0  0  0999 V2000
   -1.9298    0.2574    3.9747 C   0  0  0  0  0  0  0  0  0  0  0  0
   -0.9825   -0.3573    3.4990 O   0  0  0  0  0  0  0  0  0  0  0  0
   -2.3617   -0.0250    5.3754 C   0  0  0  0  0  0  0  0  0  0  0  0
   -3.1214   -0.8213    5.4288 H   0  0  0  0  0  0  0  0  0  0  0  0
   -1.5305   -0.3726    6.0097 H   0  0  0  0  0  0  0  0  0  0  0  0
   -2.7997    0.8299    5.9150 H   0  0  0  0  0  0  0  0  0  0  0  0
   -2.6795    1.2298    3.3336 N   0  0  0  0  0  0  0  0  0  0  0  0
   -2.4327    1.6559    1.9812 C   0  0  2  0  0  0  0  0  0  0  0  0
   -1.0977    1.0705    1.5400 C   0  0  0  0  0  0  0  0  0  0  0  0
   -0.2256    0.7177    2.3313 O   0  0  0  0  0  0  0  0  0  0  0  0
   -2.4239    3.1726    1.8718 C   0  0  0  0  0  0  0  0  0  0  0  0
   -3.4446    1.6657    3.8454 H   0  0  0  0  0  0  0  0  0  0  0  0
   -3.2368    1.2374    1.3661 H   0  0  0  0  0  0  0  0  0  0  0  0
   -1.6248    3.6099    2.4815 H   0  0  0  0  0  0  0  0  0  0  0  0
   -2.2644    3.4949    0.8375 H   0  0  0  0  0  0  0  0  0  0  0  0
   -3.3741    3.5939    2.2175 H   0  0  0  0  0  0  0  0  0  0  0  0
   -0.9750    1.0274    0.1566 N   0  0  0  0  0  0  0  0  0  0  0  0
    0.2023    0.5266   -0.5070 C   0  0  2  0  0  0  0  0  0  0  0  0
    1.0141   -0.2392    0.5316 C   0  0  0  0  0  0  0  0  0  0  0  0
    2.2245   -0.0857    0.6809 O   0  0  0  0  0  0  0  0  0  0  0  0
    1.0451    1.6518   -1.1184 C   0  0  0  0  0  0  0  0  0  0  0  0
    0.3488    2.3466   -2.2630 C   0  0  0  0  0  0  0  0  0  0  0  0
    0.3603    1.7764   -3.5360 C   0  0  0  0  0  0  0  0  0  0  0  0
   -0.3058    3.5594   -2.0480 C   0  0  0  0  0  0  0  0  0  0  0  0
   -0.2828    2.4189   -4.5939 C   0  0  0  0  0  0  0  0  0  0  0  0
   -0.9489    4.2020   -3.1059 C   0  0  0  0  0  0  0  0  0  0  0  0
   -0.9374    3.6317   -4.3789 C   0  0  0  0  0  0  0  0  0  0  0  0
   -1.5637    4.2592   -5.4116 O   0  0  0  0  0  0  0  0  0  0  0  0
   -1.7582    1.3241   -0.4207 H   0  0  0  0  0  0  0  0  0  0  0  0
   -0.1463   -0.1722   -1.2766 H   0  0  0  0  0  0  0  0  0  0  0  0
    2.0134    1.2601   -1.4581 H   0  0  0  0  0  0  0  0  0  0  0  0
    1.2900    2.4044   -0.3573 H   0  0  0  0  0  0  0  0  0  0  0  0
    0.8678    0.8318   -3.7125 H   0  0  0  0  0  0  0  0  0  0  0  0
   -0.3201    4.0110   -1.0594 H   0  0  0  0  0  0  0  0  0  0  0  0
   -0.2700    1.9698   -5.5834 H   0  0  0  0  0  0  0  0  0  0  0  0
   -1.4567    5.1465   -2.9321 H   0  0  0  0  0  0  0  0  0  0  0  0
   -1.9700    5.0859   -5.1061 H   0  0  0  0  0  0  0  0  0  0  0  0
    0.2167   -1.0745    1.3016 N   0  0  0  0  0  0  0  0  0  0  0  0
    0.7313   -1.8963    2.3734 C   0  0  2  0  0  0  0  0  0  0  0  0
    1.9296   -2.6697    1.8392 C   0  0  0  0  0  0  0  0  0  0  0  0
    2.1060   -2.8912    0.6430 O   0  0  0  0  0  0  0  0  0  0  0  0
   -0.3336   -2.8430    2.9049 C   0  0  0  0  0  0  0  0  0  0  0  0
   -0.7786   -1.1101    1.1018 H   0  0  0  0  0  0  0  0  0  0  0  0
    1.0595   -1.2142    3.1652 H   0  0  0  0  0  0  0  0  0  0  0  0
   -0.6749   -3.5342    2.1256 H   0  0  0  0  0  0  0  0  0  0  0  0
    0.0494   -3.4447    3.7357 H   0  0  0  0  0  0  0  0  0  0  0  0
   -1.2071   -2.2864    3.2612 H   0  0  0  0  0  0  0  0  0  0  0  0
    2.7563   -3.1206    2.8588 N   0  0  0  0  0  0  0  0  0  0  0  0
    3.9528   -3.8902    2.6095 C   0  0  0  0  0  0  0  0  0  0  0  0
    2.5431   -2.8741    3.8208 H   0  0  0  0  0  0  0  0  0  0  0  0
    3.7144   -4.9633    2.6508 H   0  0  0  0  0  0  0  0  0  0  0  0
    4.3484   -3.6407    1.6139 H   0  0  0  0  0  0  0  0  0  0  0  0
    4.7072   -3.6527    3.3740 H   0  0  0  0  0  0  0  0  0  0  0  0
 23 25  2  0  0  0  0
 22 23  1  0  0  0  0
 24 26  1  0  0  0  0
 22 24  2  0  0  0  0
 25 27  1  0  0  0  0
 26 27  2  0  0  0  0
 21 22  1  0  0  0  0
 27 28  1  0  0  0  0
  1  3  1  0  0  0  0
  1  7  1  0  0  0  0
  1  2  2  0  0  0  0
 39 40  1  0  0  0  0
 40 48  1  0  0  0  0
 40 41  2  0  0  0  0
  8  9  1  0  0  0  0
  9 17  1  0  0  0  0
  9 10  2  0  0  0  0
 18 19  1  0  0  0  0
 19 38  1  0  0  0  0
 19 20  2  0  0  0  0
 39 42  1  0  0  0  0
  8 11  1  0  0  0  0
 48 49  1  0  0  0  0
 18 21  1  0  0  0  0
 38 39  1  0  0  0  0
  7  8  1  0  0  0  0
 17 18  1  0  0  0  0
 23 33  1  0  0  0  0
 24 34  1  0  0  0  0
 25 35  1  0  0  0  0
 26 36  1  0  0  0  0
  3  4  1  0  0  0  0
  3  5  1  0  0  0  0
  3  6  1  0  0  0  0
 42 45  1  0  0  0  0
 42 46  1  0  0  0  0
 42 47  1  0  0  0  0
 11 14  1  0  0  0  0
 11 15  1  0  0  0  0
 11 16  1  0  0  0  0
 49 51  1  0  0  0  0
 49 52  1  0  0  0  0
 49 53  1  0  0  0  0
 21 31  1  0  0  0  0
 21 32  1  0  0  0  0
 39 44  1  0  0  0  0
  8 13  1  0  0  0  0
 18 30  1  0  0  0  0
 48 50  1  0  0  0  0
  7 12  1  0  0  0  0
 38 43  1  0  0  0  0
 17 29  1  0  0  0  0
 28 37  1  0  0  0  0
M  END
$$$$

  -OEChem-05262214473D

 53 53  0     1  0  0  0  0  0999 V2000
   -1.9298    0.2574    3.9747 C   0  0  0  0  0  0  0  0  0  0  0  0
   -0.9825   -0.3573    3.4990 O   0  0  0  0  0  0  0  0  0  0  0  0
   -2.3617   -0.0250    5.3754 C   0  0  0  0  0  0  0  0  0  0  0  0
   -3.1214   -0.8213    5.4288 H   0  0  0  0  0  0  0  0  0  0  0  0
   -1.5305   -0.3726    6.0097 H   0  0  0  0  0  0  0  0  0  0  0  0
   -2.7997    0.8299    5.9150 H   0  0  0  0  0  0  0  0  0  0  0  0
   -2.6795    1.2298    3.3336 N   0  0  0  0  0  0  0  0  0  0  0  0
   -2.4327    1.6559    1.9812 C   0  0  2  0  0  0  0  0  0  0  0  0
   -1.0977    1.0705    1.5400 C   0  0  0  0  0  0  0  0  0  0  0  0
   -0.2256    0.7177    2.3313 O   0  0  0  0  0  0  0  0  0  0  0  0
   -2.4239    3.1726    1.8718 C   0  0  0  0  0  0  0  0  0  0  0  0
   -3.4446    1.6657    3.8454 H   0  0  0  0  0  0  0  0  0  0  0  0
   -3.2368    1.2374    1.3661 H   0  0  0  0  0  0  0  0  0  0  0  0
   -1.6248    3.6099    2.4815 H   0  0  0  0  0  0  0  0  0  0  0  0
   -2.2644    3.4949    0.8375 H   0  0  0  0  0  0  0  0  0  0  0  0
   -3.3741    3.5939    2.2175 H   0  0  0  0  0  0  0  0  0  0  0  0
   -0.9750    1.0274    0.1566 N   0  0  0  0  0  0  0  0  0  0  0  0
    0.2023    0.5266   -0.5070 C   0  0  2  0  0  0  0  0  0  0  0  0
    1.0141   -0.2392    0.5316 C   0  0  0  0  0  0  0  0  0  0  0  0
    2.1489    0.0905    0.8699 O   0  0  0  0  0  0  0  0  0  0  0  0
    1.0451    1.6518   -1.1184 C   0  0  0  0  0  0  0  0  0  0  0  0
    0.3488    2.3466   -2.2630 C   0  0  0  0  0  0  0  0  0  0  0  0
    0.3603    1.7764   -3.5360 C   0  0  0  0  0  0  0  0  0  0  0  0
   -0.3058    3.5594   -2.0480 C   0  0  0  0  0  0  0  0  0  0  0  0
   -0.2828    2.4189   -4.5939 C   0  0  0  0  0  0  0  0  0  0  0  0
   -0.9489    4.2020   -3.1059 C   0  0  0  0  0  0  0  0  0  0  0  0
   -0.9374    3.6317   -4.3789 C   0  0  0  0  0  0  0  0  0  0  0  0
   -1.5637    4.2592   -5.4116 O   0  0  0  0  0  0  0  0  0  0  0  0
   -1.7582    1.3241   -0.4207 H   0  0  0  0  0  0  0  0  0  0  0  0
   -0.1463   -0.1722   -1.2766 H   0  0  0  0  0  0  0  0  0  0  0  0
    2.0134    1.2601   -1.4581 H   0  0  0  0  0  0  0  0  0  0  0  0
    1.2900    2.4044   -0.3573 H   0  0  0  0  0  0  0  0  0  0  0  0
    0.8678    0.8318   -3.7125 H   0  0  0  0  0  0  0  0  0  0  0  0
   -0.3201    4.0110   -1.0594 H   0  0  0  0  0  0  0  0  0  0  0  0
   -0.2700    1.9698   -5.5834 H   0  0  0  0  0  0  0  0  0  0  0  0
   -1.4567    5.1465   -2.9321 H   0  0  0  0  0  0  0  0  0  0  0  0
   -1.9700    5.0859   -5.1061 H   0  0  0  0  0  0  0  0  0  0  0  0
    0.3005   -1.3017    1.0686 N   0  0  0  0  0  0  0  0  0  0  0  0
    0.8288   -2.1767    2.0904 C   0  0  2  0  0  0  0  0  0  0  0  0
    2.2041   -2.6502    1.6391 C   0  0  0  0  0  0  0  0  0  0  0  0
    2.5580   -2.6577    0.4619 O   0  0  0  0  0  0  0  0  0  0  0  0
   -0.0971   -3.3568    2.3412 C   0  0  0  0  0  0  0  0  0  0  0  0
   -0.6404   -1.4729    0.7262 H   0  0  0  0  0  0  0  0  0  0  0  0
    0.9294   -1.5755    3.0006 H   0  0  0  0  0  0  0  0  0  0  0  0
   -0.2102   -3.9709    1.4403 H   0  0  0  0  0  0  0  0  0  0  0  0
    0.2904   -4.0033    3.1354 H   0  0  0  0  0  0  0  0  0  0  0  0
   -1.0944   -3.0137    2.6368 H   0  0  0  0  0  0  0  0  0  0  0  0
    2.9742   -3.1038    2.7008 N   0  0  0  0  0  0  0  0  0  0  0  0
    4.3136   -3.6165    2.5294 C   0  0  0  0  0  0  0  0  0  0  0  0
    2.6074   -3.0430    3.6460 H   0  0  0  0  0  0  0  0  0  0  0  0
    4.2751   -4.7082    2.4006 H   0  0  0  0  0  0  0  0  0  0  0  0
    4.7704   -3.1583    1.6398 H   0  0  0  0  0  0  0  0  0  0  0  0
    4.9156   -3.3731    3.4172 H   0  0  0  0  0  0  0  0  0  0  0  0
 23 25  2  0  0  0  0
 22 23  1  0  0  0  0
 24 26  1  0  0  0  0
 22 24  2  0  0  0  0
 25 27  1  0  0  0  0
 26 27  2  0  0  0  0
 21 22  1  0  0  0  0
 27 28  1  0  0  0  0
  1  3  1  0  0  0  0
  1  7  1  0  0  0  0
  1  2  2  0  0  0  0
 39 40  1  0  0  0  0
 40 48  1  0  0  0  0
 40 41  2  0  0  0  0
  8  9  1  0  0  0  0
  9 17  1  0  0  0  0
  9 10  2  0  0  0  0
 18 19  1  0  0  0  0
 19 38  1  0  0  0  0
 19 20  2  0  0  0  0
 39 42  1  0  0  0  0
  8 11  1  0  0  0  0
 48 49  1  0  0  0  0
 18 21  1  0  0  0  0
 38 39  1  0  0  0  0
  7  8  1  0  0  0  0
 17 18  1  0  0  0  0
 23 33  1  0  0  0  0
 24 34  1  0  0  0  0
 25 35  1  0  0  0  0
 26 36  1  0  0  0  0
  3  4  1  0  0  0  0
  3  5  1  0  0  0  0
  3  6  1  0  0  0  0
 42 45  1  0  0  0  0
 42 46  1  0  0  0  0
 42 47  1  0  0  0  0
 11 14  1  0  0  0  0
 11 15  1  0  0  0  0
 11 16  1  0  0  0  0
 49 51  1  0  0  0  0
 49 52  1  0  0  0  0
 49 53  1  0  0  0  0
 21 31  1  0  0  0  0
 21 32  1  0  0  0  0
 39 44  1  0  0  0  0
  8 13  1  0  0  0  0
 18 30  1  0  0  0  0
 48 50  1  0  0  0  0
  7 12  1  0  0  0  0
 38 43  1  0  0  0  0
 17 29  1  0  0  0  0
 28 37  1  0  0  0  0
M  END
$$$$

  -OEChem-05262214473D

 53 53  0     1  0  0  0  0  0999 V2000
   -1.9298    0.2574    3.9747 C   0  0  0  0  0  0  0  0  0  0  0  0
   -0.9825   -0.3573    3.4990 O   0  0  0  0  0  0  0  0  0  0  0  0
   -2.3617   -0.0250    5.3754 C   0  0  0  0  0  0  0  0  0  0  0  0
   -3.1214   -0.8213    5.4288 H   0  0  0  0  0  0  0  0  0  0  0  0
   -1.5305   -0.3726    6.0097 H   0  0  0  0  0  0  0  0  0  0  0  0
   -2.7997    0.8299    5.9150 H   0  0  0  0  0  0  0  0  0  0  0  0
   -2.6795    1.2298    3.3336 N   0  0  0  0  0  0  0  0  0  0  0  0
   -2.4327    1.6559    1.9812 C   0  0  2  0  0  0  0  0  0  0  0  0
   -1.0977    1.0705    1.5400 C   0  0  0  0  0  0  0  0  0  0  0  0
   -0.2256    0.7177    2.3313 O   0  0  0  0  0  0  0  0  0  0  0  0
   -2.4239    3.1726    1.8718 C   0  0  0  0  0  0  0  0  0  0  0  0
   -3.4446    1.6657    3.8454 H   0  0  0  0  0  0  0  0  0  0  0  0
   -3.2368    1.2374    1.3661 H   0  0  0  0  0  0  0  0  0  0  0  0
   -1.6248    3.6099    2.4815 H   0  0  0  0  0  0  0  0  0  0  0  0
   -2.2644    3.4949    0.8375 H   0  0  0  0  0  0  0  0  0  0  0  0
   -3.3741    3.5939    2.2175 H   0  0  0  0  0  0  0  0  0  0  0  0
   -0.9750    1.0274    0.1566 N   0  0  0  0  0  0  0  0  0  0  0  0
    0.2023    0.5266   -0.5070 C   0  0  2  0  0  0  0  0  0  0  0  0
    1.0141   -0.2392    0.5316 C   0  0  0  0  0  0  0  0  0  0  0  0
    2.0202    0.2213    1.0668 O   0  0  0  0  0  0  0  0  0  0  0  0
    1.0451    1.6518   -1.1184 C   0  0  0  0  0  0  0  0  0  0  0  0
    0.3488    2.3466   -2.2630 C   0  0  0  0  0  0  0  0  0  0  0  0
    0.3603    1.7764   -3.5360 C   0  0  0  0  0  0  0  0  0  0  0  0
   -0.3058    3.5594   -2.0480 C   0  0  0  0  0  0  0  0  0  0  0  0
   -0.2828    2.4189   -4.5939 C   0  0  0  0  0  0  0  0  0  0  0  0
   -0.9489    4.2020   -3.1059 C   0  0  0  0  0  0  0  0  0  0  0  0
   -0.9374    3.6317   -4.3789 C   0  0  0  0  0  0  0  0  0  0  0  0
   -1.5637    4.2592   -5.4116 O   0  0  0  0  0  0  0  0  0  0  0  0
   -1.7582    1.3241   -0.4207 H   0  0  0  0  0  0  0  0  0  0  0  0
   -0.1463   -0.1722   -1.2766 H   0  0  0  0  0  0  0  0  0  0  0  0
    2.0134    1.2601   -1.4581 H   0  0  0  0  0  0  0  0  0  0  0  0
    1.2900    2.4044   -0.3573 H   0  0  0  0  0  0  0  0  0  0  0  0
    0.8678    0.8318   -3.7125 H   0  0  0  0  0  0  0  0  0  0  0  0
   -0.3201    4.0110   -1.0594 H   0  0  0  0  0  0  0  0  0  0  0  0
   -0.2700    1.9698   -5.5834 H   0  0  0  0  0  0  0  0  0  0  0  0
   -1.4567    5.1465   -2.9321 H   0  0  0  0  0  0  0  0  0  0  0  0
   -1.9700    5.0859   -5.1061 H   0  0  0  0  0  0  0  0  0  0  0  0
    0.4517   -1.4742    0.8232 N   0  0  0  0  0  0  0  0  0  0  0  0
    1.0091   -2.3913    1.7911 C   0  0  2  0  0  0  0  0  0  0  0  0
    2.4918   -2.5553    1.4841 C   0  0  0  0  0  0  0  0  0  0  0  0
    2.9770   -2.3275    0.3779 O   0  0  0  0  0  0  0  0  0  0  0  0
    0.2952   -3.7337    1.7566 C   0  0  0  0  0  0  0  0  0  0  0  0
   -0.3941   -1.7472    0.3315 H   0  0  0  0  0  0  0  0  0  0  0  0
    0.8887   -1.9247    2.7748 H   0  0  0  0  0  0  0  0  0  0  0  0
    0.4048   -4.2164    0.7786 H   0  0  0  0  0  0  0  0  0  0  0  0
    0.6997   -4.4177    2.5099 H   0  0  0  0  0  0  0  0  0  0  0  0
   -0.7762   -3.6103    1.9482 H   0  0  0  0  0  0  0  0  0  0  0  0
    3.2024   -3.0273    2.5789 N   0  0  0  0  0  0  0  0  0  0  0  0
    4.6242   -3.2774    2.5366 C   0  0  0  0  0  0  0  0  0  0  0  0
    2.7220   -3.1707    3.4623 H   0  0  0  0  0  0  0  0  0  0  0  0
    4.8044   -4.3285    2.2669 H   0  0  0  0  0  0  0  0  0  0  0  0
    5.0896   -2.6215    1.7860 H   0  0  0  0  0  0  0  0  0  0  0  0
    5.0620   -3.0723    3.5246 H   0  0  0  0  0  0  0  0  0  0  0  0
 23 25  2  0  0  0  0
 22 23  1  0  0  0  0
 24 26  1  0  0  0  0
 22 24  2  0  0  0  0
 25 27  1  0  0  0  0
 26 27  2  0  0  0  0
 21 22  1  0  0  0  0
 27 28  1  0  0  0  0
  1  3  1  0  0  0  0
  1  7  1  0  0  0  0
  1  2  2  0  0  0  0
 39 40  1  0  0  0  0
 40 48  1  0  0  0  0
 40 41  2  0  0  0  0
  8  9  1  0  0  0  0
  9 17  1  0  0  0  0
  9 10  2  0  0  0  0
 18 19  1  0  0  0  0
 19 38  1  0  0  0  0
 19 20  2  0  0  0  0
 39 42  1  0  0  0  0
  8 11  1  0  0  0  0
 48 49  1  0  0  0  0
 18 21  1  0  0  0  0
 38 39  1  0  0  0  0
  7  8  1  0  0  0  0
 17 18  1  0  0  0  0
 23 33  1  0  0  0  0
 24 34  1  0  0  0  0
 25 35  1  0  0  0  0
 26 36  1  0  0  0  0
  3  4  1  0  0  0  0
  3  5  1  0  0  0  0
  3  6  1  0  0  0  0
 42 45  1  0  0  0  0
 42 46  1  0  0  0  0
 42 47  1  0  0  0  0
 11 14  1  0  0  0  0
 11 15  1  0  0  0  0
 11 16  1  0  0  0  0
 49 51  1  0  0  0  0
 49 52  1  0  0  0  0
 49 53  1  0  0  0  0
 21 31  1  0  0  0  0
 21 32  1  0  0  0  0
 39 44  1  0  0  0  0
  8 13  1  0  0  0  0
 18 30  1  0  0  0  0
 48 50  1  0  0  0  0
  7 12  1  0  0  0  0
 38 43  1  0  0  0  0
 17 29  1  0  0  0  0
 28 37  1  0  0  0  0
M  END
$$$$

  -OEChem-05262214473D

 53 53  0     1  0  0  0  0  0999 V2000
   -1.9298    0.2574    3.9747 C   0  0  0  0  0  0  0  0  0  0  0  0
   -0.9825   -0.3573    3.4990 O   0  0  0  0  0  0  0  0  0  0  0  0
   -2.3617   -0.0250    5.3754 C   0  0  0  0  0  0  0  0  0  0  0  0
   -3.1214   -0.8213    5.4288 H   0  0  0  0  0  0  0  0  0  0  0  0
   -1.5305   -0.3726    6.0097 H   0  0  0  0  0  0  0  0  0  0  0  0
   -2.7997    0.8299    5.9150 H   0  0  0  0  0  0  0  0  0  0  0  0
   -2.6795    1.2298    3.3336 N   0  0  0  0  0  0  0  0  0  0  0  0
   -2.4327    1.6559    1.9812 C   0  0  2  0  0  0  0  0  0  0  0  0
   -1.0977    1.0705    1.5400 C   0  0  0  0  0  0  0  0  0  0  0  0
   -0.2256    0.7177    2.3313 O   0  0  0  0  0  0  0  0  0  0  0  0
   -2.4239    3.1726    1.8718 C   0  0  0  0  0  0  0  0  0  0  0  0
   -3.4446    1.6657    3.8454 H   0  0  0  0  0  0  0  0  0  0  0  0
   -3.2368    1.2374    1.3661 H   0  0  0  0  0  0  0  0  0  0  0  0
   -1.6248    3.6099    2.4815 H   0  0  0  0  0  0  0  0  0  0  0  0
   -2.2644    3.4949    0.8375 H   0  0  0  0  0  0  0  0  0  0  0  0
   -3.3741    3.5939    2.2175 H   0  0  0  0  0  0  0  0  0  0  0  0
   -0.9750    1.0274    0.1566 N   0  0  0  0  0  0  0  0  0  0  0  0
    0.2023    0.5266   -0.5070 C   0  0  2  0  0  0  0  0  0  0  0  0
    1.0141   -0.2392    0.5316 C   0  0  0  0  0  0  0  0  0  0  0  0
    1.8473    0.2977    1.2584 O   0  0  0  0  0  0  0  0  0  0  0  0
    1.0451    1.6518   -1.1184 C   0  0  0  0  0  0  0  0  0  0  0  0
    0.3488    2.3466   -2.2630 C   0  0  0  0  0  0  0  0  0  0  0  0
    0.3603    1.7764   -3.5360 C   0  0  0  0  0  0  0  0  0  0  0  0
   -0.3058    3.5594   -2.0480 C   0  0  0  0  0  0  0  0  0  0  0  0
   -0.2828    2.4189   -4.5939 C   0  0  0  0  0  0  0  0  0  0  0  0
   -0.9489    4.2020   -3.1059 C   0  0  0  0  0  0  0  0  0  0  0  0
   -0.9374    3.6317   -4.3789 C   0  0  0  0  0  0  0  0  0  0  0  0
   -1.5637    4.2592   -5.4116 O   0  0  0  0  0  0  0  0  0  0  0  0
   -1.7582    1.3241   -0.4207 H   0  0  0  0  0  0  0  0  0  0  0  0
   -0.1463   -0.1722   -1.2766 H   0  0  0  0  0  0  0  0  0  0  0  0
    2.0134    1.2601   -1.4581 H   0  0  0  0  0  0  0  0  0  0  0  0
    1.2900    2.4044   -0.3573 H   0  0  0  0  0  0  0  0  0  0  0  0
    0.8678    0.8318   -3.7125 H   0  0  0  0  0  0  0  0  0  0  0  0
   -0.3201    4.0110   -1.0594 H   0  0  0  0  0  0  0  0  0  0  0  0
   -0.2700    1.9698   -5.5834 H   0  0  0  0  0  0  0  0  0  0  0  0
   -1.4567    5.1465   -2.9321 H   0  0  0  0  0  0  0  0  0  0  0  0
   -1.9700    5.0859   -5.1061 H   0  0  0  0  0  0  0  0  0  0  0  0
    0.6602   -1.5804    0.5820 N   0  0  0  0  0  0  0  0  0  0  0  0
    1.2602   -2.5256    1.4959 C   0  0  2  0  0  0  0  0  0  0  0  0
    2.7732   -2.3916    1.3849 C   0  0  0  0  0  0  0  0  0  0  0  0
    3.3344   -1.9231    0.3967 O   0  0  0  0  0  0  0  0  0  0  0  0
    0.8166   -3.9480    1.1910 C   0  0  0  0  0  0  0  0  0  0  0  0
   -0.0566   -1.9143   -0.0556 H   0  0  0  0  0  0  0  0  0  0  0  0
    0.9404   -2.2380    2.5034 H   0  0  0  0  0  0  0  0  0  0  0  0
    1.1281   -4.2539    0.1856 H   0  0  0  0  0  0  0  0  0  0  0  0
    1.2494   -4.6595    1.9019 H   0  0  0  0  0  0  0  0  0  0  0  0
   -0.2740   -4.0355    1.2421 H   0  0  0  0  0  0  0  0  0  0  0  0
    3.4251   -2.8965    2.5013 N   0  0  0  0  0  0  0  0  0  0  0  0
    4.8636   -2.8961    2.6307 C   0  0  0  0  0  0  0  0  0  0  0  0
    2.8791   -3.2486    3.2821 H   0  0  0  0  0  0  0  0  0  0  0  0
    5.2659   -3.8500    2.2590 H   0  0  0  0  0  0  0  0  0  0  0  0
    5.2842   -2.0669    2.0428 H   0  0  0  0  0  0  0  0  0  0  0  0
    5.1364   -2.7707    3.6889 H   0  0  0  0  0  0  0  0  0  0  0  0
 23 25  2  0  0  0  0
 22 23  1  0  0  0  0
 24 26  1  0  0  0  0
 22 24  2  0  0  0  0
 25 27  1  0  0  0  0
 26 27  2  0  0  0  0
 21 22  1  0  0  0  0
 27 28  1  0  0  0  0
  1  3  1  0  0  0  0
  1  7  1  0  0  0  0
  1  2  2  0  0  0  0
 39 40  1  0  0  0  0
 40 48  1  0  0  0  0
 40 41  2  0  0  0  0
  8  9  1  0  0  0  0
  9 17  1  0  0  0  0
  9 10  2  0  0  0  0
 18 19  1  0  0  0  0
 19 38  1  0  0  0  0
 19 20  2  0  0  0  0
 39 42  1  0  0  0  0
  8 11  1  0  0  0  0
 48 49  1  0  0  0  0
 18 21  1  0  0  0  0
 38 39  1  0  0  0  0
  7  8  1  0  0  0  0
 17 18  1  0  0  0  0
 23 33  1  0  0  0  0
 24 34  1  0  0  0  0
 25 35  1  0  0  0  0
 26 36  1  0  0  0  0
  3  4  1  0  0  0  0
  3  5  1  0  0  0  0
  3  6  1  0  0  0  0
 42 45  1  0  0  0  0
 42 46  1  0  0  0  0
 42 47  1  0  0  0  0
 11 14  1  0  0  0  0
 11 15  1  0  0  0  0
 11 16  1  0  0  0  0
 49 51  1  0  0  0  0
 49 52  1  0  0  0  0
 49 53  1  0  0  0  0
 21 31  1  0  0  0  0
 21 32  1  0  0  0  0
 39 44  1  0  0  0  0
  8 13  1  0  0  0  0
 18 30  1  0  0  0  0
 48 50  1  0  0  0  0
  7 12  1  0  0  0  0
 38 43  1  0  0  0  0
 17 29  1  0  0  0  0
 28 37  1  0  0  0  0
M  END
$$$$

  -OEChem-05262214473D

 53 53  0     1  0  0  0  0  0999 V2000
   -1.9298    0.2574    3.9747 C   0  0  0  0  0  0  0  0  0  0  0  0
   -0.9825   -0.3573    3.4990 O   0  0  0  0  0  0  0  0  0  0  0  0
   -2.3617   -0.0250    5.3754 C   0  0  0  0  0  0  0  0  0  0  0  0
   -3.1214   -0.8213    5.4288 H   0  0  0  0  0  0  0  0  0  0  0  0
   -1.5305   -0.3726    6.0097 H   0  0  0  0  0  0  0  0  0  0  0  0
   -2.7997    0.8299    5.9150 H   0  0  0  0  0  0  0  0  0  0  0  0
   -2.6795    1.2298    3.3336 N   0  0  0  0  0  0  0  0  0  0  0  0
   -2.4327    1.6559    1.9812 C   0  0  2  0  0  0  0  0  0  0  0  0
   -1.0977    1.0705    1.5400 C   0  0  0  0  0  0  0  0  0  0  0  0
   -0.2256    0.7177    2.3313 O   0  0  0  0  0  0  0  0  0  0  0  0
   -2.4239    3.1726    1.8718 C   0  0  0  0  0  0  0  0  0  0  0  0
   -3.4446    1.6657    3.8454 H   0  0  0  0  0  0  0  0  0  0  0  0
   -3.2368    1.2374    1.3661 H   0  0  0  0  0  0  0  0  0  0  0  0
   -1.6248    3.6099    2.4815 H   0  0  0  0  0  0  0  0  0  0  0  0
   -2.2644    3.4949    0.8375 H   0  0  0  0  0  0  0  0  0  0  0  0
   -3.3741    3.5939    2.2175 H   0  0  0  0  0  0  0  0  0  0  0  0
   -0.9750    1.0274    0.1566 N   0  0  0  0  0  0  0  0  0  0  0  0
    0.2023    0.5266   -0.5070 C   0  0  2  0  0  0  0  0  0  0  0  0
    1.0141   -0.2392    0.5316 C   0  0  0  0  0  0  0  0  0  0  0  0
    1.6419    0.3147    1.4315 O   0  0  0  0  0  0  0  0  0  0  0  0
    1.0451    1.6518   -1.1184 C   0  0  0  0  0  0  0  0  0  0  0  0
    0.3488    2.3466   -2.2630 C   0  0  0  0  0  0  0  0  0  0  0  0
    0.3603    1.7764   -3.5360 C   0  0  0  0  0  0  0  0  0  0  0  0
   -0.3058    3.5594   -2.0480 C   0  0  0  0  0  0  0  0  0  0  0  0
   -0.2828    2.4189   -4.5939 C   0  0  0  0  0  0  0  0  0  0  0  0
   -0.9489    4.2020   -3.1059 C   0  0  0  0  0  0  0  0  0  0  0  0
   -0.9374    3.6317   -4.3789 C   0  0  0  0  0  0  0  0  0  0  0  0
   -1.5637    4.2592   -5.4116 O   0  0  0  0  0  0  0  0  0  0  0  0
   -1.7582    1.3241   -0.4207 H   0  0  0  0  0  0  0  0  0  0  0  0
   -0.1463   -0.1722   -1.2766 H   0  0  0  0  0  0  0  0  0  0  0  0
    2.0134    1.2601   -1.4581 H   0  0  0  0  0  0  0  0  0  0  0  0
    1.2900    2.4044   -0.3573 H   0  0  0  0  0  0  0  0  0  0  0  0
    0.8678    0.8318   -3.7125 H   0  0  0  0  0  0  0  0  0  0  0  0
   -0.3201    4.0110   -1.0594 H   0  0  0  0  0  0  0  0  0  0  0  0
   -0.2700    1.9698   -5.5834 H   0  0  0  0  0  0  0  0  0  0  0  0
   -1.4567    5.1465   -2.9321 H   0  0  0  0  0  0  0  0  0  0  0  0
   -1.9700    5.0859   -5.1061 H   0  0  0  0  0  0  0  0  0  0  0  0
    0.9116   -1.6129    0.3614 N   0  0  0  0  0  0  0  0  0  0  0  0
    1.5647   -2.5704    1.2249 C   0  0  2  0  0  0  0  0  0  0  0  0
    3.0290   -2.1702    1.3482 C   0  0  0  0  0  0  0  0  0  0  0  0
    3.6059   -1.4721    0.5171 O   0  0  0  0  0  0  0  0  0  0  0  0
    1.4316   -3.9851    0.6830 C   0  0  0  0  0  0  0  0  0  0  0  0
    0.3492   -1.9629   -0.4086 H   0  0  0  0  0  0  0  0  0  0  0  0
    1.0808   -2.4942    2.2047 H   0  0  0  0  0  0  0  0  0  0  0  0
    1.9105   -4.0808   -0.2984 H   0  0  0  0  0  0  0  0  0  0  0  0
    1.9022   -4.7124    1.3527 H   0  0  0  0  0  0  0  0  0  0  0  0
    0.3778   -4.2604    0.5668 H   0  0  0  0  0  0  0  0  0  0  0  0
    3.6272   -2.7201    2.4733 N   0  0  0  0  0  0  0  0  0  0  0  0
    5.0153   -2.4985    2.8052 C   0  0  0  0  0  0  0  0  0  0  0  0
    3.0680   -3.2712    3.1177 H   0  0  0  0  0  0  0  0  0  0  0  0
    5.6285   -3.3053    2.3772 H   0  0  0  0  0  0  0  0  0  0  0  0
    5.3411   -1.5323    2.3926 H   0  0  0  0  0  0  0  0  0  0  0  0
    5.1337   -2.4889    3.8988 H   0  0  0  0  0  0  0  0  0  0  0  0
 23 25  2  0  0  0  0
 22 23  1  0  0  0  0
 24 26  1  0  0  0  0
 22 24  2  0  0  0  0
 25 27  1  0  0  0  0
 26 27  2  0  0  0  0
 21 22  1  0  0  0  0
 27 28  1  0  0  0  0
  1  3  1  0  0  0  0
  1  7  1  0  0  0  0
  1  2  2  0  0  0  0
 39 40  1  0  0  0  0
 40 48  1  0  0  0  0
 40 41  2  0  0  0  0
  8  9  1  0  0  0  0
  9 17  1  0  0  0  0
  9 10  2  0  0  0  0
 18 19  1  0  0  0  0
 19 38  1  0  0  0  0
 19 20  2  0  0  0  0
 39 42  1  0  0  0  0
  8 11  1  0  0  0  0
 48 49  1  0  0  0  0
 18 21  1  0  0  0  0
 38 39  1  0  0  0  0
  7  8  1  0  0  0  0
 17 18  1  0  0  0  0
 23 33  1  0  0  0  0
 24 34  1  0  0  0  0
 25 35  1  0  0  0  0
 26 36  1  0  0  0  0
  3  4  1  0  0  0  0
  3  5  1  0  0  0  0
  3  6  1  0  0  0  0
 42 45  1  0  0  0  0
 42 46  1  0  0  0  0
 42 47  1  0  0  0  0
 11 14  1  0  0  0  0
 11 15  1  0  0  0  0
 11 16  1  0  0  0  0
 49 51  1  0  0  0  0
 49 52  1  0  0  0  0
 49 53  1  0  0  0  0
 21 31  1  0  0  0  0
 21 32  1  0  0  0  0
 39 44  1  0  0  0  0
  8 13  1  0  0  0  0
 18 30  1  0  0  0  0
 48 50  1  0  0  0  0
  7 12  1  0  0  0  0
 38 43  1  0  0  0  0
 17 29  1  0  0  0  0
 28 37  1  0  0  0  0
M  END
$$$$

  -OEChem-05262214473D

 53 53  0     1  0  0  0  0  0999 V2000
   -1.9298    0.2574    3.9747 C   0  0  0  0  0  0  0  0  0  0  0  0
   -0.9825   -0.3573    3.4990 O   0  0  0  0  0  0  0  0  0  0  0  0
   -2.3617   -0.0250    5.3754 C   0  0  0  0  0  0  0  0  0  0  0  0
   -3.1214   -0.8213    5.4288 H   0  0  0  0  0  0  0  0  0  0  0  0
   -1.5305   -0.3726    6.0097 H   0  0  0  0  0  0  0  0  0  0  0  0
   -2.7997    0.8299    5.9150 H   0  0  0  0  0  0  0  0  0  0  0  0
   -2.6795    1.2298    3.3336 N   0  0  0  0  0  0  0  0  0  0  0  0
   -2.4327    1.6559    1.9812 C   0  0  2  0  0  0  0  0  0  0  0  0
   -1.0977    1.0705    1.5400 C   0  0  0  0  0  0  0  0  0  0  0  0
   -0.2256    0.7177    2.3313 O   0  0  0  0  0  0  0  0  0  0  0  0
   -2.4239    3.1726    1.8718 C   0  0  0  0  0  0  0  0  0  0  0  0
   -3.4446    1.6657    3.8454 H   0  0  0  0  0  0  0  0  0  0  0  0
   -3.2368    1.2374    1.3661 H   0  0  0  0  0  0  0  0  0  0  0  0
   -1.6248    3.6099    2.4815 H   0  0  0  0  0  0  0  0  0  0  0  0
   -2.2644    3.4949    0.8375 H   0  0  0  0  0  0  0  0  0  0  0  0
   -3.3741    3.5939    2.2175 H   0  0  0  0  0  0  0  0  0  0  0  0
   -0.9750    1.0274    0.1566 N   0  0  0  0  0  0  0  0  0  0  0  0
    0.2023    0.5266   -0.5070 C   0  0  2  0  0  0  0  0  0  0  0  0
    1.0141   -0.2392    0.5316 C   0  0  0  0  0  0  0  0  0  0  0  0
    1.4179    0.2711    1.5743 O   0  0  0  0  0  0  0  0  0  0  0  0
    1.0451    1.6518   -1.1184 C   0  0  0  0  0  0  0  0  0  0  0  0
    0.3488    2.3466   -2.2630 C   0  0  0  0  0  0  0  0  0  0  0  0
    0.3603    1.7764   -3.5360 C   0  0  0  0  0  0  0  0  0  0  0  0
   -0.3058    3.5594   -2.0480 C   0  0  0  0  0  0  0  0  0  0  0  0
   -0.2828    2.4189   -4.5939 C   0  0  0  0  0  0  0  0  0  0  0  0
   -0.9489    4.2020   -3.1059 C   0  0  0  0  0  0  0  0  0  0  0  0
   -0.9374    3.6317   -4.3789 C   0  0  0  0  0  0  0  0  0  0  0  0
   -1.5637    4.2592   -5.4116 O   0  0  0  0  0  0  0  0  0  0  0  0
   -1.7582    1.3241   -0.4207 H   0  0  0  0  0  0  0  0  0  0  0  0
   -0.1463   -0.1722   -1.2766 H   0  0  0  0  0  0  0  0  0  0  0  0
    2.0134    1.2601   -1.4581 H   0  0  0  0  0  0  0  0  0  0  0  0
    1.2900    2.4044   -0.3573 H   0  0  0  0  0  0  0  0  0  0  0  0
    0.8678    0.8318   -3.7125 H   0  0  0  0  0  0  0  0  0  0  0  0
   -0.3201    4.0110   -1.0594 H   0  0  0  0  0  0  0  0  0  0  0  0
   -0.2700    1.9698   -5.5834 H   0  0  0  0  0  0  0  0  0  0  0  0
   -1.4567    5.1465   -2.9321 H   0  0  0  0  0  0  0  0  0  0  0  0
   -1.9700    5.0859   -5.1061 H   0  0  0  0  0  0  0  0  0  0  0  0
    1.1888   -1.5696    0.1767 N   0  0  0  0  0  0  0  0  0  0  0  0
    1.9019   -2.5226    0.9965 C   0  0  2  0  0  0  0  0  0  0  0  0
    3.2418   -1.9062    1.3766 C   0  0  0  0  0  0  0  0  0  0  0  0
    3.7729   -1.0051    0.7308 O   0  0  0  0  0  0  0  0  0  0  0  0
    2.0982   -3.8425    0.2671 C   0  0  0  0  0  0  0  0  0  0  0  0
    0.7957   -1.8896   -0.7036 H   0  0  0  0  0  0  0  0  0  0  0  0
    1.3005   -2.6757    1.8992 H   0  0  0  0  0  0  0  0  0  0  0  0
    2.6986   -3.7090   -0.6402 H   0  0  0  0  0  0  0  0  0  0  0  0
    2.6133   -4.5727    0.8998 H   0  0  0  0  0  0  0  0  0  0  0  0
    1.1348   -4.2696   -0.0318 H   0  0  0  0  0  0  0  0  0  0  0  0
    3.7950   -2.5102    2.4969 N   0  0  0  0  0  0  0  0  0  0  0  0
    5.0691   -2.1118    3.0483 C   0  0  0  0  0  0  0  0  0  0  0  0
    3.2758   -3.2371    2.9804 H   0  0  0  0  0  0  0  0  0  0  0  0
    5.8672   -2.7315    2.6137 H   0  0  0  0  0  0  0  0  0  0  0  0
    5.2563   -1.0540    2.8116 H   0  0  0  0  0  0  0  0  0  0  0  0
    5.0541   -2.2461    4.1400 H   0  0  0  0  0  0  0  0  0  0  0  0
 23 25  2  0  0  0  0
 22 23  1  0  0  0  0
 24 26  1  0  0  0  0
 22 24  2  0  0  0  0
 25 27  1  0  0  0  0
 26 27  2  0  0  0  0
 21 22  1  0  0  0  0
 27 28  1  0  0  0  0
  1  3  1  0  0  0  0
  1  7  1  0  0  0  0
  1  2  2  0  0  0  0
 39 40  1  0  0  0  0
 40 48  1  0  0  0  0
 40 41  2  0  0  0  0
  8  9  1  0  0  0  0
  9 17  1  0  0  0  0
  9 10  2  0  0  0  0
 18 19  1  0  0  0  0
 19 38  1  0  0  0  0
 19 20  2  0  0  0  0
 39 42  1  0  0  0  0
  8 11  1  0  0  0  0
 48 49  1  0  0  0  0
 18 21  1  0  0  0  0
 38 39  1  0  0  0  0
  7  8  1  0  0  0  0
 17 18  1  0  0  0  0
 23 33  1  0  0  0  0
 24 34  1  0  0  0  0
 25 35  1  0  0  0  0
 26 36  1  0  0  0  0
  3  4  1  0  0  0  0
  3  5  1  0  0  0  0
  3  6  1  0  0  0  0
 42 45  1  0  0  0  0
 42 46  1  0  0  0  0
 42 47  1  0  0  0  0
 11 14  1  0  0  0  0
 11 15  1  0  0  0  0
 11 16  1  0  0  0  0
 49 51  1  0  0  0  0
 49 52  1  0  0  0  0
 49 53  1  0  0  0  0
 21 31  1  0  0  0  0
 21 32  1  0  0  0  0
 39 44  1  0  0  0  0
  8 13  1  0  0  0  0
 18 30  1  0  0  0  0
 48 50  1  0  0  0  0
  7 12  1  0  0  0  0
 38 43  1  0  0  0  0
 17 29  1  0  0  0  0
 28 37  1  0  0  0  0
M  END
$$$$

  -OEChem-05262214473D

 53 53  0     1  0  0  0  0  0999 V2000
   -1.9298    0.2574    3.9747 C   0  0  0  0  0  0  0  0  0  0  0  0
   -0.9825   -0.3573    3.4990 O   0  0  0  0  0  0  0  0  0  0  0  0
   -2.3617   -0.0250    5.3754 C   0  0  0  0  0  0  0  0  0  0  0  0
   -3.1214   -0.8213    5.4288 H   0  0  0  0  0  0  0  0  0  0  0  0
   -1.5305   -0.3726    6.0097 H   0  0  0  0  0  0  0  0  0  0  0  0
   -2.7997    0.8299    5.9150 H   0  0  0  0  0  0  0  0  0  0  0  0
   -2.6795    1.2298    3.3336 N   0  0  0  0  0  0  0  0  0  0  0  0
   -2.4327    1.6559    1.9812 C   0  0  2  0  0  0  0  0  0  0  0  0
   -1.0977    1.0705    1.5400 C   0  0  0  0  0  0  0  0  0  0  0  0
   -0.2256    0.7177    2.3313 O   0  0  0  0  0  0  0  0  0  0  0  0
   -2.4239    3.1726    1.8718 C   0  0  0  0  0  0  0  0  0  0  0  0
   -3.4446    1.6657    3.8454 H   0  0  0  0  0  0  0  0  0  0  0  0
   -3.2368    1.2374    1.3661 H   0  0  0  0  0  0  0  0  0  0  0  0
   -1.6248    3.6099    2.4815 H   0  0  0  0  0  0  0  0  0  0  0  0
   -2.2644    3.4949    0.8375 H   0  0  0  0  0  0  0  0  0  0  0  0
   -3.3741    3.5939    2.2175 H   0  0  0  0  0  0  0  0  0  0  0  0
   -0.9750    1.0274    0.1566 N   0  0  0  0  0  0  0  0  0  0  0  0
    0.2023    0.5266   -0.5070 C   0  0  2  0  0  0  0  0  0  0  0  0
    1.0141   -0.2392    0.5316 C   0  0  0  0  0  0  0  0  0  0  0  0
    1.1908    0.1697    1.6772 O   0  0  0  0  0  0  0  0  0  0  0  0
    1.0451    1.6518   -1.1184 C   0  0  0  0  0  0  0  0  0  0  0  0
    0.3488    2.3466   -2.2630 C   0  0  0  0  0  0  0  0  0  0  0  0
    0.3603    1.7764   -3.5360 C   0  0  0  0  0  0  0  0  0  0  0  0
   -0.3058    3.5594   -2.0480 C   0  0  0  0  0  0  0  0  0  0  0  0
   -0.2828    2.4189   -4.5939 C   0  0  0  0  0  0  0  0  0  0  0  0
   -0.9489    4.2020   -3.1059 C   0  0  0  0  0  0  0  0  0  0  0  0
   -0.9374    3.6317   -4.3789 C   0  0  0  0  0  0  0  0  0  0  0  0
   -1.5637    4.2592   -5.4116 O   0  0  0  0  0  0  0  0  0  0  0  0
   -1.7582    1.3241   -0.4207 H   0  0  0  0  0  0  0  0  0  0  0  0
   -0.1463   -0.1722   -1.2766 H   0  0  0  0  0  0  0  0  0  0  0  0
    2.0134    1.2601   -1.4581 H   0  0  0  0  0  0  0  0  0  0  0  0
    1.2900    2.4044   -0.3573 H   0  0  0  0  0  0  0  0  0  0  0  0
    0.8678    0.8318   -3.7125 H   0  0  0  0  0  0  0  0  0  0  0  0
   -0.3201    4.0110   -1.0594 H   0  0  0  0  0  0  0  0  0  0  0  0
   -0.2700    1.9698   -5.5834 H   0  0  0  0  0  0  0  0  0  0  0  0
   -1.4567    5.1465   -2.9321 H   0  0  0  0  0  0  0  0  0  0  0  0
   -1.9700    5.0859   -5.1061 H   0  0  0  0  0  0  0  0  0  0  0  0
    1.4730   -1.4535    0.0402 N   0  0  0  0  0  0  0  0  0  0  0  0
    2.2490   -2.3854    0.8263 C   0  0  2  0  0  0  0  0  0  0  0  0
    3.3971   -1.6176    1.4680 C   0  0  0  0  0  0  0  0  0  0  0  0
    3.8242   -0.5541    1.0233 O   0  0  0  0  0  0  0  0  0  0  0  0
    2.7710   -3.5299   -0.0284 C   0  0  0  0  0  0  0  0  0  0  0  0
    1.2524   -1.6994   -0.9203 H   0  0  0  0  0  0  0  0  0  0  0  0
    1.5844   -2.7702    1.6076 H   0  0  0  0  0  0  0  0  0  0  0  0
    3.4387   -3.1638   -0.8168 H   0  0  0  0  0  0  0  0  0  0  0  0
    3.3346   -4.2499    0.5741 H   0  0  0  0  0  0  0  0  0  0  0  0
    1.9455   -4.0625   -0.5128 H   0  0  0  0  0  0  0  0  0  0  0  0
    3.9170   -2.2811    2.5705 N   0  0  0  0  0  0  0  0  0  0  0  0
    5.0212   -1.7623    3.3435 C   0  0  0  0  0  0  0  0  0  0  0  0
    3.4884   -3.1487    2.8795 H   0  0  0  0  0  0  0  0  0  0  0  0
    5.9659   -2.1678    2.9522 H   0  0  0  0  0  0  0  0  0  0  0  0
    5.0356   -0.6648    3.2711 H   0  0  0  0  0  0  0  0  0  0  0  0
    4.9031   -2.0588    4.3961 H   0  0  0  0  0  0  0  0  0  0  0  0
 23 25  2  0  0  0  0
 22 23  1  0  0  0  0
 24 26  1  0  0  0  0
 22 24  2  0  0  0  0
 25 27  1  0  0  0  0
 26 27  2  0  0  0  0
 21 22  1  0  0  0  0
 27 28  1  0  0  0  0
  1  3  1  0  0  0  0
  1  7  1  0  0  0  0
  1  2  2  0  0  0  0
 39 40  1  0  0  0  0
 40 48  1  0  0  0  0
 40 41  2  0  0  0  0
  8  9  1  0  0  0  0
  9 17  1  0  0  0  0
  9 10  2  0  0  0  0
 18 19  1  0  0  0  0
 19 38  1  0  0  0  0
 19 20  2  0  0  0  0
 39 42  1  0  0  0  0
  8 11  1  0  0  0  0
 48 49  1  0  0  0  0
 18 21  1  0  0  0  0
 38 39  1  0  0  0  0
  7  8  1  0  0  0  0
 17 18  1  0  0  0  0
 23 33  1  0  0  0  0
 24 34  1  0  0  0  0
 25 35  1  0  0  0  0
 26 36  1  0  0  0  0
  3  4  1  0  0  0  0
  3  5  1  0  0  0  0
  3  6  1  0  0  0  0
 42 45  1  0  0  0  0
 42 46  1  0  0  0  0
 42 47  1  0  0  0  0
 11 14  1  0  0  0  0
 11 15  1  0  0  0  0
 11 16  1  0  0  0  0
 49 51  1  0  0  0  0
 49 52  1  0  0  0  0
 49 53  1  0  0  0  0
 21 31  1  0  0  0  0
 21 32  1  0  0  0  0
 39 44  1  0  0  0  0
  8 13  1  0  0  0  0
 18 30  1  0  0  0  0
 48 50  1  0  0  0  0
  7 12  1  0  0  0  0
 38 43  1  0  0  0  0
 17 29  1  0  0  0  0
 28 37  1  0  0  0  0
M  END
$$$$

  -OEChem-05262214473D

 53 53  0     1  0  0  0  0  0999 V2000
   -1.9298    0.2574    3.9747 C   0  0  0  0  0  0  0  0  0  0  0  0
   -0.9825   -0.3573    3.4990 O   0  0  0  0  0  0  0  0  0  0  0  0
   -2.3617   -0.0250    5.3754 C   0  0  0  0  0  0  0  0  0  0  0  0
   -3.1214   -0.8213    5.4288 H   0  0  0  0  0  0  0  0  0  0  0  0
   -1.5305   -0.3726    6.0097 H   0  0  0  0  0  0  0  0  0  0  0  0
   -2.7997    0.8299    5.9150 H   0  0  0  0  0  0  0  0  0  0  0  0
   -2.6795    1.2298    3.3336 N   0  0  0  0  0  0  0  0  0  0  0  0
   -2.4327    1.6559    1.9812 C   0  0  2  0  0  0  0  0  0  0  0  0
   -1.0977    1.0705    1.5400 C   0  0  0  0  0  0  0  0  0  0  0  0
   -0.2256    0.7177    2.3313 O   0  0  0  0  0  0  0  0  0  0  0  0
   -2.4239    3.1726    1.8718 C   0  0  0  0  0  0  0  0  0  0  0  0
   -3.4446    1.6657    3.8454 H   0  0  0  0  0  0  0  0  0  0  0  0
   -3.2368    1.2374    1.3661 H   0  0  0  0  0  0  0  0  0  0  0  0
   -1.6248    3.6099    2.4815 H   0  0  0  0  0  0  0  0  0  0  0  0
   -2.2644    3.4949    0.8375 H   0  0  0  0  0  0  0  0  0  0  0  0
   -3.3741    3.5939    2.2175 H   0  0  0  0  0  0  0  0  0  0  0  0
   -0.9750    1.0274    0.1566 N   0  0  0  0  0  0  0  0  0  0  0  0
    0.2023    0.5266   -0.5070 C   0  0  2  0  0  0  0  0  0  0  0  0
    1.0141   -0.2392    0.5316 C   0  0  0  0  0  0  0  0  0  0  0  0
    0.9758    0.0176    1.7330 O   0  0  0  0  0  0  0  0  0  0  0  0
    1.0451    1.6518   -1.1184 C   0  0  0  0  0  0  0  0  0  0  0  0
    0.3488    2.3466   -2.2630 C   0  0  0  0  0  0  0  0  0  0  0  0
    0.3603    1.7764   -3.5360 C   0  0  0  0  0  0  0  0  0  0  0  0
   -0.3058    3.5594   -2.0480 C   0  0  0  0  0  0  0  0  0  0  0  0
   -0.2828    2.4189   -4.5939 C   0  0  0  0  0  0  0  0  0  0  0  0
   -0.9489    4.2020   -3.1059 C   0  0  0  0  0  0  0  0  0  0  0  0
   -0.9374    3.6317   -4.3789 C   0  0  0  0  0  0  0  0  0  0  0  0
   -1.5637    4.2592   -5.4116 O   0  0  0  0  0  0  0  0  0  0  0  0
   -1.7582    1.3241   -0.4207 H   0  0  0  0  0  0  0  0  0  0  0  0
   -0.1463   -0.1722   -1.2766 H   0  0  0  0  0  0  0  0  0  0  0  0
    2.0134    1.2601   -1.4581 H   0  0  0  0  0  0  0  0  0  0  0  0
    1.2900    2.4044   -0.3573 H   0  0  0  0  0  0  0  0  0  0  0  0
    0.8678    0.8318   -3.7125 H   0  0  0  0  0  0  0  0  0  0  0  0
   -0.3201    4.0110   -1.0594 H   0  0  0  0  0  0  0  0  0  0  0  0
   -0.2700    1.9698   -5.5834 H   0  0  0  0  0  0  0  0  0  0  0  0
   -1.4567    5.1465   -2.9321 H   0  0  0  0  0  0  0  0  0  0  0  0
   -1.9700    5.0859   -5.1061 H   0  0  0  0  0  0  0  0  0  0  0  0
    1.7448   -1.2723   -0.0387 N   0  0  0  0  0  0  0  0  0  0  0  0
    2.5821   -2.1684    0.7260 C   0  0  2  0  0  0  0  0  0  0  0  0
    3.4843   -1.3240    1.6163 C   0  0  0  0  0  0  0  0  0  0  0  0
    3.7561   -0.1497    1.3747 O   0  0  0  0  0  0  0  0  0  0  0  0
    3.4042   -3.0686   -0.1831 C   0  0  0  0  0  0  0  0  0  0  0  0
    1.6882   -1.4054   -1.0441 H   0  0  0  0  0  0  0  0  0  0  0  0
    1.9132   -2.7712    1.3499 H   0  0  0  0  0  0  0  0  0  0  0  0
    4.0805   -2.4823   -0.8159 H   0  0  0  0  0  0  0  0  0  0  0  0
    4.0166   -3.7661    0.3977 H   0  0  0  0  0  0  0  0  0  0  0  0
    2.7546   -3.6533   -0.8434 H   0  0  0  0  0  0  0  0  0  0  0  0
    3.9849   -2.0485    2.6889 N   0  0  0  0  0  0  0  0  0  0  0  0
    4.8750   -1.4738    3.6705 C   0  0  0  0  0  0  0  0  0  0  0  0
    3.6913   -3.0118    2.8218 H   0  0  0  0  0  0  0  0  0  0  0  0
    5.9179   -1.6525    3.3697 H   0  0  0  0  0  0  0  0  0  0  0  0
    4.6940   -0.3910    3.7400 H   0  0  0  0  0  0  0  0  0  0  0  0
    4.6909   -1.9399    4.6497 H   0  0  0  0  0  0  0  0  0  0  0  0
 23 25  2  0  0  0  0
 22 23  1  0  0  0  0
 24 26  1  0  0  0  0
 22 24  2  0  0  0  0
 25 27  1  0  0  0  0
 26 27  2  0  0  0  0
 21 22  1  0  0  0  0
 27 28  1  0  0  0  0
  1  3  1  0  0  0  0
  1  7  1  0  0  0  0
  1  2  2  0  0  0  0
 39 40  1  0  0  0  0
 40 48  1  0  0  0  0
 40 41  2  0  0  0  0
  8  9  1  0  0  0  0
  9 17  1  0  0  0  0
  9 10  2  0  0  0  0
 18 19  1  0  0  0  0
 19 38  1  0  0  0  0
 19 20  2  0  0  0  0
 39 42  1  0  0  0  0
  8 11  1  0  0  0  0
 48 49  1  0  0  0  0
 18 21  1  0  0  0  0
 38 39  1  0  0  0  0
  7  8  1  0  0  0  0
 17 18  1  0  0  0  0
 23 33  1  0  0  0  0
 24 34  1  0  0  0  0
 25 35  1  0  0  0  0
 26 36  1  0  0  0  0
  3  4  1  0  0  0  0
  3  5  1  0  0  0  0
  3  6  1  0  0  0  0
 42 45  1  0  0  0  0
 42 46  1  0  0  0  0
 42 47  1  0  0  0  0
 11 14  1  0  0  0  0
 11 15  1  0  0  0  0
 11 16  1  0  0  0  0
 49 51  1  0  0  0  0
 49 52  1  0  0  0  0
 49 53  1  0  0  0  0
 21 31  1  0  0  0  0
 21 32  1  0  0  0  0
 39 44  1  0  0  0  0
  8 13  1  0  0  0  0
 18 30  1  0  0  0  0
 48 50  1  0  0  0  0
  7 12  1  0  0  0  0
 38 43  1  0  0  0  0
 17 29  1  0  0  0  0
 28 37  1  0  0  0  0
M  END
$$$$

  -OEChem-05262214473D

 53 53  0     1  0  0  0  0  0999 V2000
   -1.9298    0.2574    3.9747 C   0  0  0  0  0  0  0  0  0  0  0  0
   -0.9825   -0.3573    3.4990 O   0  0  0  0  0  0  0  0  0  0  0  0
   -2.3617   -0.0250    5.3754 C   0  0  0  0  0  0  0  0  0  0  0  0
   -3.1214   -0.8213    5.4288 H   0  0  0  0  0  0  0  0  0  0  0  0
   -1.5305   -0.3726    6.0097 H   0  0  0  0  0  0  0  0  0  0  0  0
   -2.7997    0.8299    5.9150 H   0  0  0  0  0  0  0  0  0  0  0  0
   -2.6795    1.2298    3.3336 N   0  0  0  0  0  0  0  0  0  0  0  0
   -2.4327    1.6559    1.9812 C   0  0  2  0  0  0  0  0  0  0  0  0
   -1.0977    1.0705    1.5400 C   0  0  0  0  0  0  0  0  0  0  0  0
   -0.2256    0.7177    2.3313 O   0  0  0  0  0  0  0  0  0  0  0  0
   -2.4239    3.1726    1.8718 C   0  0  0  0  0  0  0  0  0  0  0  0
   -3.4446    1.6657    3.8454 H   0  0  0  0  0  0  0  0  0  0  0  0
   -3.2368    1.2374    1.3661 H   0  0  0  0  0  0  0  0  0  0  0  0
   -1.6248    3.6099    2.4815 H   0  0  0  0  0  0  0  0  0  0  0  0
   -2.2644    3.4949    0.8375 H   0  0  0  0  0  0  0  0  0  0  0  0
   -3.3741    3.5939    2.2175 H   0  0  0  0  0  0  0  0  0  0  0  0
   -0.9750    1.0274    0.1566 N   0  0  0  0  0  0  0  0  0  0  0  0
    0.2023    0.5266   -0.5070 C   0  0  2  0  0  0  0  0  0  0  0  0
    1.0141   -0.2392    0.5316 C   0  0  0  0  0  0  0  0  0  0  0  0
    0.7878   -0.1750    1.7380 O   0  0  0  0  0  0  0  0  0  0  0  0
    1.0451    1.6518   -1.1184 C   0  0  0  0  0  0  0  0  0  0  0  0
    0.3488    2.3466   -2.2630 C   0  0  0  0  0  0  0  0  0  0  0  0
    0.3603    1.7764   -3.5360 C   0  0  0  0  0  0  0  0  0  0  0  0
   -0.3058    3.5594   -2.0480 C   0  0  0  0  0  0  0  0  0  0  0  0
   -0.2828    2.4189   -4.5939 C   0  0  0  0  0  0  0  0  0  0  0  0
   -0.9489    4.2020   -3.1059 C   0  0  0  0  0  0  0  0  0  0  0  0
   -0.9374    3.6317   -4.3789 C   0  0  0  0  0  0  0  0  0  0  0  0
   -1.5637    4.2592   -5.4116 O   0  0  0  0  0  0  0  0  0  0  0  0
   -1.7582    1.3241   -0.4207 H   0  0  0  0  0  0  0  0  0  0  0  0
   -0.1463   -0.1722   -1.2766 H   0  0  0  0  0  0  0  0  0  0  0  0
    2.0134    1.2601   -1.4581 H   0  0  0  0  0  0  0  0  0  0  0  0
    1.2900    2.4044   -0.3573 H   0  0  0  0  0  0  0  0  0  0  0  0
    0.8678    0.8318   -3.7125 H   0  0  0  0  0  0  0  0  0  0  0  0
   -0.3201    4.0110   -1.0594 H   0  0  0  0  0  0  0  0  0  0  0  0
   -0.2700    1.9698   -5.5834 H   0  0  0  0  0  0  0  0  0  0  0  0
   -1.4567    5.1465   -2.9321 H   0  0  0  0  0  0  0  0  0  0  0  0
   -1.9700    5.0859   -5.1061 H   0  0  0  0  0  0  0  0  0  0  0  0
    1.9856   -1.0386   -0.0546 N   0  0  0  0  0  0  0  0  0  0  0  0
    2.8787   -1.8861    0.7023 C   0  0  2  0  0  0  0  0  0  0  0  0
    3.4976   -1.0455    1.8113 C   0  0  0  0  0  0  0  0  0  0  0  0
    3.5734    0.1804    1.7610 O   0  0  0  0  0  0  0  0  0  0  0  0
    3.9546   -2.4900   -0.1867 C   0  0  0  0  0  0  0  0  0  0  0  0
    2.0733   -1.0274   -1.0665 H   0  0  0  0  0  0  0  0  0  0  0  0
    2.2645   -2.6786    1.1435 H   0  0  0  0  0  0  0  0  0  0  0  0
    4.5801   -1.7110   -0.6377 H   0  0  0  0  0  0  0  0  0  0  0  0
    4.6131   -3.1542    0.3826 H   0  0  0  0  0  0  0  0  0  0  0  0
    3.5070   -3.0697   -1.0012 H   0  0  0  0  0  0  0  0  0  0  0  0
    3.9941   -1.8282    2.8443 N   0  0  0  0  0  0  0  0  0  0  0  0
    4.6404   -1.2660    4.0071 C   0  0  0  0  0  0  0  0  0  0  0  0
    3.8706   -2.8359    2.8114 H   0  0  0  0  0  0  0  0  0  0  0  0
    5.7263   -1.2208    3.8378 H   0  0  0  0  0  0  0  0  0  0  0  0
    4.2548   -0.2515    4.1862 H   0  0  0  0  0  0  0  0  0  0  0  0
    4.4320   -1.8974    4.8834 H   0  0  0  0  0  0  0  0  0  0  0  0
 23 25  2  0  0  0  0
 22 23  1  0  0  0  0
 24 26  1  0  0  0  0
 22 24  2  0  0  0  0
 25 27  1  0  0  0  0
 26 27  2  0  0  0  0
 21 22  1  0  0  0  0
 27 28  1  0  0  0  0
  1  3  1  0  0  0  0
  1  7  1  0  0  0  0
  1  2  2  0  0  0  0
 39 40  1  0  0  0  0
 40 48  1  0  0  0  0
 40 41  2  0  0  0  0
  8  9  1  0  0  0  0
  9 17  1  0  0  0  0
  9 10  2  0  0  0  0
 18 19  1  0  0  0  0
 19 38  1  0  0  0  0
 19 20  2  0  0  0  0
 39 42  1  0  0  0  0
  8 11  1  0  0  0  0
 48 49  1  0  0  0  0
 18 21  1  0  0  0  0
 38 39  1  0  0  0  0
  7  8  1  0  0  0  0
 17 18  1  0  0  0  0
 23 33  1  0  0  0  0
 24 34  1  0  0  0  0
 25 35  1  0  0  0  0
 26 36  1  0  0  0  0
  3  4  1  0  0  0  0
  3  5  1  0  0  0  0
  3  6  1  0  0  0  0
 42 45  1  0  0  0  0
 42 46  1  0  0  0  0
 42 47  1  0  0  0  0
 11 14  1  0  0  0  0
 11 15  1  0  0  0  0
 11 16  1  0  0  0  0
 49 51  1  0  0  0  0
 49 52  1  0  0  0  0
 49 53  1  0  0  0  0
 21 31  1  0  0  0  0
 21 32  1  0  0  0  0
 39 44  1  0  0  0  0
  8 13  1  0  0  0  0
 18 30  1  0  0  0  0
 48 50  1  0  0  0  0
  7 12  1  0  0  0  0
 38 43  1  0  0  0  0
 17 29  1  0  0  0  0
 28 37  1  0  0  0  0
M  END
$$$$

  -OEChem-05262214473D

 53 53  0     1  0  0  0  0  0999 V2000
   -1.9298    0.2574    3.9747 C   0  0  0  0  0  0  0  0  0  0  0  0
   -0.9825   -0.3573    3.4990 O   0  0  0  0  0  0  0  0  0  0  0  0
   -2.3617   -0.0250    5.3754 C   0  0  0  0  0  0  0  0  0  0  0  0
   -3.1214   -0.8213    5.4288 H   0  0  0  0  0  0  0  0  0  0  0  0
   -1.5305   -0.3726    6.0097 H   0  0  0  0  0  0  0  0  0  0  0  0
   -2.7997    0.8299    5.9150 H   0  0  0  0  0  0  0  0  0  0  0  0
   -2.6795    1.2298    3.3336 N   0  0  0  0  0  0  0  0  0  0  0  0
   -2.4327    1.6559    1.9812 C   0  0  2  0  0  0  0  0  0  0  0  0
   -1.0977    1.0705    1.5400 C   0  0  0  0  0  0  0  0  0  0  0  0
   -0.2256    0.7177    2.3313 O   0  0  0  0  0  0  0  0  0  0  0  0
   -2.4239    3.1726    1.8718 C   0  0  0  0  0  0  0  0  0  0  0  0
   -3.4446    1.6657    3.8454 H   0  0  0  0  0  0  0  0  0  0  0  0
   -3.2368    1.2374    1.3661 H   0  0  0  0  0  0  0  0  0  0  0  0
   -1.6248    3.6099    2.4815 H   0  0  0  0  0  0  0  0  0  0  0  0
   -2.2644    3.4949    0.8375 H   0  0  0  0  0  0  0  0  0  0  0  0
   -3.3741    3.5939    2.2175 H   0  0  0  0  0  0  0  0  0  0  0  0
   -0.9750    1.0274    0.1566 N   0  0  0  0  0  0  0  0  0  0  0  0
    0.2023    0.5266   -0.5070 C   0  0  2  0  0  0  0  0  0  0  0  0
    0.8143   -0.5348    0.4002 C   0  0  0  0  0  0  0  0  0  0  0  0
    0.3077   -0.8764    1.4667 O   0  0  0  0  0  0  0  0  0  0  0  0
    1.2215    1.6354   -0.7930 C   0  0  0  0  0  0  0  0  0  0  0  0
    0.7268    2.6348   -1.8099 C   0  0  0  0  0  0  0  0  0  0  0  0
    0.8066    2.3424   -3.1714 C   0  0  0  0  0  0  0  0  0  0  0  0
    0.1904    3.8514   -1.3881 C   0  0  0  0  0  0  0  0  0  0  0  0
    0.3499    3.2664   -4.1112 C   0  0  0  0  0  0  0  0  0  0  0  0
   -0.2664    4.7755   -2.3278 C   0  0  0  0  0  0  0  0  0  0  0  0
   -0.1866    4.4830   -3.6894 C   0  0  0  0  0  0  0  0  0  0  0  0
   -0.6310    5.3851   -4.6066 O   0  0  0  0  0  0  0  0  0  0  0  0
   -1.7582    1.3241   -0.4207 H   0  0  0  0  0  0  0  0  0  0  0  0
   -0.1398    0.0522   -1.4343 H   0  0  0  0  0  0  0  0  0  0  0  0
    2.1710    1.2007   -1.1339 H   0  0  0  0  0  0  0  0  0  0  0  0
    1.4679    2.1771    0.1298 H   0  0  0  0  0  0  0  0  0  0  0  0
    1.2230    1.3971   -3.5090 H   0  0  0  0  0  0  0  0  0  0  0  0
    0.1242    4.0877   -0.3292 H   0  0  0  0  0  0  0  0  0  0  0  0
    0.4150    3.0329   -5.1706 H   0  0  0  0  0  0  0  0  0  0  0  0
   -0.6828    5.7213   -1.9930 H   0  0  0  0  0  0  0  0  0  0  0  0
   -0.9736    6.1765   -4.1614 H   0  0  0  0  0  0  0  0  0  0  0  0
    1.9635   -1.0872   -0.1482 N   0  0  0  0  0  0  0  0  0  0  0  0
    2.7273   -2.1315    0.4958 C   0  0  2  0  0  0  0  0  0  0  0  0
    2.9921   -1.7024    1.9329 C   0  0  0  0  0  0  0  0  0  0  0  0
    2.9675   -0.5288    2.2979 O   0  0  0  0  0  0  0  0  0  0  0  0
    4.0307   -2.3982   -0.2408 C   0  0  0  0  0  0  0  0  0  0  0  0
    2.2837   -0.7400   -1.0475 H   0  0  0  0  0  0  0  0  0  0  0  0
    2.1005   -3.0300    0.4919 H   0  0  0  0  0  0  0  0  0  0  0  0
    4.6719   -1.5092   -0.2474 H   0  0  0  0  0  0  0  0  0  0  0  0
    4.5948   -3.2091    0.2318 H   0  0  0  0  0  0  0  0  0  0  0  0
    3.8395   -2.6778   -1.2825 H   0  0  0  0  0  0  0  0  0  0  0  0
    3.3017   -2.7801    2.7507 N   0  0  0  0  0  0  0  0  0  0  0  0
    3.6055   -2.6313    4.1548 C   0  0  0  0  0  0  0  0  0  0  0  0
    3.2801   -3.7206    2.3675 H   0  0  0  0  0  0  0  0  0  0  0  0
    4.6925   -2.5247    4.2860 H   0  0  0  0  0  0  0  0  0  0  0  0
    3.0996   -1.7366    4.5465 H   0  0  0  0  0  0  0  0  0  0  0  0
    3.2557   -3.5194    4.7017 H   0  0  0  0  0  0  0  0  0  0  0  0
 23 25  2  0  0  0  0
 22 23  1  0  0  0  0
 24 26  1  0  0  0  0
 22 24  2  0  0  0  0
 25 27  1  0  0  0  0
 26 27  2  0  0  0  0
 21 22  1  0  0  0  0
 27 28  1  0  0  0  0
  1  3  1  0  0  0  0
  1  7  1  0  0  0  0
  1  2  2  0  0  0  0
 39 40  1  0  0  0  0
 40 48  1  0  0  0  0
 40 41  2  0  0  0  0
  8  9  1  0  0  0  0
  9 17  1  0  0  0  0
  9 10  2  0  0  0  0
 18 19  1  0  0  0  0
 19 38  1  0  0  0  0
 19 20  2  0  0  0  0
 39 42  1  0  0  0  0
  8 11  1  0  0  0  0
 48 49  1  0  0  0  0
 18 21  1  0  0  0  0
 38 39  1  0  0  0  0
  7  8  1  0  0  0  0
 17 18  1  0  0  0  0
 23 33  1  0  0  0  0
 24 34  1  0  0  0  0
 25 35  1  0  0  0  0
 26 36  1  0  0  0  0
  3  4  1  0  0  0  0
  3  5  1  0  0  0  0
  3  6  1  0  0  0  0
 42 45  1  0  0  0  0
 42 46  1  0  0  0  0
 42 47  1  0  0  0  0
 11 14  1  0  0  0  0
 11 15  1  0  0  0  0
 11 16  1  0  0  0  0
 49 51  1  0  0  0  0
 49 52  1  0  0  0  0
 49 53  1  0  0  0  0
 21 31  1  0  0  0  0
 21 32  1  0  0  0  0
 39 44  1  0  0  0  0
  8 13  1  0  0  0  0
 18 30  1  0  0  0  0
 48 50  1  0  0  0  0
  7 12  1  0  0  0  0
 38 43  1  0  0  0  0
 17 29  1  0  0  0  0
 28 37  1  0  0  0  0
M  END
$$$$

  -OEChem-05262214473D

 53 53  0     1  0  0  0  0  0999 V2000
   -1.9298    0.2574    3.9747 C   0  0  0  0  0  0  0  0  0  0  0  0
   -0.9825   -0.3573    3.4990 O   0  0  0  0  0  0  0  0  0  0  0  0
   -2.3617   -0.0250    5.3754 C   0  0  0  0  0  0  0  0  0  0  0  0
   -3.1214   -0.8213    5.4288 H   0  0  0  0  0  0  0  0  0  0  0  0
   -1.5305   -0.3726    6.0097 H   0  0  0  0  0  0  0  0  0  0  0  0
   -2.7997    0.8299    5.9150 H   0  0  0  0  0  0  0  0  0  0  0  0
   -2.6795    1.2298    3.3336 N   0  0  0  0  0  0  0  0  0  0  0  0
   -2.4327    1.6559    1.9812 C   0  0  2  0  0  0  0  0  0  0  0  0
   -1.0977    1.0705    1.5400 C   0  0  0  0  0  0  0  0  0  0  0  0
   -0.2256    0.7177    2.3313 O   0  0  0  0  0  0  0  0  0  0  0  0
   -2.4239    3.1726    1.8718 C   0  0  0  0  0  0  0  0  0  0  0  0
   -3.4446    1.6657    3.8454 H   0  0  0  0  0  0  0  0  0  0  0  0
   -3.2368    1.2374    1.3661 H   0  0  0  0  0  0  0  0  0  0  0  0
   -1.6248    3.6099    2.4815 H   0  0  0  0  0  0  0  0  0  0  0  0
   -2.2644    3.4949    0.8375 H   0  0  0  0  0  0  0  0  0  0  0  0
   -3.3741    3.5939    2.2175 H   0  0  0  0  0  0  0  0  0  0  0  0
   -0.9750    1.0274    0.1566 N   0  0  0  0  0  0  0  0  0  0  0  0
    0.2023    0.5266   -0.5070 C   0  0  2  0  0  0  0  0  0  0  0  0
    0.8143   -0.5348    0.4002 C   0  0  0  0  0  0  0  0  0  0  0  0
    0.1945   -1.0695    1.3172 O   0  0  0  0  0  0  0  0  0  0  0  0
    1.2215    1.6354   -0.7930 C   0  0  0  0  0  0  0  0  0  0  0  0
    0.7268    2.6348   -1.8099 C   0  0  0  0  0  0  0  0  0  0  0  0
    0.8066    2.3424   -3.1714 C   0  0  0  0  0  0  0  0  0  0  0  0
    0.1904    3.8514   -1.3881 C   0  0  0  0  0  0  0  0  0  0  0  0
    0.3499    3.2664   -4.1112 C   0  0  0  0  0  0  0  0  0  0  0  0
   -0.2664    4.7755   -2.3278 C   0  0  0  0  0  0  0  0  0  0  0  0
   -0.1866    4.4830   -3.6894 C   0  0  0  0  0  0  0  0  0  0  0  0
   -0.6310    5.3851   -4.6066 O   0  0  0  0  0  0  0  0  0  0  0  0
   -1.7582    1.3241   -0.4207 H   0  0  0  0  0  0  0  0  0  0  0  0
   -0.1398    0.0522   -1.4343 H   0  0  0  0  0  0  0  0  0  0  0  0
    2.1710    1.2007   -1.1339 H   0  0  0  0  0  0  0  0  0  0  0  0
    1.4679    2.1771    0.1298 H   0  0  0  0  0  0  0  0  0  0  0  0
    1.2230    1.3971   -3.5090 H   0  0  0  0  0  0  0  0  0  0  0  0
    0.1242    4.0877   -0.3292 H   0  0  0  0  0  0  0  0  0  0  0  0
    0.4150    3.0329   -5.1706 H   0  0  0  0  0  0  0  0  0  0  0  0
   -0.6828    5.7213   -1.9930 H   0  0  0  0  0  0  0  0  0  0  0  0
   -0.9736    6.1765   -4.1614 H   0  0  0  0  0  0  0  0  0  0  0  0
    2.1153   -0.8467    0.0307 N   0  0  0  0  0  0  0  0  0  0  0  0
    2.9173   -1.8383    0.7106 C   0  0  2  0  0  0  0  0  0  0  0  0
    2.8571   -1.5481    2.2045 C   0  0  0  0  0  0  0  0  0  0  0  0
    2.5785   -0.4418    2.6622 O   0  0  0  0  0  0  0  0  0  0  0  0
    4.3538   -1.8251    0.2117 C   0  0  0  0  0  0  0  0  0  0  0  0
    2.5244   -0.3532   -0.7573 H   0  0  0  0  0  0  0  0  0  0  0  0
    2.4561   -2.8111    0.5081 H   0  0  0  0  0  0  0  0  0  0  0  0
    4.8324   -0.8583    0.4059 H   0  0  0  0  0  0  0  0  0  0  0  0
    4.9531   -2.5960    0.7073 H   0  0  0  0  0  0  0  0  0  0  0  0
    4.3930   -2.0045   -0.8681 H   0  0  0  0  0  0  0  0  0  0  0  0
    3.1934   -2.6587    2.9658 N   0  0  0  0  0  0  0  0  0  0  0  0
    3.2226   -2.6343    4.4096 C   0  0  0  0  0  0  0  0  0  0  0  0
    3.3922   -3.5405    2.5026 H   0  0  0  0  0  0  0  0  0  0  0  0
    4.2385   -2.3880    4.7522 H   0  0  0  0  0  0  0  0  0  0  0  0
    2.5174   -1.8746    4.7778 H   0  0  0  0  0  0  0  0  0  0  0  0
    2.9339   -3.6219    4.7988 H   0  0  0  0  0  0  0  0  0  0  0  0
 23 25  2  0  0  0  0
 22 23  1  0  0  0  0
 24 26  1  0  0  0  0
 22 24  2  0  0  0  0
 25 27  1  0  0  0  0
 26 27  2  0  0  0  0
 21 22  1  0  0  0  0
 27 28  1  0  0  0  0
  1  3  1  0  0  0  0
  1  7  1  0  0  0  0
  1  2  2  0  0  0  0
 39 40  1  0  0  0  0
 40 48  1  0  0  0  0
 40 41  2  0  0  0  0
  8  9  1  0  0  0  0
  9 17  1  0  0  0  0
  9 10  2  0  0  0  0
 18 19  1  0  0  0  0
 19 38  1  0  0  0  0
 19 20  2  0  0  0  0
 39 42  1  0  0  0  0
  8 11  1  0  0  0  0
 48 49  1  0  0  0  0
 18 21  1  0  0  0  0
 38 39  1  0  0  0  0
  7  8  1  0  0  0  0
 17 18  1  0  0  0  0
 23 33  1  0  0  0  0
 24 34  1  0  0  0  0
 25 35  1  0  0  0  0
 26 36  1  0  0  0  0
  3  4  1  0  0  0  0
  3  5  1  0  0  0  0
  3  6  1  0  0  0  0
 42 45  1  0  0  0  0
 42 46  1  0  0  0  0
 42 47  1  0  0  0  0
 11 14  1  0  0  0  0
 11 15  1  0  0  0  0
 11 16  1  0  0  0  0
 49 51  1  0  0  0  0
 49 52  1  0  0  0  0
 49 53  1  0  0  0  0
 21 31  1  0  0  0  0
 21 32  1  0  0  0  0
 39 44  1  0  0  0  0
  8 13  1  0  0  0  0
 18 30  1  0  0  0  0
 48 50  1  0  0  0  0
  7 12  1  0  0  0  0
 38 43  1  0  0  0  0
 17 29  1  0  0  0  0
 28 37  1  0  0  0  0
M  END
$$$$

  -OEChem-05262214473D

 53 53  0     1  0  0  0  0  0999 V2000
   -1.9298    0.2574    3.9747 C   0  0  0  0  0  0  0  0  0  0  0  0
   -0.9825   -0.3573    3.4990 O   0  0  0  0  0  0  0  0  0  0  0  0
   -2.3617   -0.0250    5.3754 C   0  0  0  0  0  0  0  0  0  0  0  0
   -3.1214   -0.8213    5.4288 H   0  0  0  0  0  0  0  0  0  0  0  0
   -1.5305   -0.3726    6.0097 H   0  0  0  0  0  0  0  0  0  0  0  0
   -2.7997    0.8299    5.9150 H   0  0  0  0  0  0  0  0  0  0  0  0
   -2.6795    1.2298    3.3336 N   0  0  0  0  0  0  0  0  0  0  0  0
   -2.4327    1.6559    1.9812 C   0  0  2  0  0  0  0  0  0  0  0  0
   -1.0977    1.0705    1.5400 C   0  0  0  0  0  0  0  0  0  0  0  0
   -0.2256    0.7177    2.3313 O   0  0  0  0  0  0  0  0  0  0  0  0
   -2.4239    3.1726    1.8718 C   0  0  0  0  0  0  0  0  0  0  0  0
   -3.4446    1.6657    3.8454 H   0  0  0  0  0  0  0  0  0  0  0  0
   -3.2368    1.2374    1.3661 H   0  0  0  0  0  0  0  0  0  0  0  0
   -1.6248    3.6099    2.4815 H   0  0  0  0  0  0  0  0  0  0  0  0
   -2.2644    3.4949    0.8375 H   0  0  0  0  0  0  0  0  0  0  0  0
   -3.3741    3.5939    2.2175 H   0  0  0  0  0  0  0  0  0  0  0  0
   -0.9750    1.0274    0.1566 N   0  0  0  0  0  0  0  0  0  0  0  0
    0.2023    0.5266   -0.5070 C   0  0  2  0  0  0  0  0  0  0  0  0
    0.8143   -0.5348    0.4002 C   0  0  0  0  0  0  0  0  0  0  0  0
    0.1419   -1.2579    1.1323 O   0  0  0  0  0  0  0  0  0  0  0  0
    1.2215    1.6354   -0.7930 C   0  0  0  0  0  0  0  0  0  0  0  0
    0.7268    2.6348   -1.8099 C   0  0  0  0  0  0  0  0  0  0  0  0
    0.8066    2.3424   -3.1714 C   0  0  0  0  0  0  0  0  0  0  0  0
    0.1904    3.8514   -1.3881 C   0  0  0  0  0  0  0  0  0  0  0  0
    0.3499    3.2664   -4.1112 C   0  0  0  0  0  0  0  0  0  0  0  0
   -0.2664    4.7755   -2.3278 C   0  0  0  0  0  0  0  0  0  0  0  0
   -0.1866    4.4830   -3.6894 C   0  0  0  0  0  0  0  0  0  0  0  0
   -0.6310    5.3851   -4.6066 O   0  0  0  0  0  0  0  0  0  0  0  0
   -1.7582    1.3241   -0.4207 H   0  0  0  0  0  0  0  0  0  0  0  0
   -0.1398    0.0522   -1.4343 H   0  0  0  0  0  0  0  0  0  0  0  0
    2.1710    1.2007   -1.1339 H   0  0  0  0  0  0  0  0  0  0  0  0
    1.4679    2.1771    0.1298 H   0  0  0  0  0  0  0  0  0  0  0  0
    1.2230    1.3971   -3.5090 H   0  0  0  0  0  0  0  0  0  0  0  0
    0.1242    4.0877   -0.3292 H   0  0  0  0  0  0  0  0  0  0  0  0
    0.4150    3.0329   -5.1706 H   0  0  0  0  0  0  0  0  0  0  0  0
   -0.6828    5.7213   -1.9930 H   0  0  0  0  0  0  0  0  0  0  0  0
   -0.9736    6.1765   -4.1614 H   0  0  0  0  0  0  0  0  0  0  0  0
    2.1927   -0.6096    0.2558 N   0  0  0  0  0  0  0  0  0  0  0  0
    3.0169   -1.5482    0.9828 C   0  0  2  0  0  0  0  0  0  0  0  0
    2.6540   -1.4481    2.4585 C   0  0  0  0  0  0  0  0  0  0  0  0
    2.1237   -0.4555    2.9530 O   0  0  0  0  0  0  0  0  0  0  0  0
    4.4961   -1.2688    0.7666 C   0  0  0  0  0  0  0  0  0  0  0  0
    2.6449    0.0273   -0.3934 H   0  0  0  0  0  0  0  0  0  0  0  0
    2.7628   -2.5467    0.6106 H   0  0  0  0  0  0  0  0  0  0  0  0
    4.7695   -0.2727    1.1334 H   0  0  0  0  0  0  0  0  0  0  0  0
    5.1190   -1.9980    1.2950 H   0  0  0  0  0  0  0  0  0  0  0  0
    4.7493   -1.3119   -0.2982 H   0  0  0  0  0  0  0  0  0  0  0  0
    3.0313   -2.5804    3.1667 N   0  0  0  0  0  0  0  0  0  0  0  0
    2.8073   -2.7227    4.5865 C   0  0  0  0  0  0  0  0  0  0  0  0
    3.4483   -3.3634    2.6719 H   0  0  0  0  0  0  0  0  0  0  0  0
    3.6949   -2.3743    5.1350 H   0  0  0  0  0  0  0  0  0  0  0  0
    1.9347   -2.1217    4.8819 H   0  0  0  0  0  0  0  0  0  0  0  0
    2.6214   -3.7805    4.8240 H   0  0  0  0  0  0  0  0  0  0  0  0
 23 25  2  0  0  0  0
 22 23  1  0  0  0  0
 24 26  1  0  0  0  0
 22 24  2  0  0  0  0
 25 27  1  0  0  0  0
 26 27  2  0  0  0  0
 21 22  1  0  0  0  0
 27 28  1  0  0  0  0
  1  3  1  0  0  0  0
  1  7  1  0  0  0  0
  1  2  2  0  0  0  0
 39 40  1  0  0  0  0
 40 48  1  0  0  0  0
 40 41  2  0  0  0  0
  8  9  1  0  0  0  0
  9 17  1  0  0  0  0
  9 10  2  0  0  0  0
 18 19  1  0  0  0  0
 19 38  1  0  0  0  0
 19 20  2  0  0  0  0
 39 42  1  0  0  0  0
  8 11  1  0  0  0  0
 48 49  1  0  0  0  0
 18 21  1  0  0  0  0
 38 39  1  0  0  0  0
  7  8  1  0  0  0  0
 17 18  1  0  0  0  0
 23 33  1  0  0  0  0
 24 34  1  0  0  0  0
 25 35  1  0  0  0  0
 26 36  1  0  0  0  0
  3  4  1  0  0  0  0
  3  5  1  0  0  0  0
  3  6  1  0  0  0  0
 42 45  1  0  0  0  0
 42 46  1  0  0  0  0
 42 47  1  0  0  0  0
 11 14  1  0  0  0  0
 11 15  1  0  0  0  0
 11 16  1  0  0  0  0
 49 51  1  0  0  0  0
 49 52  1  0  0  0  0
 49 53  1  0  0  0  0
 21 31  1  0  0  0  0
 21 32  1  0  0  0  0
 39 44  1  0  0  0  0
  8 13  1  0  0  0  0
 18 30  1  0  0  0  0
 48 50  1  0  0  0  0
  7 12  1  0  0  0  0
 38 43  1  0  0  0  0
 17 29  1  0  0  0  0
 28 37  1  0  0  0  0
M  END
$$$$

  -OEChem-05262214473D

 53 53  0     1  0  0  0  0  0999 V2000
   -1.9298    0.2574    3.9747 C   0  0  0  0  0  0  0  0  0  0  0  0
   -0.9825   -0.3573    3.4990 O   0  0  0  0  0  0  0  0  0  0  0  0
   -2.3617   -0.0250    5.3754 C   0  0  0  0  0  0  0  0  0  0  0  0
   -3.1214   -0.8213    5.4288 H   0  0  0  0  0  0  0  0  0  0  0  0
   -1.5305   -0.3726    6.0097 H   0  0  0  0  0  0  0  0  0  0  0  0
   -2.7997    0.8299    5.9150 H   0  0  0  0  0  0  0  0  0  0  0  0
   -2.6795    1.2298    3.3336 N   0  0  0  0  0  0  0  0  0  0  0  0
   -2.4327    1.6559    1.9812 C   0  0  2  0  0  0  0  0  0  0  0  0
   -1.0977    1.0705    1.5400 C   0  0  0  0  0  0  0  0  0  0  0  0
   -0.2256    0.7177    2.3313 O   0  0  0  0  0  0  0  0  0  0  0  0
   -2.4239    3.1726    1.8718 C   0  0  0  0  0  0  0  0  0  0  0  0
   -3.4446    1.6657    3.8454 H   0  0  0  0  0  0  0  0  0  0  0  0
   -3.2368    1.2374    1.3661 H   0  0  0  0  0  0  0  0  0  0  0  0
   -1.6248    3.6099    2.4815 H   0  0  0  0  0  0  0  0  0  0  0  0
   -2.2644    3.4949    0.8375 H   0  0  0  0  0  0  0  0  0  0  0  0
   -3.3741    3.5939    2.2175 H   0  0  0  0  0  0  0  0  0  0  0  0
   -0.9750    1.0274    0.1566 N   0  0  0  0  0  0  0  0  0  0  0  0
    0.2023    0.5266   -0.5070 C   0  0  2  0  0  0  0  0  0  0  0  0
    0.8143   -0.5348    0.4002 C   0  0  0  0  0  0  0  0  0  0  0  0
    0.1534   -1.4287    0.9246 O   0  0  0  0  0  0  0  0  0  0  0  0
    1.2215    1.6354   -0.7930 C   0  0  0  0  0  0  0  0  0  0  0  0
    0.7268    2.6348   -1.8099 C   0  0  0  0  0  0  0  0  0  0  0  0
    0.8066    2.3424   -3.1714 C   0  0  0  0  0  0  0  0  0  0  0  0
    0.1904    3.8514   -1.3881 C   0  0  0  0  0  0  0  0  0  0  0  0
    0.3499    3.2664   -4.1112 C   0  0  0  0  0  0  0  0  0  0  0  0
   -0.2664    4.7755   -2.3278 C   0  0  0  0  0  0  0  0  0  0  0  0
   -0.1866    4.4830   -3.6894 C   0  0  0  0  0  0  0  0  0  0  0  0
   -0.6310    5.3851   -4.6066 O   0  0  0  0  0  0  0  0  0  0  0  0
   -1.7582    1.3241   -0.4207 H   0  0  0  0  0  0  0  0  0  0  0  0
   -0.1398    0.0522   -1.4343 H   0  0  0  0  0  0  0  0  0  0  0  0
    2.1710    1.2007   -1.1339 H   0  0  0  0  0  0  0  0  0  0  0  0
    1.4679    2.1771    0.1298 H   0  0  0  0  0  0  0  0  0  0  0  0
    1.2230    1.3971   -3.5090 H   0  0  0  0  0  0  0  0  0  0  0  0
    0.1242    4.0877   -0.3292 H   0  0  0  0  0  0  0  0  0  0  0  0
    0.4150    3.0329   -5.1706 H   0  0  0  0  0  0  0  0  0  0  0  0
   -0.6828    5.7213   -1.9930 H   0  0  0  0  0  0  0  0  0  0  0  0
   -0.9736    6.1765   -4.1614 H   0  0  0  0  0  0  0  0  0  0  0  0
    2.1904   -0.3921    0.5119 N   0  0  0  0  0  0  0  0  0  0  0  0
    3.0195   -1.2809    1.2938 C   0  0  2  0  0  0  0  0  0  0  0  0
    2.3967   -1.4091    2.6777 C   0  0  0  0  0  0  0  0  0  0  0  0
    1.6340   -0.5690    3.1505 O   0  0  0  0  0  0  0  0  0  0  0  0
    4.4478   -0.7671    1.3860 C   0  0  0  0  0  0  0  0  0  0  0  0
    2.6372    0.3756    0.0193 H   0  0  0  0  0  0  0  0  0  0  0  0
    3.0000   -2.2546    0.7923 H   0  0  0  0  0  0  0  0  0  0  0  0
    4.4874    0.2077    1.8857 H   0  0  0  0  0  0  0  0  0  0  0  0
    5.0813   -1.4559    1.9546 H   0  0  0  0  0  0  0  0  0  0  0  0
    4.8841   -0.6472    0.3885 H   0  0  0  0  0  0  0  0  0  0  0  0
    2.8265   -2.5507    3.3397 N   0  0  0  0  0  0  0  0  0  0  0  0
    2.3879   -2.8904    4.6732 C   0  0  0  0  0  0  0  0  0  0  0  0
    3.4448   -3.2012    2.8640 H   0  0  0  0  0  0  0  0  0  0  0  0
    3.0988   -2.4846    5.4081 H   0  0  0  0  0  0  0  0  0  0  0  0
    1.3911   -2.4609    4.8517 H   0  0  0  0  0  0  0  0  0  0  0  0
    2.3394   -3.9845    4.7756 H   0  0  0  0  0  0  0  0  0  0  0  0
 23 25  2  0  0  0  0
 22 23  1  0  0  0  0
 24 26  1  0  0  0  0
 22 24  2  0  0  0  0
 25 27  1  0  0  0  0
 26 27  2  0  0  0  0
 21 22  1  0  0  0  0
 27 28  1  0  0  0  0
  1  3  1  0  0  0  0
  1  7  1  0  0  0  0
  1  2  2  0  0  0  0
 39 40  1  0  0  0  0
 40 48  1  0  0  0  0
 40 41  2  0  0  0  0
  8  9  1  0  0  0  0
  9 17  1  0  0  0  0
  9 10  2  0  0  0  0
 18 19  1  0  0  0  0
 19 38  1  0  0  0  0
 19 20  2  0  0  0  0
 39 42  1  0  0  0  0
  8 11  1  0  0  0  0
 48 49  1  0  0  0  0
 18 21  1  0  0  0  0
 38 39  1  0  0  0  0
  7  8  1  0  0  0  0
 17 18  1  0  0  0  0
 23 33  1  0  0  0  0
 24 34  1  0  0  0  0
 25 35  1  0  0  0  0
 26 36  1  0  0  0  0
  3  4  1  0  0  0  0
  3  5  1  0  0  0  0
  3  6  1  0  0  0  0
 42 45  1  0  0  0  0
 42 46  1  0  0  0  0
 42 47  1  0  0  0  0
 11 14  1  0  0  0  0
 11 15  1  0  0  0  0
 11 16  1  0  0  0  0
 49 51  1  0  0  0  0
 49 52  1  0  0  0  0
 49 53  1  0  0  0  0
 21 31  1  0  0  0  0
 21 32  1  0  0  0  0
 39 44  1  0  0  0  0
  8 13  1  0  0  0  0
 18 30  1  0  0  0  0
 48 50  1  0  0  0  0
  7 12  1  0  0  0  0
 38 43  1  0  0  0  0
 17 29  1  0  0  0  0
 28 37  1  0  0  0  0
M  END
$$$$

  -OEChem-05262214473D

 53 53  0     1  0  0  0  0  0999 V2000
   -1.9298    0.2574    3.9747 C   0  0  0  0  0  0  0  0  0  0  0  0
   -0.9825   -0.3573    3.4990 O   0  0  0  0  0  0  0  0  0  0  0  0
   -2.3617   -0.0250    5.3754 C   0  0  0  0  0  0  0  0  0  0  0  0
   -3.1214   -0.8213    5.4288 H   0  0  0  0  0  0  0  0  0  0  0  0
   -1.5305   -0.3726    6.0097 H   0  0  0  0  0  0  0  0  0  0  0  0
   -2.7997    0.8299    5.9150 H   0  0  0  0  0  0  0  0  0  0  0  0
   -2.6795    1.2298    3.3336 N   0  0  0  0  0  0  0  0  0  0  0  0
   -2.4327    1.6559    1.9812 C   0  0  2  0  0  0  0  0  0  0  0  0
   -1.0977    1.0705    1.5400 C   0  0  0  0  0  0  0  0  0  0  0  0
   -0.2256    0.7177    2.3313 O   0  0  0  0  0  0  0  0  0  0  0  0
   -2.4239    3.1726    1.8718 C   0  0  0  0  0  0  0  0  0  0  0  0
   -3.4446    1.6657    3.8454 H   0  0  0  0  0  0  0  0  0  0  0  0
   -3.2368    1.2374    1.3661 H   0  0  0  0  0  0  0  0  0  0  0  0
   -1.6248    3.6099    2.4815 H   0  0  0  0  0  0  0  0  0  0  0  0
   -2.2644    3.4949    0.8375 H   0  0  0  0  0  0  0  0  0  0  0  0
   -3.3741    3.5939    2.2175 H   0  0  0  0  0  0  0  0  0  0  0  0
   -0.9750    1.0274    0.1566 N   0  0  0  0  0  0  0  0  0  0  0  0
    0.2023    0.5266   -0.5070 C   0  0  2  0  0  0  0  0  0  0  0  0
    0.8143   -0.5348    0.4002 C   0  0  0  0  0  0  0  0  0  0  0  0
    0.2283   -1.5704    0.7083 O   0  0  0  0  0  0  0  0  0  0  0  0
    1.2215    1.6354   -0.7930 C   0  0  0  0  0  0  0  0  0  0  0  0
    0.7268    2.6348   -1.8099 C   0  0  0  0  0  0  0  0  0  0  0  0
    0.8066    2.3424   -3.1714 C   0  0  0  0  0  0  0  0  0  0  0  0
    0.1904    3.8514   -1.3881 C   0  0  0  0  0  0  0  0  0  0  0  0
    0.3499    3.2664   -4.1112 C   0  0  0  0  0  0  0  0  0  0  0  0
   -0.2664    4.7755   -2.3278 C   0  0  0  0  0  0  0  0  0  0  0  0
   -0.1866    4.4830   -3.6894 C   0  0  0  0  0  0  0  0  0  0  0  0
   -0.6310    5.3851   -4.6066 O   0  0  0  0  0  0  0  0  0  0  0  0
   -1.7582    1.3241   -0.4207 H   0  0  0  0  0  0  0  0  0  0  0  0
   -0.1398    0.0522   -1.4343 H   0  0  0  0  0  0  0  0  0  0  0  0
    2.1710    1.2007   -1.1339 H   0  0  0  0  0  0  0  0  0  0  0  0
    1.4679    2.1771    0.1298 H   0  0  0  0  0  0  0  0  0  0  0  0
    1.2230    1.3971   -3.5090 H   0  0  0  0  0  0  0  0  0  0  0  0
    0.1242    4.0877   -0.3292 H   0  0  0  0  0  0  0  0  0  0  0  0
    0.4150    3.0329   -5.1706 H   0  0  0  0  0  0  0  0  0  0  0  0
   -0.6828    5.7213   -1.9930 H   0  0  0  0  0  0  0  0  0  0  0  0
   -0.9736    6.1765   -4.1614 H   0  0  0  0  0  0  0  0  0  0  0  0
    2.1085   -0.2090    0.7814 N   0  0  0  0  0  0  0  0  0  0  0  0
    2.9247   -1.0546    1.6225 C   0  0  2  0  0  0  0  0  0  0  0  0
    2.1026   -1.4339    2.8471 C   0  0  0  0  0  0  0  0  0  0  0  0
    1.1430   -0.7745    3.2413 O   0  0  0  0  0  0  0  0  0  0  0  0
    4.2124   -0.3544    2.0278 C   0  0  0  0  0  0  0  0  0  0  0  0
    2.5018    0.6680    0.4527 H   0  0  0  0  0  0  0  0  0  0  0  0
    3.1513   -1.9549    1.0408 H   0  0  0  0  0  0  0  0  0  0  0  0
    4.0054    0.5501    2.6115 H   0  0  0  0  0  0  0  0  0  0  0  0
    4.8426   -1.0066    2.6413 H   0  0  0  0  0  0  0  0  0  0  0  0
    4.7881   -0.0558    1.1451 H   0  0  0  0  0  0  0  0  0  0  0  0
    2.5930   -2.5715    3.4730 N   0  0  0  0  0  0  0  0  0  0  0  0
    1.9930   -3.1259    4.6641 C   0  0  0  0  0  0  0  0  0  0  0  0
    3.3818   -3.0651    3.0658 H   0  0  0  0  0  0  0  0  0  0  0  0
    2.4908   -2.7113    5.5531 H   0  0  0  0  0  0  0  0  0  0  0  0
    0.9237   -2.8691    4.6895 H   0  0  0  0  0  0  0  0  0  0  0  0
    2.1072   -4.2200    4.6568 H   0  0  0  0  0  0  0  0  0  0  0  0
 23 25  2  0  0  0  0
 22 23  1  0  0  0  0
 24 26  1  0  0  0  0
 22 24  2  0  0  0  0
 25 27  1  0  0  0  0
 26 27  2  0  0  0  0
 21 22  1  0  0  0  0
 27 28  1  0  0  0  0
  1  3  1  0  0  0  0
  1  7  1  0  0  0  0
  1  2  2  0  0  0  0
 39 40  1  0  0  0  0
 40 48  1  0  0  0  0
 40 41  2  0  0  0  0
  8  9  1  0  0  0  0
  9 17  1  0  0  0  0
  9 10  2  0  0  0  0
 18 19  1  0  0  0  0
 19 38  1  0  0  0  0
 19 20  2  0  0  0  0
 39 42  1  0  0  0  0
  8 11  1  0  0  0  0
 48 49  1  0  0  0  0
 18 21  1  0  0  0  0
 38 39  1  0  0  0  0
  7  8  1  0  0  0  0
 17 18  1  0  0  0  0
 23 33  1  0  0  0  0
 24 34  1  0  0  0  0
 25 35  1  0  0  0  0
 26 36  1  0  0  0  0
  3  4  1  0  0  0  0
  3  5  1  0  0  0  0
  3  6  1  0  0  0  0
 42 45  1  0  0  0  0
 42 46  1  0  0  0  0
 42 47  1  0  0  0  0
 11 14  1  0  0  0  0
 11 15  1  0  0  0  0
 11 16  1  0  0  0  0
 49 51  1  0  0  0  0
 49 52  1  0  0  0  0
 49 53  1  0  0  0  0
 21 31  1  0  0  0  0
 21 32  1  0  0  0  0
 39 44  1  0  0  0  0
  8 13  1  0  0  0  0
 18 30  1  0  0  0  0
 48 50  1  0  0  0  0
  7 12  1  0  0  0  0
 38 43  1  0  0  0  0
 17 29  1  0  0  0  0
 28 37  1  0  0  0  0
M  END
$$$$

  -OEChem-05262214473D

 53 53  0     1  0  0  0  0  0999 V2000
   -1.9298    0.2574    3.9747 C   0  0  0  0  0  0  0  0  0  0  0  0
   -0.9825   -0.3573    3.4990 O   0  0  0  0  0  0  0  0  0  0  0  0
   -2.3617   -0.0250    5.3754 C   0  0  0  0  0  0  0  0  0  0  0  0
   -3.1214   -0.8213    5.4288 H   0  0  0  0  0  0  0  0  0  0  0  0
   -1.5305   -0.3726    6.0097 H   0  0  0  0  0  0  0  0  0  0  0  0
   -2.7997    0.8299    5.9150 H   0  0  0  0  0  0  0  0  0  0  0  0
   -2.6795    1.2298    3.3336 N   0  0  0  0  0  0  0  0  0  0  0  0
   -2.4327    1.6559    1.9812 C   0  0  2  0  0  0  0  0  0  0  0  0
   -1.0977    1.0705    1.5400 C   0  0  0  0  0  0  0  0  0  0  0  0
   -0.2256    0.7177    2.3313 O   0  0  0  0  0  0  0  0  0  0  0  0
   -2.4239    3.1726    1.8718 C   0  0  0  0  0  0  0  0  0  0  0  0
   -3.4446    1.6657    3.8454 H   0  0  0  0  0  0  0  0  0  0  0  0
   -3.2368    1.2374    1.3661 H   0  0  0  0  0  0  0  0  0  0  0  0
   -1.6248    3.6099    2.4815 H   0  0  0  0  0  0  0  0  0  0  0  0
   -2.2644    3.4949    0.8375 H   0  0  0  0  0  0  0  0  0  0  0  0
   -3.3741    3.5939    2.2175 H   0  0  0  0  0  0  0  0  0  0  0  0
   -0.9750    1.0274    0.1566 N   0  0  0  0  0  0  0  0  0  0  0  0
    0.2023    0.5266   -0.5070 C   0  0  2  0  0  0  0  0  0  0  0  0
    0.8143   -0.5348    0.4002 C   0  0  0  0  0  0  0  0  0  0  0  0
    0.3614   -1.6733    0.4982 O   0  0  0  0  0  0  0  0  0  0  0  0
    1.2215    1.6354   -0.7930 C   0  0  0  0  0  0  0  0  0  0  0  0
    0.7268    2.6348   -1.8099 C   0  0  0  0  0  0  0  0  0  0  0  0
    0.8066    2.3424   -3.1714 C   0  0  0  0  0  0  0  0  0  0  0  0
    0.1904    3.8514   -1.3881 C   0  0  0  0  0  0  0  0  0  0  0  0
    0.3499    3.2664   -4.1112 C   0  0  0  0  0  0  0  0  0  0  0  0
   -0.2664    4.7755   -2.3278 C   0  0  0  0  0  0  0  0  0  0  0  0
   -0.1866    4.4830   -3.6894 C   0  0  0  0  0  0  0  0  0  0  0  0
   -0.6310    5.3851   -4.6066 O   0  0  0  0  0  0  0  0  0  0  0  0
   -1.7582    1.3241   -0.4207 H   0  0  0  0  0  0  0  0  0  0  0  0
   -0.1398    0.0522   -1.4343 H   0  0  0  0  0  0  0  0  0  0  0  0
    2.1710    1.2007   -1.1339 H   0  0  0  0  0  0  0  0  0  0  0  0
    1.4679    2.1771    0.1298 H   0  0  0  0  0  0  0  0  0  0  0  0
    1.2230    1.3971   -3.5090 H   0  0  0  0  0  0  0  0  0  0  0  0
    0.1242    4.0877   -0.3292 H   0  0  0  0  0  0  0  0  0  0  0  0
    0.4150    3.0329   -5.1706 H   0  0  0  0  0  0  0  0  0  0  0  0
   -0.6828    5.7213   -1.9930 H   0  0  0  0  0  0  0  0  0  0  0  0
   -0.9736    6.1765   -4.1614 H   0  0  0  0  0  0  0  0  0  0  0  0
    1.9526   -0.0727    1.0460 N   0  0  0  0  0  0  0  0  0  0  0  0
    2.7391   -0.8848    1.9463 C   0  0  2  0  0  0  0  0  0  0  0  0
    1.7918   -1.5208    2.9551 C   0  0  0  0  0  0  0  0  0  0  0  0
    0.6840   -1.0581    3.2192 O   0  0  0  0  0  0  0  0  0  0  0  0
    3.8057   -0.0586    2.6482 C   0  0  0  0  0  0  0  0  0  0  0  0
    2.2478    0.8845    0.8774 H   0  0  0  0  0  0  0  0  0  0  0  0
    3.2065   -1.6679    1.3394 H   0  0  0  0  0  0  0  0  0  0  0  0
    3.3564    0.7312    3.2612 H   0  0  0  0  0  0  0  0  0  0  0  0
    4.4190   -0.6808    3.3083 H   0  0  0  0  0  0  0  0  0  0  0  0
    4.4681    0.4221    1.9201 H   0  0  0  0  0  0  0  0  0  0  0  0
    2.3465   -2.6413    3.5575 N   0  0  0  0  0  0  0  0  0  0  0  0
    1.6495   -3.4133    4.5595 C   0  0  0  0  0  0  0  0  0  0  0  0
    3.2636   -2.9643    3.2635 H   0  0  0  0  0  0  0  0  0  0  0  0
    1.9122   -3.0390    5.5600 H   0  0  0  0  0  0  0  0  0  0  0  0
    0.5644   -3.3185    4.4061 H   0  0  0  0  0  0  0  0  0  0  0  0
    1.9406   -4.4708    4.4757 H   0  0  0  0  0  0  0  0  0  0  0  0
 23 25  2  0  0  0  0
 22 23  1  0  0  0  0
 24 26  1  0  0  0  0
 22 24  2  0  0  0  0
 25 27  1  0  0  0  0
 26 27  2  0  0  0  0
 21 22  1  0  0  0  0
 27 28  1  0  0  0  0
  1  3  1  0  0  0  0
  1  7  1  0  0  0  0
  1  2  2  0  0  0  0
 39 40  1  0  0  0  0
 40 48  1  0  0  0  0
 40 41  2  0  0  0  0
  8  9  1  0  0  0  0
  9 17  1  0  0  0  0
  9 10  2  0  0  0  0
 18 19  1  0  0  0  0
 19 38  1  0  0  0  0
 19 20  2  0  0  0  0
 39 42  1  0  0  0  0
  8 11  1  0  0  0  0
 48 49  1  0  0  0  0
 18 21  1  0  0  0  0
 38 39  1  0  0  0  0
  7  8  1  0  0  0  0
 17 18  1  0  0  0  0
 23 33  1  0  0  0  0
 24 34  1  0  0  0  0
 25 35  1  0  0  0  0
 26 36  1  0  0  0  0
  3  4  1  0  0  0  0
  3  5  1  0  0  0  0
  3  6  1  0  0  0  0
 42 45  1  0  0  0  0
 42 46  1  0  0  0  0
 42 47  1  0  0  0  0
 11 14  1  0  0  0  0
 11 15  1  0  0  0  0
 11 16  1  0  0  0  0
 49 51  1  0  0  0  0
 49 52  1  0  0  0  0
 49 53  1  0  0  0  0
 21 31  1  0  0  0  0
 21 32  1  0  0  0  0
 39 44  1  0  0  0  0
  8 13  1  0  0  0  0
 18 30  1  0  0  0  0
 48 50  1  0  0  0  0
  7 12  1  0  0  0  0
 38 43  1  0  0  0  0
 17 29  1  0  0  0  0
 28 37  1  0  0  0  0
M  END
$$$$

  -OEChem-05262214473D

 53 53  0     1  0  0  0  0  0999 V2000
   -1.9298    0.2574    3.9747 C   0  0  0  0  0  0  0  0  0  0  0  0
   -0.9825   -0.3573    3.4990 O   0  0  0  0  0  0  0  0  0  0  0  0
   -2.3617   -0.0250    5.3754 C   0  0  0  0  0  0  0  0  0  0  0  0
   -3.1214   -0.8213    5.4288 H   0  0  0  0  0  0  0  0  0  0  0  0
   -1.5305   -0.3726    6.0097 H   0  0  0  0  0  0  0  0  0  0  0  0
   -2.7997    0.8299    5.9150 H   0  0  0  0  0  0  0  0  0  0  0  0
   -2.6795    1.2298    3.3336 N   0  0  0  0  0  0  0  0  0  0  0  0
   -2.4327    1.6559    1.9812 C   0  0  2  0  0  0  0  0  0  0  0  0
   -1.0977    1.0705    1.5400 C   0  0  0  0  0  0  0  0  0  0  0  0
   -0.2256    0.7177    2.3313 O   0  0  0  0  0  0  0  0  0  0  0  0
   -2.4239    3.1726    1.8718 C   0  0  0  0  0  0  0  0  0  0  0  0
   -3.4446    1.6657    3.8454 H   0  0  0  0  0  0  0  0  0  0  0  0
   -3.2368    1.2374    1.3661 H   0  0  0  0  0  0  0  0  0  0  0  0
   -1.6248    3.6099    2.4815 H   0  0  0  0  0  0  0  0  0  0  0  0
   -2.2644    3.4949    0.8375 H   0  0  0  0  0  0  0  0  0  0  0  0
   -3.3741    3.5939    2.2175 H   0  0  0  0  0  0  0  0  0  0  0  0
   -0.9750    1.0274    0.1566 N   0  0  0  0  0  0  0  0  0  0  0  0
    0.2023    0.5266   -0.5070 C   0  0  2  0  0  0  0  0  0  0  0  0
    0.8143   -0.5348    0.4002 C   0  0  0  0  0  0  0  0  0  0  0  0
    0.5437   -1.7303    0.3085 O   0  0  0  0  0  0  0  0  0  0  0  0
    1.2215    1.6354   -0.7930 C   0  0  0  0  0  0  0  0  0  0  0  0
    0.7268    2.6348   -1.8099 C   0  0  0  0  0  0  0  0  0  0  0  0
    0.8066    2.3424   -3.1714 C   0  0  0  0  0  0  0  0  0  0  0  0
    0.1904    3.8514   -1.3881 C   0  0  0  0  0  0  0  0  0  0  0  0
    0.3499    3.2664   -4.1112 C   0  0  0  0  0  0  0  0  0  0  0  0
   -0.2664    4.7755   -2.3278 C   0  0  0  0  0  0  0  0  0  0  0  0
   -0.1866    4.4830   -3.6894 C   0  0  0  0  0  0  0  0  0  0  0  0
   -0.6310    5.3851   -4.6066 O   0  0  0  0  0  0  0  0  0  0  0  0
   -1.7582    1.3241   -0.4207 H   0  0  0  0  0  0  0  0  0  0  0  0
   -0.1398    0.0522   -1.4343 H   0  0  0  0  0  0  0  0  0  0  0  0
    2.1710    1.2007   -1.1339 H   0  0  0  0  0  0  0  0  0  0  0  0
    1.4679    2.1771    0.1298 H   0  0  0  0  0  0  0  0  0  0  0  0
    1.2230    1.3971   -3.5090 H   0  0  0  0  0  0  0  0  0  0  0  0
    0.1242    4.0877   -0.3292 H   0  0  0  0  0  0  0  0  0  0  0  0
    0.4150    3.0329   -5.1706 H   0  0  0  0  0  0  0  0  0  0  0  0
   -0.6828    5.7213   -1.9930 H   0  0  0  0  0  0  0  0  0  0  0  0
   -0.9736    6.1765   -4.1614 H   0  0  0  0  0  0  0  0  0  0  0  0
    1.7334    0.0075    1.2877 N   0  0  0  0  0  0  0  0  0  0  0  0
    2.4753   -0.7830    2.2434 C   0  0  2  0  0  0  0  0  0  0  0  0
    1.4856   -1.6638    2.9945 C   0  0  0  0  0  0  0  0  0  0  0  0
    0.2883   -1.4005    3.0856 O   0  0  0  0  0  0  0  0  0  0  0  0
    3.2556    0.1000    3.2048 C   0  0  0  0  0  0  0  0  0  0  0  0
    1.8926    1.0104    1.2643 H   0  0  0  0  0  0  0  0  0  0  0  0
    3.1619   -1.4132    1.6675 H   0  0  0  0  0  0  0  0  0  0  0  0
    2.5844    0.7386    3.7907 H   0  0  0  0  0  0  0  0  0  0  0  0
    3.8395   -0.5006    3.9101 H   0  0  0  0  0  0  0  0  0  0  0  0
    3.9456    0.7538    2.6607 H   0  0  0  0  0  0  0  0  0  0  0  0
    2.1040   -2.7556    3.5874 N   0  0  0  0  0  0  0  0  0  0  0  0
    1.3807   -3.7330    4.3668 C   0  0  0  0  0  0  0  0  0  0  0  0
    3.0983   -2.9057    3.4436 H   0  0  0  0  0  0  0  0  0  0  0  0
    1.4027   -3.4454    5.4283 H   0  0  0  0  0  0  0  0  0  0  0  0
    0.3375   -3.7786    4.0209 H   0  0  0  0  0  0  0  0  0  0  0  0
    1.8509   -4.7199    4.2447 H   0  0  0  0  0  0  0  0  0  0  0  0
 23 25  2  0  0  0  0
 22 23  1  0  0  0  0
 24 26  1  0  0  0  0
 22 24  2  0  0  0  0
 25 27  1  0  0  0  0
 26 27  2  0  0  0  0
 21 22  1  0  0  0  0
 27 28  1  0  0  0  0
  1  3  1  0  0  0  0
  1  7  1  0  0  0  0
  1  2  2  0  0  0  0
 39 40  1  0  0  0  0
 40 48  1  0  0  0  0
 40 41  2  0  0  0  0
  8  9  1  0  0  0  0
  9 17  1  0  0  0  0
  9 10  2  0  0  0  0
 18 19  1  0  0  0  0
 19 38  1  0  0  0  0
 19 20  2  0  0  0  0
 39 42  1  0  0  0  0
  8 11  1  0  0  0  0
 48 49  1  0  0  0  0
 18 21  1  0  0  0  0
 38 39  1  0  0  0  0
  7  8  1  0  0  0  0
 17 18  1  0  0  0  0
 23 33  1  0  0  0  0
 24 34  1  0  0  0  0
 25 35  1  0  0  0  0
 26 36  1  0  0  0  0
  3  4  1  0  0  0  0
  3  5  1  0  0  0  0
  3  6  1  0  0  0  0
 42 45  1  0  0  0  0
 42 46  1  0  0  0  0
 42 47  1  0  0  0  0
 11 14  1  0  0  0  0
 11 15  1  0  0  0  0
 11 16  1  0  0  0  0
 49 51  1  0  0  0  0
 49 52  1  0  0  0  0
 49 53  1  0  0  0  0
 21 31  1  0  0  0  0
 21 32  1  0  0  0  0
 39 44  1  0  0  0  0
  8 13  1  0  0  0  0
 18 30  1  0  0  0  0
 48 50  1  0  0  0  0
  7 12  1  0  0  0  0
 38 43  1  0  0  0  0
 17 29  1  0  0  0  0
 28 37  1  0  0  0  0
M  END
$$$$

  -OEChem-05262214473D

 53 53  0     1  0  0  0  0  0999 V2000
   -1.9298    0.2574    3.9747 C   0  0  0  0  0  0  0  0  0  0  0  0
   -0.9825   -0.3573    3.4990 O   0  0  0  0  0  0  0  0  0  0  0  0
   -2.3617   -0.0250    5.3754 C   0  0  0  0  0  0  0  0  0  0  0  0
   -3.1214   -0.8213    5.4288 H   0  0  0  0  0  0  0  0  0  0  0  0
   -1.5305   -0.3726    6.0097 H   0  0  0  0  0  0  0  0  0  0  0  0
   -2.7997    0.8299    5.9150 H   0  0  0  0  0  0  0  0  0  0  0  0
   -2.6795    1.2298    3.3336 N   0  0  0  0  0  0  0  0  0  0  0  0
   -2.4327    1.6559    1.9812 C   0  0  2  0  0  0  0  0  0  0  0  0
   -1.0977    1.0705    1.5400 C   0  0  0  0  0  0  0  0  0  0  0  0
   -0.2256    0.7177    2.3313 O   0  0  0  0  0  0  0  0  0  0  0  0
   -2.4239    3.1726    1.8718 C   0  0  0  0  0  0  0  0  0  0  0  0
   -3.4446    1.6657    3.8454 H   0  0  0  0  0  0  0  0  0  0  0  0
   -3.2368    1.2374    1.3661 H   0  0  0  0  0  0  0  0  0  0  0  0
   -1.6248    3.6099    2.4815 H   0  0  0  0  0  0  0  0  0  0  0  0
   -2.2644    3.4949    0.8375 H   0  0  0  0  0  0  0  0  0  0  0  0
   -3.3741    3.5939    2.2175 H   0  0  0  0  0  0  0  0  0  0  0  0
   -0.9750    1.0274    0.1566 N   0  0  0  0  0  0  0  0  0  0  0  0
    0.2023    0.5266   -0.5070 C   0  0  2  0  0  0  0  0  0  0  0  0
    0.8143   -0.5348    0.4002 C   0  0  0  0  0  0  0  0  0  0  0  0
    0.7627   -1.7376    0.1522 O   0  0  0  0  0  0  0  0  0  0  0  0
    1.2215    1.6354   -0.7930 C   0  0  0  0  0  0  0  0  0  0  0  0
    0.7268    2.6348   -1.8099 C   0  0  0  0  0  0  0  0  0  0  0  0
    0.8066    2.3424   -3.1714 C   0  0  0  0  0  0  0  0  0  0  0  0
    0.1904    3.8514   -1.3881 C   0  0  0  0  0  0  0  0  0  0  0  0
    0.3499    3.2664   -4.1112 C   0  0  0  0  0  0  0  0  0  0  0  0
   -0.2664    4.7755   -2.3278 C   0  0  0  0  0  0  0  0  0  0  0  0
   -0.1866    4.4830   -3.6894 C   0  0  0  0  0  0  0  0  0  0  0  0
   -0.6310    5.3851   -4.6066 O   0  0  0  0  0  0  0  0  0  0  0  0
   -1.7582    1.3241   -0.4207 H   0  0  0  0  0  0  0  0  0  0  0  0
   -0.1398    0.0522   -1.4343 H   0  0  0  0  0  0  0  0  0  0  0  0
    2.1710    1.2007   -1.1339 H   0  0  0  0  0  0  0  0  0  0  0  0
    1.4679    2.1771    0.1298 H   0  0  0  0  0  0  0  0  0  0  0  0
    1.2230    1.3971   -3.5090 H   0  0  0  0  0  0  0  0  0  0  0  0
    0.1242    4.0877   -0.3292 H   0  0  0  0  0  0  0  0  0  0  0  0
    0.4150    3.0329   -5.1706 H   0  0  0  0  0  0  0  0  0  0  0  0
   -0.6828    5.7213   -1.9930 H   0  0  0  0  0  0  0  0  0  0  0  0
   -0.9736    6.1765   -4.1614 H   0  0  0  0  0  0  0  0  0  0  0  0
    1.4658    0.0260    1.4899 N   0  0  0  0  0  0  0  0  0  0  0  0
    2.1513   -0.7562    2.4934 C   0  0  2  0  0  0  0  0  0  0  0  0
    1.2047   -1.8531    2.9624 C   0  0  0  0  0  0  0  0  0  0  0  0
   -0.0171   -1.7782    2.8497 O   0  0  0  0  0  0  0  0  0  0  0  0
    2.5994    0.1105    3.6599 C   0  0  0  0  0  0  0  0  0  0  0  0
    1.4604    1.0371    1.5871 H   0  0  0  0  0  0  0  0  0  0  0  0
    3.0204   -1.2081    2.0029 H   0  0  0  0  0  0  0  0  0  0  0  0
    1.7422    0.5718    4.1638 H   0  0  0  0  0  0  0  0  0  0  0  0
    3.1436   -0.4783    4.4056 H   0  0  0  0  0  0  0  0  0  0  0  0
    3.2564    0.9169    3.3164 H   0  0  0  0  0  0  0  0  0  0  0  0
    1.8820   -2.9064    3.5608 N   0  0  0  0  0  0  0  0  0  0  0  0
    1.2051   -4.0632    4.0991 C   0  0  0  0  0  0  0  0  0  0  0  0
    2.8971   -2.8932    3.5939 H   0  0  0  0  0  0  0  0  0  0  0  0
    0.9967   -3.9027    5.1671 H   0  0  0  0  0  0  0  0  0  0  0  0
    0.2587   -4.2178    3.5602 H   0  0  0  0  0  0  0  0  0  0  0  0
    1.8443   -4.9504    3.9796 H   0  0  0  0  0  0  0  0  0  0  0  0
 23 25  2  0  0  0  0
 22 23  1  0  0  0  0
 24 26  1  0  0  0  0
 22 24  2  0  0  0  0
 25 27  1  0  0  0  0
 26 27  2  0  0  0  0
 21 22  1  0  0  0  0
 27 28  1  0  0  0  0
  1  3  1  0  0  0  0
  1  7  1  0  0  0  0
  1  2  2  0  0  0  0
 39 40  1  0  0  0  0
 40 48  1  0  0  0  0
 40 41  2  0  0  0  0
  8  9  1  0  0  0  0
  9 17  1  0  0  0  0
  9 10  2  0  0  0  0
 18 19  1  0  0  0  0
 19 38  1  0  0  0  0
 19 20  2  0  0  0  0
 39 42  1  0  0  0  0
  8 11  1  0  0  0  0
 48 49  1  0  0  0  0
 18 21  1  0  0  0  0
 38 39  1  0  0  0  0
  7  8  1  0  0  0  0
 17 18  1  0  0  0  0
 23 33  1  0  0  0  0
 24 34  1  0  0  0  0
 25 35  1  0  0  0  0
 26 36  1  0  0  0  0
  3  4  1  0  0  0  0
  3  5  1  0  0  0  0
  3  6  1  0  0  0  0
 42 45  1  0  0  0  0
 42 46  1  0  0  0  0
 42 47  1  0  0  0  0
 11 14  1  0  0  0  0
 11 15  1  0  0  0  0
 11 16  1  0  0  0  0
 49 51  1  0  0  0  0
 49 52  1  0  0  0  0
 49 53  1  0  0  0  0
 21 31  1  0  0  0  0
 21 32  1  0  0  0  0
 39 44  1  0  0  0  0
  8 13  1  0  0  0  0
 18 30  1  0  0  0  0
 48 50  1  0  0  0  0
  7 12  1  0  0  0  0
 38 43  1  0  0  0  0
 17 29  1  0  0  0  0
 28 37  1  0  0  0  0
M  END
$$$$

  -OEChem-05262214473D

 53 53  0     1  0  0  0  0  0999 V2000
   -1.9298    0.2574    3.9747 C   0  0  0  0  0  0  0  0  0  0  0  0
   -0.9825   -0.3573    3.4990 O   0  0  0  0  0  0  0  0  0  0  0  0
   -2.3617   -0.0250    5.3754 C   0  0  0  0  0  0  0  0  0  0  0  0
   -3.1214   -0.8213    5.4288 H   0  0  0  0  0  0  0  0  0  0  0  0
   -1.5305   -0.3726    6.0097 H   0  0  0  0  0  0  0  0  0  0  0  0
   -2.7997    0.8299    5.9150 H   0  0  0  0  0  0  0  0  0  0  0  0
   -2.6795    1.2298    3.3336 N   0  0  0  0  0  0  0  0  0  0  0  0
   -2.4327    1.6559    1.9812 C   0  0  2  0  0  0  0  0  0  0  0  0
   -1.0977    1.0705    1.5400 C   0  0  0  0  0  0  0  0  0  0  0  0
   -0.2256    0.7177    2.3313 O   0  0  0  0  0  0  0  0  0  0  0  0
   -2.4239    3.1726    1.8718 C   0  0  0  0  0  0  0  0  0  0  0  0
   -3.4446    1.6657    3.8454 H   0  0  0  0  0  0  0  0  0  0  0  0
   -3.2368    1.2374    1.3661 H   0  0  0  0  0  0  0  0  0  0  0  0
   -1.6248    3.6099    2.4815 H   0  0  0  0  0  0  0  0  0  0  0  0
   -2.2644    3.4949    0.8375 H   0  0  0  0  0  0  0  0  0  0  0  0
   -3.3741    3.5939    2.2175 H   0  0  0  0  0  0  0  0  0  0  0  0
   -0.9750    1.0274    0.1566 N   0  0  0  0  0  0  0  0  0  0  0  0
    0.2023    0.5266   -0.5070 C   0  0  2  0  0  0  0  0  0  0  0  0
    0.8143   -0.5348    0.4002 C   0  0  0  0  0  0  0  0  0  0  0  0
    1.0035   -1.6947    0.0400 O   0  0  0  0  0  0  0  0  0  0  0  0
    1.2215    1.6354   -0.7930 C   0  0  0  0  0  0  0  0  0  0  0  0
    0.7268    2.6348   -1.8099 C   0  0  0  0  0  0  0  0  0  0  0  0
    0.8066    2.3424   -3.1714 C   0  0  0  0  0  0  0  0  0  0  0  0
    0.1904    3.8514   -1.3881 C   0  0  0  0  0  0  0  0  0  0  0  0
    0.3499    3.2664   -4.1112 C   0  0  0  0  0  0  0  0  0  0  0  0
   -0.2664    4.7755   -2.3278 C   0  0  0  0  0  0  0  0  0  0  0  0
   -0.1866    4.4830   -3.6894 C   0  0  0  0  0  0  0  0  0  0  0  0
   -0.6310    5.3851   -4.6066 O   0  0  0  0  0  0  0  0  0  0  0  0
   -1.7582    1.3241   -0.4207 H   0  0  0  0  0  0  0  0  0  0  0  0
   -0.1398    0.0522   -1.4343 H   0  0  0  0  0  0  0  0  0  0  0  0
    2.1710    1.2007   -1.1339 H   0  0  0  0  0  0  0  0  0  0  0  0
    1.4679    2.1771    0.1298 H   0  0  0  0  0  0  0  0  0  0  0  0
    1.2230    1.3971   -3.5090 H   0  0  0  0  0  0  0  0  0  0  0  0
    0.1242    4.0877   -0.3292 H   0  0  0  0  0  0  0  0  0  0  0  0
    0.4150    3.0329   -5.1706 H   0  0  0  0  0  0  0  0  0  0  0  0
   -0.6828    5.7213   -1.9930 H   0  0  0  0  0  0  0  0  0  0  0  0
   -0.9736    6.1765   -4.1614 H   0  0  0  0  0  0  0  0  0  0  0  0
    1.1679   -0.0183    1.6390 N   0  0  0  0  0  0  0  0  0  0  0  0
    1.7892   -0.8062    2.6792 C   0  0  2  0  0  0  0  0  0  0  0  0
    0.9683   -2.0760    2.8612 C   0  0  0  0  0  0  0  0  0  0  0  0
   -0.2115   -2.1656    2.5276 O   0  0  0  0  0  0  0  0  0  0  0  0
    1.8820   -0.0276    3.9823 C   0  0  0  0  0  0  0  0  0  0  0  0
    0.9807    0.9628    1.8238 H   0  0  0  0  0  0  0  0  0  0  0  0
    2.7917   -1.0667    2.3226 H   0  0  0  0  0  0  0  0  0  0  0  0
    0.8872    0.2423    4.3551 H   0  0  0  0  0  0  0  0  0  0  0  0
    2.3786   -0.6155    4.7612 H   0  0  0  0  0  0  0  0  0  0  0  0
    2.4475    0.9001    3.8425 H   0  0  0  0  0  0  0  0  0  0  0  0
    1.6955   -3.0835    3.4793 N   0  0  0  0  0  0  0  0  0  0  0  0
    1.1346   -4.3813    3.7744 C   0  0  0  0  0  0  0  0  0  0  0  0
    2.6738   -2.9278    3.7041 H   0  0  0  0  0  0  0  0  0  0  0  0
    0.7222   -4.3798    4.7942 H   0  0  0  0  0  0  0  0  0  0  0  0
    0.3332   -4.6064    3.0553 H   0  0  0  0  0  0  0  0  0  0  0  0
    1.9211   -5.1465    3.6983 H   0  0  0  0  0  0  0  0  0  0  0  0
 23 25  2  0  0  0  0
 22 23  1  0  0  0  0
 24 26  1  0  0  0  0
 22 24  2  0  0  0  0
 25 27  1  0  0  0  0
 26 27  2  0  0  0  0
 21 22  1  0  0  0  0
 27 28  1  0  0  0  0
  1  3  1  0  0  0  0
  1  7  1  0  0  0  0
  1  2  2  0  0  0  0
 39 40  1  0  0  0  0
 40 48  1  0  0  0  0
 40 41  2  0  0  0  0
  8  9  1  0  0  0  0
  9 17  1  0  0  0  0
  9 10  2  0  0  0  0
 18 19  1  0  0  0  0
 19 38  1  0  0  0  0
 19 20  2  0  0  0  0
 39 42  1  0  0  0  0
  8 11  1  0  0  0  0
 48 49  1  0  0  0  0
 18 21  1  0  0  0  0
 38 39  1  0  0  0  0
  7  8  1  0  0  0  0
 17 18  1  0  0  0  0
 23 33  1  0  0  0  0
 24 34  1  0  0  0  0
 25 35  1  0  0  0  0
 26 36  1  0  0  0  0
  3  4  1  0  0  0  0
  3  5  1  0  0  0  0
  3  6  1  0  0  0  0
 42 45  1  0  0  0  0
 42 46  1  0  0  0  0
 42 47  1  0  0  0  0
 11 14  1  0  0  0  0
 11 15  1  0  0  0  0
 11 16  1  0  0  0  0
 49 51  1  0  0  0  0
 49 52  1  0  0  0  0
 49 53  1  0  0  0  0
 21 31  1  0  0  0  0
 21 32  1  0  0  0  0
 39 44  1  0  0  0  0
  8 13  1  0  0  0  0
 18 30  1  0  0  0  0
 48 50  1  0  0  0  0
  7 12  1  0  0  0  0
 38 43  1  0  0  0  0
 17 29  1  0  0  0  0
 28 37  1  0  0  0  0
M  END
$$$$

  -OEChem-05262214473D

 53 53  0     1  0  0  0  0  0999 V2000
   -1.9298    0.2574    3.9747 C   0  0  0  0  0  0  0  0  0  0  0  0
   -0.9825   -0.3573    3.4990 O   0  0  0  0  0  0  0  0  0  0  0  0
   -2.3617   -0.0250    5.3754 C   0  0  0  0  0  0  0  0  0  0  0  0
   -3.1214   -0.8213    5.4288 H   0  0  0  0  0  0  0  0  0  0  0  0
   -1.5305   -0.3726    6.0097 H   0  0  0  0  0  0  0  0  0  0  0  0
   -2.7997    0.8299    5.9150 H   0  0  0  0  0  0  0  0  0  0  0  0
   -2.6795    1.2298    3.3336 N   0  0  0  0  0  0  0  0  0  0  0  0
   -2.4327    1.6559    1.9812 C   0  0  2  0  0  0  0  0  0  0  0  0
   -1.0977    1.0705    1.5400 C   0  0  0  0  0  0  0  0  0  0  0  0
   -0.2256    0.7177    2.3313 O   0  0  0  0  0  0  0  0  0  0  0  0
   -2.4239    3.1726    1.8718 C   0  0  0  0  0  0  0  0  0  0  0  0
   -3.4446    1.6657    3.8454 H   0  0  0  0  0  0  0  0  0  0  0  0
   -3.2368    1.2374    1.3661 H   0  0  0  0  0  0  0  0  0  0  0  0
   -1.6248    3.6099    2.4815 H   0  0  0  0  0  0  0  0  0  0  0  0
   -2.2644    3.4949    0.8375 H   0  0  0  0  0  0  0  0  0  0  0  0
   -3.3741    3.5939    2.2175 H   0  0  0  0  0  0  0  0  0  0  0  0
   -0.9750    1.0274    0.1566 N   0  0  0  0  0  0  0  0  0  0  0  0
    0.2023    0.5266   -0.5070 C   0  0  2  0  0  0  0  0  0  0  0  0
    0.8143   -0.5348    0.4002 C   0  0  0  0  0  0  0  0  0  0  0  0
    1.2498   -1.6044   -0.0206 O   0  0  0  0  0  0  0  0  0  0  0  0
    1.2215    1.6354   -0.7930 C   0  0  0  0  0  0  0  0  0  0  0  0
    0.7268    2.6348   -1.8099 C   0  0  0  0  0  0  0  0  0  0  0  0
    0.8066    2.3424   -3.1714 C   0  0  0  0  0  0  0  0  0  0  0  0
    0.1904    3.8514   -1.3881 C   0  0  0  0  0  0  0  0  0  0  0  0
    0.3499    3.2664   -4.1112 C   0  0  0  0  0  0  0  0  0  0  0  0
   -0.2664    4.7755   -2.3278 C   0  0  0  0  0  0  0  0  0  0  0  0
   -0.1866    4.4830   -3.6894 C   0  0  0  0  0  0  0  0  0  0  0  0
   -0.6310    5.3851   -4.6066 O   0  0  0  0  0  0  0  0  0  0  0  0
   -1.7582    1.3241   -0.4207 H   0  0  0  0  0  0  0  0  0  0  0  0
   -0.1398    0.0522   -1.4343 H   0  0  0  0  0  0  0  0  0  0  0  0
    2.1710    1.2007   -1.1339 H   0  0  0  0  0  0  0  0  0  0  0  0
    1.4679    2.1771    0.1298 H   0  0  0  0  0  0  0  0  0  0  0  0
    1.2230    1.3971   -3.5090 H   0  0  0  0  0  0  0  0  0  0  0  0
    0.1242    4.0877   -0.3292 H   0  0  0  0  0  0  0  0  0  0  0  0
    0.4150    3.0329   -5.1706 H   0  0  0  0  0  0  0  0  0  0  0  0
   -0.6828    5.7213   -1.9930 H   0  0  0  0  0  0  0  0  0  0  0  0
   -0.9736    6.1765   -4.1614 H   0  0  0  0  0  0  0  0  0  0  0  0
    0.8602   -0.1225    1.7247 N   0  0  0  0  0  0  0  0  0  0  0  0
    1.4136   -0.9295    2.7883 C   0  0  2  0  0  0  0  0  0  0  0  0
    0.7925   -2.3171    2.6976 C   0  0  0  0  0  0  0  0  0  0  0  0
   -0.2814   -2.5363    2.1411 O   0  0  0  0  0  0  0  0  0  0  0  0
    1.1523   -0.3049    4.1501 C   0  0  0  0  0  0  0  0  0  0  0  0
    0.4861    0.7925    1.9583 H   0  0  0  0  0  0  0  0  0  0  0  0
    2.4914   -0.9985    2.6050 H   0  0  0  0  0  0  0  0  0  0  0  0
    0.0776   -0.2276    4.3515 H   0  0  0  0  0  0  0  0  0  0  0  0
    1.5968   -0.9027    4.9526 H   0  0  0  0  0  0  0  0  0  0  0  0
    1.5739    0.7046    4.2032 H   0  0  0  0  0  0  0  0  0  0  0  0
    1.5574   -3.2748    3.3487 N   0  0  0  0  0  0  0  0  0  0  0  0
    1.1740   -4.6657    3.4151 C   0  0  0  0  0  0  0  0  0  0  0  0
    2.4435   -3.0070    3.7667 H   0  0  0  0  0  0  0  0  0  0  0  0
    0.5976   -4.8442    4.3349 H   0  0  0  0  0  0  0  0  0  0  0  0
    0.5560   -4.9178    2.5407 H   0  0  0  0  0  0  0  0  0  0  0  0
    2.0763   -5.2949    3.4201 H   0  0  0  0  0  0  0  0  0  0  0  0
 23 25  2  0  0  0  0
 22 23  1  0  0  0  0
 24 26  1  0  0  0  0
 22 24  2  0  0  0  0
 25 27  1  0  0  0  0
 26 27  2  0  0  0  0
 21 22  1  0  0  0  0
 27 28  1  0  0  0  0
  1  3  1  0  0  0  0
  1  7  1  0  0  0  0
  1  2  2  0  0  0  0
 39 40  1  0  0  0  0
 40 48  1  0  0  0  0
 40 41  2  0  0  0  0
  8  9  1  0  0  0  0
  9 17  1  0  0  0  0
  9 10  2  0  0  0  0
 18 19  1  0  0  0  0
 19 38  1  0  0  0  0
 19 20  2  0  0  0  0
 39 42  1  0  0  0  0
  8 11  1  0  0  0  0
 48 49  1  0  0  0  0
 18 21  1  0  0  0  0
 38 39  1  0  0  0  0
  7  8  1  0  0  0  0
 17 18  1  0  0  0  0
 23 33  1  0  0  0  0
 24 34  1  0  0  0  0
 25 35  1  0  0  0  0
 26 36  1  0  0  0  0
  3  4  1  0  0  0  0
  3  5  1  0  0  0  0
  3  6  1  0  0  0  0
 42 45  1  0  0  0  0
 42 46  1  0  0  0  0
 42 47  1  0  0  0  0
 11 14  1  0  0  0  0
 11 15  1  0  0  0  0
 11 16  1  0  0  0  0
 49 51  1  0  0  0  0
 49 52  1  0  0  0  0
 49 53  1  0  0  0  0
 21 31  1  0  0  0  0
 21 32  1  0  0  0  0
 39 44  1  0  0  0  0
  8 13  1  0  0  0  0
 18 30  1  0  0  0  0
 48 50  1  0  0  0  0
  7 12  1  0  0  0  0
 38 43  1  0  0  0  0
 17 29  1  0  0  0  0
 28 37  1  0  0  0  0
M  END
$$$$

  -OEChem-05262214473D

 53 53  0     1  0  0  0  0  0999 V2000
   -1.9298    0.2574    3.9747 C   0  0  0  0  0  0  0  0  0  0  0  0
   -0.9825   -0.3573    3.4990 O   0  0  0  0  0  0  0  0  0  0  0  0
   -2.3617   -0.0250    5.3754 C   0  0  0  0  0  0  0  0  0  0  0  0
   -3.1214   -0.8213    5.4288 H   0  0  0  0  0  0  0  0  0  0  0  0
   -1.5305   -0.3726    6.0097 H   0  0  0  0  0  0  0  0  0  0  0  0
   -2.7997    0.8299    5.9150 H   0  0  0  0  0  0  0  0  0  0  0  0
   -2.6795    1.2298    3.3336 N   0  0  0  0  0  0  0  0  0  0  0  0
   -2.4327    1.6559    1.9812 C   0  0  2  0  0  0  0  0  0  0  0  0
   -1.0977    1.0705    1.5400 C   0  0  0  0  0  0  0  0  0  0  0  0
   -0.2256    0.7177    2.3313 O   0  0  0  0  0  0  0  0  0  0  0  0
   -2.4239    3.1726    1.8718 C   0  0  0  0  0  0  0  0  0  0  0  0
   -3.4446    1.6657    3.8454 H   0  0  0  0  0  0  0  0  0  0  0  0
   -3.2368    1.2374    1.3661 H   0  0  0  0  0  0  0  0  0  0  0  0
   -1.6248    3.6099    2.4815 H   0  0  0  0  0  0  0  0  0  0  0  0
   -2.2644    3.4949    0.8375 H   0  0  0  0  0  0  0  0  0  0  0  0
   -3.3741    3.5939    2.2175 H   0  0  0  0  0  0  0  0  0  0  0  0
   -0.9750    1.0274    0.1566 N   0  0  0  0  0  0  0  0  0  0  0  0
    0.2023    0.5266   -0.5070 C   0  0  2  0  0  0  0  0  0  0  0  0
    0.8143   -0.5348    0.4002 C   0  0  0  0  0  0  0  0  0  0  0  0
    1.4847   -1.4731   -0.0254 O   0  0  0  0  0  0  0  0  0  0  0  0
    1.2215    1.6354   -0.7930 C   0  0  0  0  0  0  0  0  0  0  0  0
    0.7268    2.6348   -1.8099 C   0  0  0  0  0  0  0  0  0  0  0  0
    0.8066    2.3424   -3.1714 C   0  0  0  0  0  0  0  0  0  0  0  0
    0.1904    3.8514   -1.3881 C   0  0  0  0  0  0  0  0  0  0  0  0
    0.3499    3.2664   -4.1112 C   0  0  0  0  0  0  0  0  0  0  0  0
   -0.2664    4.7755   -2.3278 C   0  0  0  0  0  0  0  0  0  0  0  0
   -0.1866    4.4830   -3.6894 C   0  0  0  0  0  0  0  0  0  0  0  0
   -0.6310    5.3851   -4.6066 O   0  0  0  0  0  0  0  0  0  0  0  0
   -1.7582    1.3241   -0.4207 H   0  0  0  0  0  0  0  0  0  0  0  0
   -0.1398    0.0522   -1.4343 H   0  0  0  0  0  0  0  0  0  0  0  0
    2.1710    1.2007   -1.1339 H   0  0  0  0  0  0  0  0  0  0  0  0
    1.4679    2.1771    0.1298 H   0  0  0  0  0  0  0  0  0  0  0  0
    1.2230    1.3971   -3.5090 H   0  0  0  0  0  0  0  0  0  0  0  0
    0.1242    4.0877   -0.3292 H   0  0  0  0  0  0  0  0  0  0  0  0
    0.4150    3.0329   -5.1706 H   0  0  0  0  0  0  0  0  0  0  0  0
   -0.6828    5.7213   -1.9930 H   0  0  0  0  0  0  0  0  0  0  0  0
   -0.9736    6.1765   -4.1614 H   0  0  0  0  0  0  0  0  0  0  0  0
    0.5636   -0.2794    1.7412 N   0  0  0  0  0  0  0  0  0  0  0  0
    1.0501   -1.1178    2.8132 C   0  0  2  0  0  0  0  0  0  0  0  0
    0.6893   -2.5601    2.4829 C   0  0  0  0  0  0  0  0  0  0  0  0
   -0.2223   -2.8649    1.7168 O   0  0  0  0  0  0  0  0  0  0  0  0
    0.4598   -0.7027    4.1518 C   0  0  0  0  0  0  0  0  0  0  0  0
    0.0103    0.5379    1.9813 H   0  0  0  0  0  0  0  0  0  0  0  0
    2.1400   -1.0082    2.8307 H   0  0  0  0  0  0  0  0  0  0  0  0
   -0.6314   -0.8058    4.1534 H   0  0  0  0  0  0  0  0  0  0  0  0
    0.8513   -1.3205    4.9668 H   0  0  0  0  0  0  0  0  0  0  0  0
    0.6952    0.3438    4.3738 H   0  0  0  0  0  0  0  0  0  0  0  0
    1.4770   -3.4673    3.1777 N   0  0  0  0  0  0  0  0  0  0  0  0
    1.3205   -4.8971    3.0456 C   0  0  0  0  0  0  0  0  0  0  0  0
    2.2221   -3.1255    3.7775 H   0  0  0  0  0  0  0  0  0  0  0  0
    0.6316   -5.2642    3.8206 H   0  0  0  0  0  0  0  0  0  0  0  0
    0.9119   -5.1307    2.0514 H   0  0  0  0  0  0  0  0  0  0  0  0
    2.2991   -5.3853    3.1639 H   0  0  0  0  0  0  0  0  0  0  0  0
 23 25  2  0  0  0  0
 22 23  1  0  0  0  0
 24 26  1  0  0  0  0
 22 24  2  0  0  0  0
 25 27  1  0  0  0  0
 26 27  2  0  0  0  0
 21 22  1  0  0  0  0
 27 28  1  0  0  0  0
  1  3  1  0  0  0  0
  1  7  1  0  0  0  0
  1  2  2  0  0  0  0
 39 40  1  0  0  0  0
 40 48  1  0  0  0  0
 40 41  2  0  0  0  0
  8  9  1  0  0  0  0
  9 17  1  0  0  0  0
  9 10  2  0  0  0  0
 18 19  1  0  0  0  0
 19 38  1  0  0  0  0
 19 20  2  0  0  0  0
 39 42  1  0  0  0  0
  8 11  1  0  0  0  0
 48 49  1  0  0  0  0
 18 21  1  0  0  0  0
 38 39  1  0  0  0  0
  7  8  1  0  0  0  0
 17 18  1  0  0  0  0
 23 33  1  0  0  0  0
 24 34  1  0  0  0  0
 25 35  1  0  0  0  0
 26 36  1  0  0  0  0
  3  4  1  0  0  0  0
  3  5  1  0  0  0  0
  3  6  1  0  0  0  0
 42 45  1  0  0  0  0
 42 46  1  0  0  0  0
 42 47  1  0  0  0  0
 11 14  1  0  0  0  0
 11 15  1  0  0  0  0
 11 16  1  0  0  0  0
 49 51  1  0  0  0  0
 49 52  1  0  0  0  0
 49 53  1  0  0  0  0
 21 31  1  0  0  0  0
 21 32  1  0  0  0  0
 39 44  1  0  0  0  0
  8 13  1  0  0  0  0
 18 30  1  0  0  0  0
 48 50  1  0  0  0  0
  7 12  1  0  0  0  0
 38 43  1  0  0  0  0
 17 29  1  0  0  0  0
 28 37  1  0  0  0  0
M  END
$$$$

  -OEChem-05262214473D

 53 53  0     1  0  0  0  0  0999 V2000
   -1.9298    0.2574    3.9747 C   0  0  0  0  0  0  0  0  0  0  0  0
   -0.9825   -0.3573    3.4990 O   0  0  0  0  0  0  0  0  0  0  0  0
   -2.3617   -0.0250    5.3754 C   0  0  0  0  0  0  0  0  0  0  0  0
   -3.1214   -0.8213    5.4288 H   0  0  0  0  0  0  0  0  0  0  0  0
   -1.5305   -0.3726    6.0097 H   0  0  0  0  0  0  0  0  0  0  0  0
   -2.7997    0.8299    5.9150 H   0  0  0  0  0  0  0  0  0  0  0  0
   -2.6795    1.2298    3.3336 N   0  0  0  0  0  0  0  0  0  0  0  0
   -2.4327    1.6559    1.9812 C   0  0  2  0  0  0  0  0  0  0  0  0
   -1.0977    1.0705    1.5400 C   0  0  0  0  0  0  0  0  0  0  0  0
   -0.2256    0.7177    2.3313 O   0  0  0  0  0  0  0  0  0  0  0  0
   -2.4239    3.1726    1.8718 C   0  0  0  0  0  0  0  0  0  0  0  0
   -3.4446    1.6657    3.8454 H   0  0  0  0  0  0  0  0  0  0  0  0
   -3.2368    1.2374    1.3661 H   0  0  0  0  0  0  0  0  0  0  0  0
   -1.6248    3.6099    2.4815 H   0  0  0  0  0  0  0  0  0  0  0  0
   -2.2644    3.4949    0.8375 H   0  0  0  0  0  0  0  0  0  0  0  0
   -3.3741    3.5939    2.2175 H   0  0  0  0  0  0  0  0  0  0  0  0
   -0.9750    1.0274    0.1566 N   0  0  0  0  0  0  0  0  0  0  0  0
    0.2023    0.5266   -0.5070 C   0  0  2  0  0  0  0  0  0  0  0  0
    0.8143   -0.5348    0.4002 C   0  0  0  0  0  0  0  0  0  0  0  0
    1.6922   -1.3095    0.0260 O   0  0  0  0  0  0  0  0  0  0  0  0
    1.2215    1.6354   -0.7930 C   0  0  0  0  0  0  0  0  0  0  0  0
    0.7268    2.6348   -1.8099 C   0  0  0  0  0  0  0  0  0  0  0  0
    0.8066    2.3424   -3.1714 C   0  0  0  0  0  0  0  0  0  0  0  0
    0.1904    3.8514   -1.3881 C   0  0  0  0  0  0  0  0  0  0  0  0
    0.3499    3.2664   -4.1112 C   0  0  0  0  0  0  0  0  0  0  0  0
   -0.2664    4.7755   -2.3278 C   0  0  0  0  0  0  0  0  0  0  0  0
   -0.1866    4.4830   -3.6894 C   0  0  0  0  0  0  0  0  0  0  0  0
   -0.6310    5.3851   -4.6066 O   0  0  0  0  0  0  0  0  0  0  0  0
   -1.7582    1.3241   -0.4207 H   0  0  0  0  0  0  0  0  0  0  0  0
   -0.1398    0.0522   -1.4343 H   0  0  0  0  0  0  0  0  0  0  0  0
    2.1710    1.2007   -1.1339 H   0  0  0  0  0  0  0  0  0  0  0  0
    1.4679    2.1771    0.1298 H   0  0  0  0  0  0  0  0  0  0  0  0
    1.2230    1.3971   -3.5090 H   0  0  0  0  0  0  0  0  0  0  0  0
    0.1242    4.0877   -0.3292 H   0  0  0  0  0  0  0  0  0  0  0  0
    0.4150    3.0329   -5.1706 H   0  0  0  0  0  0  0  0  0  0  0  0
   -0.6828    5.7213   -1.9930 H   0  0  0  0  0  0  0  0  0  0  0  0
   -0.9736    6.1765   -4.1614 H   0  0  0  0  0  0  0  0  0  0  0  0
    0.2983   -0.4784    1.6874 N   0  0  0  0  0  0  0  0  0  0  0  0
    0.7236   -1.3583    2.7522 C   0  0  2  0  0  0  0  0  0  0  0  0
    0.6658   -2.7884    2.2317 C   0  0  0  0  0  0  0  0  0  0  0  0
   -0.0381   -3.1292    1.2833 O   0  0  0  0  0  0  0  0  0  0  0  0
   -0.1480   -1.1938    3.9874 C   0  0  0  0  0  0  0  0  0  0  0  0
   -0.4142    0.2163    1.8914 H   0  0  0  0  0  0  0  0  0  0  0  0
    1.7613   -1.0952    2.9843 H   0  0  0  0  0  0  0  0  0  0  0  0
   -1.1915   -1.4529    3.7742 H   0  0  0  0  0  0  0  0  0  0  0  0
    0.1930   -1.8403    4.8027 H   0  0  0  0  0  0  0  0  0  0  0  0
   -0.1288   -0.1579    4.3428 H   0  0  0  0  0  0  0  0  0  0  0  0
    1.4597   -3.6479    2.9781 N   0  0  0  0  0  0  0  0  0  0  0  0
    1.5643   -5.0595    2.6910 C   0  0  0  0  0  0  0  0  0  0  0  0
    2.0245   -3.2752    3.7357 H   0  0  0  0  0  0  0  0  0  0  0  0
    0.8218   -5.6113    3.2862 H   0  0  0  0  0  0  0  0  0  0  0  0
    1.3767   -5.2308    1.6208 H   0  0  0  0  0  0  0  0  0  0  0  0
    2.5744   -5.4118    2.9472 H   0  0  0  0  0  0  0  0  0  0  0  0
 23 25  2  0  0  0  0
 22 23  1  0  0  0  0
 24 26  1  0  0  0  0
 22 24  2  0  0  0  0
 25 27  1  0  0  0  0
 26 27  2  0  0  0  0
 21 22  1  0  0  0  0
 27 28  1  0  0  0  0
  1  3  1  0  0  0  0
  1  7  1  0  0  0  0
  1  2  2  0  0  0  0
 39 40  1  0  0  0  0
 40 48  1  0  0  0  0
 40 41  2  0  0  0  0
  8  9  1  0  0  0  0
  9 17  1  0  0  0  0
  9 10  2  0  0  0  0
 18 19  1  0  0  0  0
 19 38  1  0  0  0  0
 19 20  2  0  0  0  0
 39 42  1  0  0  0  0
  8 11  1  0  0  0  0
 48 49  1  0  0  0  0
 18 21  1  0  0  0  0
 38 39  1  0  0  0  0
  7  8  1  0  0  0  0
 17 18  1  0  0  0  0
 23 33  1  0  0  0  0
 24 34  1  0  0  0  0
 25 35  1  0  0  0  0
 26 36  1  0  0  0  0
  3  4  1  0  0  0  0
  3  5  1  0  0  0  0
  3  6  1  0  0  0  0
 42 45  1  0  0  0  0
 42 46  1  0  0  0  0
 42 47  1  0  0  0  0
 11 14  1  0  0  0  0
 11 15  1  0  0  0  0
 11 16  1  0  0  0  0
 49 51  1  0  0  0  0
 49 52  1  0  0  0  0
 49 53  1  0  0  0  0
 21 31  1  0  0  0  0
 21 32  1  0  0  0  0
 39 44  1  0  0  0  0
  8 13  1  0  0  0  0
 18 30  1  0  0  0  0
 48 50  1  0  0  0  0
  7 12  1  0  0  0  0
 38 43  1  0  0  0  0
 17 29  1  0  0  0  0
 28 37  1  0  0  0  0
M  END
$$$$

  -OEChem-05262214473D

 53 53  0     1  0  0  0  0  0999 V2000
   -1.9298    0.2574    3.9747 C   0  0  0  0  0  0  0  0  0  0  0  0
   -0.9825   -0.3573    3.4990 O   0  0  0  0  0  0  0  0  0  0  0  0
   -2.3617   -0.0250    5.3754 C   0  0  0  0  0  0  0  0  0  0  0  0
   -3.1214   -0.8213    5.4288 H   0  0  0  0  0  0  0  0  0  0  0  0
   -1.5305   -0.3726    6.0097 H   0  0  0  0  0  0  0  0  0  0  0  0
   -2.7997    0.8299    5.9150 H   0  0  0  0  0  0  0  0  0  0  0  0
   -2.6795    1.2298    3.3336 N   0  0  0  0  0  0  0  0  0  0  0  0
   -2.4327    1.6559    1.9812 C   0  0  2  0  0  0  0  0  0  0  0  0
   -1.0977    1.0705    1.5400 C   0  0  0  0  0  0  0  0  0  0  0  0
   -0.2256    0.7177    2.3313 O   0  0  0  0  0  0  0  0  0  0  0  0
   -2.4239    3.1726    1.8718 C   0  0  0  0  0  0  0  0  0  0  0  0
   -3.4446    1.6657    3.8454 H   0  0  0  0  0  0  0  0  0  0  0  0
   -3.2368    1.2374    1.3661 H   0  0  0  0  0  0  0  0  0  0  0  0
   -1.6248    3.6099    2.4815 H   0  0  0  0  0  0  0  0  0  0  0  0
   -2.2644    3.4949    0.8375 H   0  0  0  0  0  0  0  0  0  0  0  0
   -3.3741    3.5939    2.2175 H   0  0  0  0  0  0  0  0  0  0  0  0
   -0.9750    1.0274    0.1566 N   0  0  0  0  0  0  0  0  0  0  0  0
    0.2023    0.5266   -0.5070 C   0  0  2  0  0  0  0  0  0  0  0  0
    0.8143   -0.5348    0.4002 C   0  0  0  0  0  0  0  0  0  0  0  0
    1.8582   -1.1249    0.1300 O   0  0  0  0  0  0  0  0  0  0  0  0
    1.2215    1.6354   -0.7930 C   0  0  0  0  0  0  0  0  0  0  0  0
    0.7268    2.6348   -1.8099 C   0  0  0  0  0  0  0  0  0  0  0  0
    0.8066    2.3424   -3.1714 C   0  0  0  0  0  0  0  0  0  0  0  0
    0.1904    3.8514   -1.3881 C   0  0  0  0  0  0  0  0  0  0  0  0
    0.3499    3.2664   -4.1112 C   0  0  0  0  0  0  0  0  0  0  0  0
   -0.2664    4.7755   -2.3278 C   0  0  0  0  0  0  0  0  0  0  0  0
   -0.1866    4.4830   -3.6894 C   0  0  0  0  0  0  0  0  0  0  0  0
   -0.6310    5.3851   -4.6066 O   0  0  0  0  0  0  0  0  0  0  0  0
   -1.7582    1.3241   -0.4207 H   0  0  0  0  0  0  0  0  0  0  0  0
   -0.1398    0.0522   -1.4343 H   0  0  0  0  0  0  0  0  0  0  0  0
    2.1710    1.2007   -1.1339 H   0  0  0  0  0  0  0  0  0  0  0  0
    1.4679    2.1771    0.1298 H   0  0  0  0  0  0  0  0  0  0  0  0
    1.2230    1.3971   -3.5090 H   0  0  0  0  0  0  0  0  0  0  0  0
    0.1242    4.0877   -0.3292 H   0  0  0  0  0  0  0  0  0  0  0  0
    0.4150    3.0329   -5.1706 H   0  0  0  0  0  0  0  0  0  0  0  0
   -0.6828    5.7213   -1.9930 H   0  0  0  0  0  0  0  0  0  0  0  0
   -0.9736    6.1765   -4.1614 H   0  0  0  0  0  0  0  0  0  0  0  0
    0.0823   -0.7059    1.5670 N   0  0  0  0  0  0  0  0  0  0  0  0
    0.4562   -1.6345    2.6094 C   0  0  2  0  0  0  0  0  0  0  0  0
    0.7235   -2.9865    1.9611 C   0  0  0  0  0  0  0  0  0  0  0  0
    0.2586   -3.3110    0.8704 O   0  0  0  0  0  0  0  0  0  0  0  0
   -0.6300   -1.7446    3.6681 C   0  0  0  0  0  0  0  0  0  0  0  0
   -0.7585   -0.1504    1.6947 H   0  0  0  0  0  0  0  0  0  0  0  0
    1.3813   -1.2535    3.0555 H   0  0  0  0  0  0  0  0  0  0  0  0
   -1.5646   -2.1248    3.2397 H   0  0  0  0  0  0  0  0  0  0  0  0
   -0.3331   -2.4267    4.4716 H   0  0  0  0  0  0  0  0  0  0  0  0
   -0.8418   -0.7661    4.1123 H   0  0  0  0  0  0  0  0  0  0  0  0
    1.5069   -3.8042    2.7634 N   0  0  0  0  0  0  0  0  0  0  0  0
    1.8887   -5.1421    2.3756 C   0  0  0  0  0  0  0  0  0  0  0  0
    1.8642   -3.4459    3.6441 H   0  0  0  0  0  0  0  0  0  0  0  0
    1.1553   -5.8617    2.7683 H   0  0  0  0  0  0  0  0  0  0  0  0
    1.9186   -5.2112    1.2782 H   0  0  0  0  0  0  0  0  0  0  0  0
    2.8835   -5.3725    2.7847 H   0  0  0  0  0  0  0  0  0  0  0  0
 23 25  2  0  0  0  0
 22 23  1  0  0  0  0
 24 26  1  0  0  0  0
 22 24  2  0  0  0  0
 25 27  1  0  0  0  0
 26 27  2  0  0  0  0
 21 22  1  0  0  0  0
 27 28  1  0  0  0  0
  1  3  1  0  0  0  0
  1  7  1  0  0  0  0
  1  2  2  0  0  0  0
 39 40  1  0  0  0  0
 40 48  1  0  0  0  0
 40 41  2  0  0  0  0
  8  9  1  0  0  0  0
  9 17  1  0  0  0  0
  9 10  2  0  0  0  0
 18 19  1  0  0  0  0
 19 38  1  0  0  0  0
 19 20  2  0  0  0  0
 39 42  1  0  0  0  0
  8 11  1  0  0  0  0
 48 49  1  0  0  0  0
 18 21  1  0  0  0  0
 38 39  1  0  0  0  0
  7  8  1  0  0  0  0
 17 18  1  0  0  0  0
 23 33  1  0  0  0  0
 24 34  1  0  0  0  0
 25 35  1  0  0  0  0
 26 36  1  0  0  0  0
  3  4  1  0  0  0  0
  3  5  1  0  0  0  0
  3  6  1  0  0  0  0
 42 45  1  0  0  0  0
 42 46  1  0  0  0  0
 42 47  1  0  0  0  0
 11 14  1  0  0  0  0
 11 15  1  0  0  0  0
 11 16  1  0  0  0  0
 49 51  1  0  0  0  0
 49 52  1  0  0  0  0
 49 53  1  0  0  0  0
 21 31  1  0  0  0  0
 21 32  1  0  0  0  0
 39 44  1  0  0  0  0
  8 13  1  0  0  0  0
 18 30  1  0  0  0  0
 48 50  1  0  0  0  0
  7 12  1  0  0  0  0
 38 43  1  0  0  0  0
 17 29  1  0  0  0  0
 28 37  1  0  0  0  0
M  END
$$$$

  -OEChem-05262214473D

 53 53  0     1  0  0  0  0  0999 V2000
   -1.9298    0.2574    3.9747 C   0  0  0  0  0  0  0  0  0  0  0  0
   -0.9825   -0.3573    3.4990 O   0  0  0  0  0  0  0  0  0  0  0  0
   -2.3617   -0.0250    5.3754 C   0  0  0  0  0  0  0  0  0  0  0  0
   -3.1214   -0.8213    5.4288 H   0  0  0  0  0  0  0  0  0  0  0  0
   -1.5305   -0.3726    6.0097 H   0  0  0  0  0  0  0  0  0  0  0  0
   -2.7997    0.8299    5.9150 H   0  0  0  0  0  0  0  0  0  0  0  0
   -2.6795    1.2298    3.3336 N   0  0  0  0  0  0  0  0  0  0  0  0
   -2.4327    1.6559    1.9812 C   0  0  2  0  0  0  0  0  0  0  0  0
   -1.0977    1.0705    1.5400 C   0  0  0  0  0  0  0  0  0  0  0  0
   -0.2256    0.7177    2.3313 O   0  0  0  0  0  0  0  0  0  0  0  0
   -2.4239    3.1726    1.8718 C   0  0  0  0  0  0  0  0  0  0  0  0
   -3.4446    1.6657    3.8454 H   0  0  0  0  0  0  0  0  0  0  0  0
   -3.2368    1.2374    1.3661 H   0  0  0  0  0  0  0  0  0  0  0  0
   -1.6248    3.6099    2.4815 H   0  0  0  0  0  0  0  0  0  0  0  0
   -2.2644    3.4949    0.8375 H   0  0  0  0  0  0  0  0  0  0  0  0
   -3.3741    3.5939    2.2175 H   0  0  0  0  0  0  0  0  0  0  0  0
   -0.9750    1.0274    0.1566 N   0  0  0  0  0  0  0  0  0  0  0  0
    0.2023    0.5266   -0.5070 C   0  0  2  0  0  0  0  0  0  0  0  0
    0.8143   -0.5348    0.4002 C   0  0  0  0  0  0  0  0  0  0  0  0
    1.9713   -0.9318    0.2796 O   0  0  0  0  0  0  0  0  0  0  0  0
    1.2215    1.6354   -0.7930 C   0  0  0  0  0  0  0  0  0  0  0  0
    0.7268    2.6348   -1.8099 C   0  0  0  0  0  0  0  0  0  0  0  0
    0.8066    2.3424   -3.1714 C   0  0  0  0  0  0  0  0  0  0  0  0
    0.1904    3.8514   -1.3881 C   0  0  0  0  0  0  0  0  0  0  0  0
    0.3499    3.2664   -4.1112 C   0  0  0  0  0  0  0  0  0  0  0  0
   -0.2664    4.7755   -2.3278 C   0  0  0  0  0  0  0  0  0  0  0  0
   -0.1866    4.4830   -3.6894 C   0  0  0  0  0  0  0  0  0  0  0  0
   -0.6310    5.3851   -4.6066 O   0  0  0  0  0  0  0  0  0  0  0  0
   -1.7582    1.3241   -0.4207 H   0  0  0  0  0  0  0  0  0  0  0  0
   -0.1398    0.0522   -1.4343 H   0  0  0  0  0  0  0  0  0  0  0  0
    2.1710    1.2007   -1.1339 H   0  0  0  0  0  0  0  0  0  0  0  0
    1.4679    2.1771    0.1298 H   0  0  0  0  0  0  0  0  0  0  0  0
    1.2230    1.3971   -3.5090 H   0  0  0  0  0  0  0  0  0  0  0  0
    0.1242    4.0877   -0.3292 H   0  0  0  0  0  0  0  0  0  0  0  0
    0.4150    3.0329   -5.1706 H   0  0  0  0  0  0  0  0  0  0  0  0
   -0.6828    5.7213   -1.9930 H   0  0  0  0  0  0  0  0  0  0  0  0
   -0.9736    6.1765   -4.1614 H   0  0  0  0  0  0  0  0  0  0  0  0
   -0.0695   -0.9463    1.3881 N   0  0  0  0  0  0  0  0  0  0  0  0
    0.2662   -1.9277    2.3946 C   0  0  2  0  0  0  0  0  0  0  0  0
    0.8585   -3.1408    1.6895 C   0  0  0  0  0  0  0  0  0  0  0  0
    0.6476   -3.3981    0.5061 O   0  0  0  0  0  0  0  0  0  0  0  0
   -0.9531   -2.3177    3.2155 C   0  0  0  0  0  0  0  0  0  0  0  0
   -0.9991   -0.5372    1.4045 H   0  0  0  0  0  0  0  0  0  0  0  0
    1.0258   -1.4724    3.0393 H   0  0  0  0  0  0  0  0  0  0  0  0
   -1.7251   -2.7757    2.5865 H   0  0  0  0  0  0  0  0  0  0  0  0
   -0.6914   -3.0398    3.9960 H   0  0  0  0  0  0  0  0  0  0  0  0
   -1.3953   -1.4394    3.6979 H   0  0  0  0  0  0  0  0  0  0  0  0
    1.6152   -3.9257    2.5483 N   0  0  0  0  0  0  0  0  0  0  0  0
    2.2716   -5.1391    2.1208 C   0  0  0  0  0  0  0  0  0  0  0  0
    1.7521   -3.6260    3.5091 H   0  0  0  0  0  0  0  0  0  0  0  0
    1.6092   -5.9984    2.3021 H   0  0  0  0  0  0  0  0  0  0  0  0
    2.5008   -5.0731    1.0470 H   0  0  0  0  0  0  0  0  0  0  0  0
    3.2052   -5.2700    2.6876 H   0  0  0  0  0  0  0  0  0  0  0  0
 23 25  2  0  0  0  0
 22 23  1  0  0  0  0
 24 26  1  0  0  0  0
 22 24  2  0  0  0  0
 25 27  1  0  0  0  0
 26 27  2  0  0  0  0
 21 22  1  0  0  0  0
 27 28  1  0  0  0  0
  1  3  1  0  0  0  0
  1  7  1  0  0  0  0
  1  2  2  0  0  0  0
 39 40  1  0  0  0  0
 40 48  1  0  0  0  0
 40 41  2  0  0  0  0
  8  9  1  0  0  0  0
  9 17  1  0  0  0  0
  9 10  2  0  0  0  0
 18 19  1  0  0  0  0
 19 38  1  0  0  0  0
 19 20  2  0  0  0  0
 39 42  1  0  0  0  0
  8 11  1  0  0  0  0
 48 49  1  0  0  0  0
 18 21  1  0  0  0  0
 38 39  1  0  0  0  0
  7  8  1  0  0  0  0
 17 18  1  0  0  0  0
 23 33  1  0  0  0  0
 24 34  1  0  0  0  0
 25 35  1  0  0  0  0
 26 36  1  0  0  0  0
  3  4  1  0  0  0  0
  3  5  1  0  0  0  0
  3  6  1  0  0  0  0
 42 45  1  0  0  0  0
 42 46  1  0  0  0  0
 42 47  1  0  0  0  0
 11 14  1  0  0  0  0
 11 15  1  0  0  0  0
 11 16  1  0  0  0  0
 49 51  1  0  0  0  0
 49 52  1  0  0  0  0
 49 53  1  0  0  0  0
 21 31  1  0  0  0  0
 21 32  1  0  0  0  0
 39 44  1  0  0  0  0
  8 13  1  0  0  0  0
 18 30  1  0  0  0  0
 48 50  1  0  0  0  0
  7 12  1  0  0  0  0
 38 43  1  0  0  0  0
 17 29  1  0  0  0  0
 28 37  1  0  0  0  0
M  END
$$$$

  -OEChem-05262214473D

 53 53  0     1  0  0  0  0  0999 V2000
   -1.9298    0.2574    3.9747 C   0  0  0  0  0  0  0  0  0  0  0  0
   -0.9825   -0.3573    3.4990 O   0  0  0  0  0  0  0  0  0  0  0  0
   -2.3617   -0.0250    5.3754 C   0  0  0  0  0  0  0  0  0  0  0  0
   -3.1214   -0.8213    5.4288 H   0  0  0  0  0  0  0  0  0  0  0  0
   -1.5305   -0.3726    6.0097 H   0  0  0  0  0  0  0  0  0  0  0  0
   -2.7997    0.8299    5.9150 H   0  0  0  0  0  0  0  0  0  0  0  0
   -2.6795    1.2298    3.3336 N   0  0  0  0  0  0  0  0  0  0  0  0
   -2.4327    1.6559    1.9812 C   0  0  2  0  0  0  0  0  0  0  0  0
   -1.0977    1.0705    1.5400 C   0  0  0  0  0  0  0  0  0  0  0  0
   -0.2256    0.7177    2.3313 O   0  0  0  0  0  0  0  0  0  0  0  0
   -2.4239    3.1726    1.8718 C   0  0  0  0  0  0  0  0  0  0  0  0
   -3.4446    1.6657    3.8454 H   0  0  0  0  0  0  0  0  0  0  0  0
   -3.2368    1.2374    1.3661 H   0  0  0  0  0  0  0  0  0  0  0  0
   -1.6248    3.6099    2.4815 H   0  0  0  0  0  0  0  0  0  0  0  0
   -2.2644    3.4949    0.8375 H   0  0  0  0  0  0  0  0  0  0  0  0
   -3.3741    3.5939    2.2175 H   0  0  0  0  0  0  0  0  0  0  0  0
   -0.9750    1.0274    0.1566 N   0  0  0  0  0  0  0  0  0  0  0  0
    0.2023    0.5266   -0.5070 C   0  0  2  0  0  0  0  0  0  0  0  0
    0.8143   -0.5348    0.4002 C   0  0  0  0  0  0  0  0  0  0  0  0
    2.0239   -0.7434    0.4645 O   0  0  0  0  0  0  0  0  0  0  0  0
    1.2215    1.6354   -0.7930 C   0  0  0  0  0  0  0  0  0  0  0  0
    0.7268    2.6348   -1.8099 C   0  0  0  0  0  0  0  0  0  0  0  0
    0.8066    2.3424   -3.1714 C   0  0  0  0  0  0  0  0  0  0  0  0
    0.1904    3.8514   -1.3881 C   0  0  0  0  0  0  0  0  0  0  0  0
    0.3499    3.2664   -4.1112 C   0  0  0  0  0  0  0  0  0  0  0  0
   -0.2664    4.7755   -2.3278 C   0  0  0  0  0  0  0  0  0  0  0  0
   -0.1866    4.4830   -3.6894 C   0  0  0  0  0  0  0  0  0  0  0  0
   -0.6310    5.3851   -4.6066 O   0  0  0  0  0  0  0  0  0  0  0  0
   -1.7582    1.3241   -0.4207 H   0  0  0  0  0  0  0  0  0  0  0  0
   -0.1398    0.0522   -1.4343 H   0  0  0  0  0  0  0  0  0  0  0  0
    2.1710    1.2007   -1.1339 H   0  0  0  0  0  0  0  0  0  0  0  0
    1.4679    2.1771    0.1298 H   0  0  0  0  0  0  0  0  0  0  0  0
    1.2230    1.3971   -3.5090 H   0  0  0  0  0  0  0  0  0  0  0  0
    0.1242    4.0877   -0.3292 H   0  0  0  0  0  0  0  0  0  0  0  0
    0.4150    3.0329   -5.1706 H   0  0  0  0  0  0  0  0  0  0  0  0
   -0.6828    5.7213   -1.9930 H   0  0  0  0  0  0  0  0  0  0  0  0
   -0.9736    6.1765   -4.1614 H   0  0  0  0  0  0  0  0  0  0  0  0
   -0.1469   -1.1834    1.1629 N   0  0  0  0  0  0  0  0  0  0  0  0
    0.1665   -2.2178    2.1224 C   0  0  2  0  0  0  0  0  0  0  0  0
    1.0616   -3.2408    1.4355 C   0  0  0  0  0  0  0  0  0  0  0  0
    1.1024   -3.3844    0.2153 O   0  0  0  0  0  0  0  0  0  0  0  0
   -1.0953   -2.8741    2.6606 C   0  0  0  0  0  0  0  0  0  0  0  0
   -1.1197   -0.9177    1.0407 H   0  0  0  0  0  0  0  0  0  0  0  0
    0.7190   -1.7368    2.9369 H   0  0  0  0  0  0  0  0  0  0  0  0
   -1.6622   -3.3613    1.8589 H   0  0  0  0  0  0  0  0  0  0  0  0
   -0.8574   -3.6378    3.4084 H   0  0  0  0  0  0  0  0  0  0  0  0
   -1.7516   -2.1320    3.1280 H   0  0  0  0  0  0  0  0  0  0  0  0
    1.7773   -4.0039    2.3474 N   0  0  0  0  0  0  0  0  0  0  0  0
    2.6869   -5.0507    1.9440 C   0  0  0  0  0  0  0  0  0  0  0  0
    1.6960   -3.8031    3.3397 H   0  0  0  0  0  0  0  0  0  0  0  0
    2.1528   -6.0120    1.9194 H   0  0  0  0  0  0  0  0  0  0  0  0
    3.0835   -4.8261    0.9429 H   0  0  0  0  0  0  0  0  0  0  0  0
    3.5178   -5.1113    2.6624 H   0  0  0  0  0  0  0  0  0  0  0  0
 23 25  2  0  0  0  0
 22 23  1  0  0  0  0
 24 26  1  0  0  0  0
 22 24  2  0  0  0  0
 25 27  1  0  0  0  0
 26 27  2  0  0  0  0
 21 22  1  0  0  0  0
 27 28  1  0  0  0  0
  1  3  1  0  0  0  0
  1  7  1  0  0  0  0
  1  2  2  0  0  0  0
 39 40  1  0  0  0  0
 40 48  1  0  0  0  0
 40 41  2  0  0  0  0
  8  9  1  0  0  0  0
  9 17  1  0  0  0  0
  9 10  2  0  0  0  0
 18 19  1  0  0  0  0
 19 38  1  0  0  0  0
 19 20  2  0  0  0  0
 39 42  1  0  0  0  0
  8 11  1  0  0  0  0
 48 49  1  0  0  0  0
 18 21  1  0  0  0  0
 38 39  1  0  0  0  0
  7  8  1  0  0  0  0
 17 18  1  0  0  0  0
 23 33  1  0  0  0  0
 24 34  1  0  0  0  0
 25 35  1  0  0  0  0
 26 36  1  0  0  0  0
  3  4  1  0  0  0  0
  3  5  1  0  0  0  0
  3  6  1  0  0  0  0
 42 45  1  0  0  0  0
 42 46  1  0  0  0  0
 42 47  1  0  0  0  0
 11 14  1  0  0  0  0
 11 15  1  0  0  0  0
 11 16  1  0  0  0  0
 49 51  1  0  0  0  0
 49 52  1  0  0  0  0
 49 53  1  0  0  0  0
 21 31  1  0  0  0  0
 21 32  1  0  0  0  0
 39 44  1  0  0  0  0
  8 13  1  0  0  0  0
 18 30  1  0  0  0  0
 48 50  1  0  0  0  0
  7 12  1  0  0  0  0
 38 43  1  0  0  0  0
 17 29  1  0  0  0  0
 28 37  1  0  0  0  0
M  END
$$$$

  -OEChem-05262214473D

 53 53  0     1  0  0  0  0  0999 V2000
   -1.9298    0.2574    3.9747 C   0  0  0  0  0  0  0  0  0  0  0  0
   -0.9825   -0.3573    3.4990 O   0  0  0  0  0  0  0  0  0  0  0  0
   -2.3617   -0.0250    5.3754 C   0  0  0  0  0  0  0  0  0  0  0  0
   -3.1214   -0.8213    5.4288 H   0  0  0  0  0  0  0  0  0  0  0  0
   -1.5305   -0.3726    6.0097 H   0  0  0  0  0  0  0  0  0  0  0  0
   -2.7997    0.8299    5.9150 H   0  0  0  0  0  0  0  0  0  0  0  0
   -2.6795    1.2298    3.3336 N   0  0  0  0  0  0  0  0  0  0  0  0
   -2.4327    1.6559    1.9812 C   0  0  2  0  0  0  0  0  0  0  0  0
   -1.0977    1.0705    1.5400 C   0  0  0  0  0  0  0  0  0  0  0  0
   -0.2256    0.7177    2.3313 O   0  0  0  0  0  0  0  0  0  0  0  0
   -2.4239    3.1726    1.8718 C   0  0  0  0  0  0  0  0  0  0  0  0
   -3.4446    1.6657    3.8454 H   0  0  0  0  0  0  0  0  0  0  0  0
   -3.2368    1.2374    1.3661 H   0  0  0  0  0  0  0  0  0  0  0  0
   -1.6248    3.6099    2.4815 H   0  0  0  0  0  0  0  0  0  0  0  0
   -2.2644    3.4949    0.8375 H   0  0  0  0  0  0  0  0  0  0  0  0
   -3.3741    3.5939    2.2175 H   0  0  0  0  0  0  0  0  0  0  0  0
   -0.9750    1.0274    0.1566 N   0  0  0  0  0  0  0  0  0  0  0  0
    0.2023    0.5266   -0.5070 C   0  0  2  0  0  0  0  0  0  0  0  0
    0.8143   -0.5348    0.4002 C   0  0  0  0  0  0  0  0  0  0  0  0
    2.0124   -0.5725    0.6722 O   0  0  0  0  0  0  0  0  0  0  0  0
    1.2215    1.6354   -0.7930 C   0  0  0  0  0  0  0  0  0  0  0  0
    0.7268    2.6348   -1.8099 C   0  0  0  0  0  0  0  0  0  0  0  0
    0.8066    2.3424   -3.1714 C   0  0  0  0  0  0  0  0  0  0  0  0
    0.1904    3.8514   -1.3881 C   0  0  0  0  0  0  0  0  0  0  0  0
    0.3499    3.2664   -4.1112 C   0  0  0  0  0  0  0  0  0  0  0  0
   -0.2664    4.7755   -2.3278 C   0  0  0  0  0  0  0  0  0  0  0  0
   -0.1866    4.4830   -3.6894 C   0  0  0  0  0  0  0  0  0  0  0  0
   -0.6310    5.3851   -4.6066 O   0  0  0  0  0  0  0  0  0  0  0  0
   -1.7582    1.3241   -0.4207 H   0  0  0  0  0  0  0  0  0  0  0  0
   -0.1398    0.0522   -1.4343 H   0  0  0  0  0  0  0  0  0  0  0  0
    2.1710    1.2007   -1.1339 H   0  0  0  0  0  0  0  0  0  0  0  0
    1.4679    2.1771    0.1298 H   0  0  0  0  0  0  0  0  0  0  0  0
    1.2230    1.3971   -3.5090 H   0  0  0  0  0  0  0  0  0  0  0  0
    0.1242    4.0877   -0.3292 H   0  0  0  0  0  0  0  0  0  0  0  0
    0.4150    3.0329   -5.1706 H   0  0  0  0  0  0  0  0  0  0  0  0
   -0.6828    5.7213   -1.9930 H   0  0  0  0  0  0  0  0  0  0  0  0
   -0.9736    6.1765   -4.1614 H   0  0  0  0  0  0  0  0  0  0  0  0
   -0.1446   -1.4009    0.9069 N   0  0  0  0  0  0  0  0  0  0  0  0
    0.1640   -2.4851    1.8114 C   0  0  2  0  0  0  0  0  0  0  0  0
    1.3189   -3.2798    1.2163 C   0  0  0  0  0  0  0  0  0  0  0  0
    1.5920   -3.2709    0.0178 O   0  0  0  0  0  0  0  0  0  0  0  0
   -1.0471   -3.3757    2.0412 C   0  0  0  0  0  0  0  0  0  0  0  0
   -1.1120   -1.2660    0.6280 H   0  0  0  0  0  0  0  0  0  0  0  0
    0.4819   -2.0289    2.7552 H   0  0  0  0  0  0  0  0  0  0  0  0
   -1.3801   -3.8417    1.1066 H   0  0  0  0  0  0  0  0  0  0  0  0
   -0.8197   -4.1799    2.7487 H   0  0  0  0  0  0  0  0  0  0  0  0
   -1.8864   -2.7967    2.4413 H   0  0  0  0  0  0  0  0  0  0  0  0
    1.9821   -4.0337    2.1744 N   0  0  0  0  0  0  0  0  0  0  0  0
    3.1063   -4.8831    1.8572 C   0  0  0  0  0  0  0  0  0  0  0  0
    1.6995   -3.9652    3.1476 H   0  0  0  0  0  0  0  0  0  0  0  0
    2.7489   -5.9018    1.6463 H   0  0  0  0  0  0  0  0  0  0  0  0
    3.6271   -4.4869    0.9730 H   0  0  0  0  0  0  0  0  0  0  0  0
    3.7997   -4.9073    2.7108 H   0  0  0  0  0  0  0  0  0  0  0  0
 23 25  2  0  0  0  0
 22 23  1  0  0  0  0
 24 26  1  0  0  0  0
 22 24  2  0  0  0  0
 25 27  1  0  0  0  0
 26 27  2  0  0  0  0
 21 22  1  0  0  0  0
 27 28  1  0  0  0  0
  1  3  1  0  0  0  0
  1  7  1  0  0  0  0
  1  2  2  0  0  0  0
 39 40  1  0  0  0  0
 40 48  1  0  0  0  0
 40 41  2  0  0  0  0
  8  9  1  0  0  0  0
  9 17  1  0  0  0  0
  9 10  2  0  0  0  0
 18 19  1  0  0  0  0
 19 38  1  0  0  0  0
 19 20  2  0  0  0  0
 39 42  1  0  0  0  0
  8 11  1  0  0  0  0
 48 49  1  0  0  0  0
 18 21  1  0  0  0  0
 38 39  1  0  0  0  0
  7  8  1  0  0  0  0
 17 18  1  0  0  0  0
 23 33  1  0  0  0  0
 24 34  1  0  0  0  0
 25 35  1  0  0  0  0
 26 36  1  0  0  0  0
  3  4  1  0  0  0  0
  3  5  1  0  0  0  0
  3  6  1  0  0  0  0
 42 45  1  0  0  0  0
 42 46  1  0  0  0  0
 42 47  1  0  0  0  0
 11 14  1  0  0  0  0
 11 15  1  0  0  0  0
 11 16  1  0  0  0  0
 49 51  1  0  0  0  0
 49 52  1  0  0  0  0
 49 53  1  0  0  0  0
 21 31  1  0  0  0  0
 21 32  1  0  0  0  0
 39 44  1  0  0  0  0
  8 13  1  0  0  0  0
 18 30  1  0  0  0  0
 48 50  1  0  0  0  0
  7 12  1  0  0  0  0
 38 43  1  0  0  0  0
 17 29  1  0  0  0  0
 28 37  1  0  0  0  0
M  END
$$$$

  -OEChem-05262214473D

 53 53  0     1  0  0  0  0  0999 V2000
   -1.9298    0.2574    3.9747 C   0  0  0  0  0  0  0  0  0  0  0  0
   -0.9825   -0.3573    3.4990 O   0  0  0  0  0  0  0  0  0  0  0  0
   -2.3617   -0.0250    5.3754 C   0  0  0  0  0  0  0  0  0  0  0  0
   -3.1214   -0.8213    5.4288 H   0  0  0  0  0  0  0  0  0  0  0  0
   -1.5305   -0.3726    6.0097 H   0  0  0  0  0  0  0  0  0  0  0  0
   -2.7997    0.8299    5.9150 H   0  0  0  0  0  0  0  0  0  0  0  0
   -2.6795    1.2298    3.3336 N   0  0  0  0  0  0  0  0  0  0  0  0
   -2.4327    1.6559    1.9812 C   0  0  2  0  0  0  0  0  0  0  0  0
   -1.0977    1.0705    1.5400 C   0  0  0  0  0  0  0  0  0  0  0  0
   -0.2256    0.7177    2.3313 O   0  0  0  0  0  0  0  0  0  0  0  0
   -2.4239    3.1726    1.8718 C   0  0  0  0  0  0  0  0  0  0  0  0
   -3.4446    1.6657    3.8454 H   0  0  0  0  0  0  0  0  0  0  0  0
   -3.2368    1.2374    1.3661 H   0  0  0  0  0  0  0  0  0  0  0  0
   -1.6248    3.6099    2.4815 H   0  0  0  0  0  0  0  0  0  0  0  0
   -2.2644    3.4949    0.8375 H   0  0  0  0  0  0  0  0  0  0  0  0
   -3.3741    3.5939    2.2175 H   0  0  0  0  0  0  0  0  0  0  0  0
   -0.9750    1.0274    0.1566 N   0  0  0  0  0  0  0  0  0  0  0  0
    0.2023    0.5266   -0.5070 C   0  0  2  0  0  0  0  0  0  0  0  0
    0.8143   -0.5348    0.4002 C   0  0  0  0  0  0  0  0  0  0  0  0
    1.9376   -0.4309    0.8884 O   0  0  0  0  0  0  0  0  0  0  0  0
    1.2215    1.6354   -0.7930 C   0  0  0  0  0  0  0  0  0  0  0  0
    0.7268    2.6348   -1.8099 C   0  0  0  0  0  0  0  0  0  0  0  0
    0.8066    2.3424   -3.1714 C   0  0  0  0  0  0  0  0  0  0  0  0
    0.1904    3.8514   -1.3881 C   0  0  0  0  0  0  0  0  0  0  0  0
    0.3499    3.2664   -4.1112 C   0  0  0  0  0  0  0  0  0  0  0  0
   -0.2664    4.7755   -2.3278 C   0  0  0  0  0  0  0  0  0  0  0  0
   -0.1866    4.4830   -3.6894 C   0  0  0  0  0  0  0  0  0  0  0  0
   -0.6310    5.3851   -4.6066 O   0  0  0  0  0  0  0  0  0  0  0  0
   -1.7582    1.3241   -0.4207 H   0  0  0  0  0  0  0  0  0  0  0  0
   -0.1398    0.0522   -1.4343 H   0  0  0  0  0  0  0  0  0  0  0  0
    2.1710    1.2007   -1.1339 H   0  0  0  0  0  0  0  0  0  0  0  0
    1.4679    2.1771    0.1298 H   0  0  0  0  0  0  0  0  0  0  0  0
    1.2230    1.3971   -3.5090 H   0  0  0  0  0  0  0  0  0  0  0  0
    0.1242    4.0877   -0.3292 H   0  0  0  0  0  0  0  0  0  0  0  0
    0.4150    3.0329   -5.1706 H   0  0  0  0  0  0  0  0  0  0  0  0
   -0.6828    5.7213   -1.9930 H   0  0  0  0  0  0  0  0  0  0  0  0
   -0.9736    6.1765   -4.1614 H   0  0  0  0  0  0  0  0  0  0  0  0
   -0.0627   -1.5841    0.6374 N   0  0  0  0  0  0  0  0  0  0  0  0
    0.2587   -2.7114    1.4827 C   0  0  2  0  0  0  0  0  0  0  0  0
    1.6130   -3.2550    1.0469 C   0  0  0  0  0  0  0  0  0  0  0  0
    2.0831   -3.0654   -0.0730 O   0  0  0  0  0  0  0  0  0  0  0  0
   -0.8116   -3.7885    1.3994 C   0  0  0  0  0  0  0  0  0  0  0  0
   -0.9765   -1.5584    0.1945 H   0  0  0  0  0  0  0  0  0  0  0  0
    0.3305   -2.3286    2.5066 H   0  0  0  0  0  0  0  0  0  0  0  0
   -0.8981   -4.1841    0.3808 H   0  0  0  0  0  0  0  0  0  0  0  0
   -0.5809   -4.6292    2.0620 H   0  0  0  0  0  0  0  0  0  0  0  0
   -1.7905   -3.3881    1.6847 H   0  0  0  0  0  0  0  0  0  0  0  0
    2.2157   -4.0129    2.0411 N   0  0  0  0  0  0  0  0  0  0  0  0
    3.5013   -4.6475    1.8664 C   0  0  0  0  0  0  0  0  0  0  0  0
    1.7625   -4.1014    2.9459 H   0  0  0  0  0  0  0  0  0  0  0  0
    3.3570   -5.6751    1.5013 H   0  0  0  0  0  0  0  0  0  0  0  0
    4.0945   -4.0787    1.1352 H   0  0  0  0  0  0  0  0  0  0  0  0
    4.0319   -4.6718    2.8296 H   0  0  0  0  0  0  0  0  0  0  0  0
 23 25  2  0  0  0  0
 22 23  1  0  0  0  0
 24 26  1  0  0  0  0
 22 24  2  0  0  0  0
 25 27  1  0  0  0  0
 26 27  2  0  0  0  0
 21 22  1  0  0  0  0
 27 28  1  0  0  0  0
  1  3  1  0  0  0  0
  1  7  1  0  0  0  0
  1  2  2  0  0  0  0
 39 40  1  0  0  0  0
 40 48  1  0  0  0  0
 40 41  2  0  0  0  0
  8  9  1  0  0  0  0
  9 17  1  0  0  0  0
  9 10  2  0  0  0  0
 18 19  1  0  0  0  0
 19 38  1  0  0  0  0
 19 20  2  0  0  0  0
 39 42  1  0  0  0  0
  8 11  1  0  0  0  0
 48 49  1  0  0  0  0
 18 21  1  0  0  0  0
 38 39  1  0  0  0  0
  7  8  1  0  0  0  0
 17 18  1  0  0  0  0
 23 33  1  0  0  0  0
 24 34  1  0  0  0  0
 25 35  1  0  0  0  0
 26 36  1  0  0  0  0
  3  4  1  0  0  0  0
  3  5  1  0  0  0  0
  3  6  1  0  0  0  0
 42 45  1  0  0  0  0
 42 46  1  0  0  0  0
 42 47  1  0  0  0  0
 11 14  1  0  0  0  0
 11 15  1  0  0  0  0
 11 16  1  0  0  0  0
 49 51  1  0  0  0  0
 49 52  1  0  0  0  0
 49 53  1  0  0  0  0
 21 31  1  0  0  0  0
 21 32  1  0  0  0  0
 39 44  1  0  0  0  0
  8 13  1  0  0  0  0
 18 30  1  0  0  0  0
 48 50  1  0  0  0  0
  7 12  1  0  0  0  0
 38 43  1  0  0  0  0
 17 29  1  0  0  0  0
 28 37  1  0  0  0  0
M  END
$$$$

  -OEChem-05262214473D

 53 53  0     1  0  0  0  0  0999 V2000
   -1.9298    0.2574    3.9747 C   0  0  0  0  0  0  0  0  0  0  0  0
   -0.9825   -0.3573    3.4990 O   0  0  0  0  0  0  0  0  0  0  0  0
   -2.3617   -0.0250    5.3754 C   0  0  0  0  0  0  0  0  0  0  0  0
   -3.1214   -0.8213    5.4288 H   0  0  0  0  0  0  0  0  0  0  0  0
   -1.5305   -0.3726    6.0097 H   0  0  0  0  0  0  0  0  0  0  0  0
   -2.7997    0.8299    5.9150 H   0  0  0  0  0  0  0  0  0  0  0  0
   -2.6795    1.2298    3.3336 N   0  0  0  0  0  0  0  0  0  0  0  0
   -2.4327    1.6559    1.9812 C   0  0  2  0  0  0  0  0  0  0  0  0
   -1.0977    1.0705    1.5400 C   0  0  0  0  0  0  0  0  0  0  0  0
   -0.2256    0.7177    2.3313 O   0  0  0  0  0  0  0  0  0  0  0  0
   -2.4239    3.1726    1.8718 C   0  0  0  0  0  0  0  0  0  0  0  0
   -3.4446    1.6657    3.8454 H   0  0  0  0  0  0  0  0  0  0  0  0
   -3.2368    1.2374    1.3661 H   0  0  0  0  0  0  0  0  0  0  0  0
   -1.6248    3.6099    2.4815 H   0  0  0  0  0  0  0  0  0  0  0  0
   -2.2644    3.4949    0.8375 H   0  0  0  0  0  0  0  0  0  0  0  0
   -3.3741    3.5939    2.2175 H   0  0  0  0  0  0  0  0  0  0  0  0
   -0.9750    1.0274    0.1566 N   0  0  0  0  0  0  0  0  0  0  0  0
    0.2023    0.5266   -0.5070 C   0  0  2  0  0  0  0  0  0  0  0  0
    0.8143   -0.5348    0.4002 C   0  0  0  0  0  0  0  0  0  0  0  0
    1.8045   -0.3280    1.0986 O   0  0  0  0  0  0  0  0  0  0  0  0
    1.2215    1.6354   -0.7930 C   0  0  0  0  0  0  0  0  0  0  0  0
    0.7268    2.6348   -1.8099 C   0  0  0  0  0  0  0  0  0  0  0  0
    0.8066    2.3424   -3.1714 C   0  0  0  0  0  0  0  0  0  0  0  0
    0.1904    3.8514   -1.3881 C   0  0  0  0  0  0  0  0  0  0  0  0
    0.3499    3.2664   -4.1112 C   0  0  0  0  0  0  0  0  0  0  0  0
   -0.2664    4.7755   -2.3278 C   0  0  0  0  0  0  0  0  0  0  0  0
   -0.1866    4.4830   -3.6894 C   0  0  0  0  0  0  0  0  0  0  0  0
   -0.6310    5.3851   -4.6066 O   0  0  0  0  0  0  0  0  0  0  0  0
   -1.7582    1.3241   -0.4207 H   0  0  0  0  0  0  0  0  0  0  0  0
   -0.1398    0.0522   -1.4343 H   0  0  0  0  0  0  0  0  0  0  0  0
    2.1710    1.2007   -1.1339 H   0  0  0  0  0  0  0  0  0  0  0  0
    1.4679    2.1771    0.1298 H   0  0  0  0  0  0  0  0  0  0  0  0
    1.2230    1.3971   -3.5090 H   0  0  0  0  0  0  0  0  0  0  0  0
    0.1242    4.0877   -0.3292 H   0  0  0  0  0  0  0  0  0  0  0  0
    0.4150    3.0329   -5.1706 H   0  0  0  0  0  0  0  0  0  0  0  0
   -0.6828    5.7213   -1.9930 H   0  0  0  0  0  0  0  0  0  0  0  0
   -0.9736    6.1765   -4.1614 H   0  0  0  0  0  0  0  0  0  0  0  0
    0.0931   -1.7204    0.3728 N   0  0  0  0  0  0  0  0  0  0  0  0
    0.4443   -2.8812    1.1588 C   0  0  2  0  0  0  0  0  0  0  0  0
    1.9238   -3.1681    0.9388 C   0  0  0  0  0  0  0  0  0  0  0  0
    2.5421   -2.7818   -0.0509 O   0  0  0  0  0  0  0  0  0  0  0  0
   -0.4050   -4.0842    0.7791 C   0  0  0  0  0  0  0  0  0  0  0  0
   -0.7225   -1.7749   -0.2301 H   0  0  0  0  0  0  0  0  0  0  0  0
    0.2753   -2.6156    2.2081 H   0  0  0  0  0  0  0  0  0  0  0  0
   -0.2490   -4.3652   -0.2689 H   0  0  0  0  0  0  0  0  0  0  0  0
   -0.1574   -4.9550    1.3950 H   0  0  0  0  0  0  0  0  0  0  0  0
   -1.4704   -3.8660    0.9096 H   0  0  0  0  0  0  0  0  0  0  0  0
    2.4621   -3.9430    1.9566 N   0  0  0  0  0  0  0  0  0  0  0  0
    3.8448   -4.3601    1.9709 C   0  0  0  0  0  0  0  0  0  0  0  0
    1.8807   -4.2022    2.7482 H   0  0  0  0  0  0  0  0  0  0  0  0
    3.9355   -5.3474    1.4944 H   0  0  0  0  0  0  0  0  0  0  0  0
    4.4538   -3.6292    1.4186 H   0  0  0  0  0  0  0  0  0  0  0  0
    4.1986   -4.4210    3.0107 H   0  0  0  0  0  0  0  0  0  0  0  0
 23 25  2  0  0  0  0
 22 23  1  0  0  0  0
 24 26  1  0  0  0  0
 22 24  2  0  0  0  0
 25 27  1  0  0  0  0
 26 27  2  0  0  0  0
 21 22  1  0  0  0  0
 27 28  1  0  0  0  0
  1  3  1  0  0  0  0
  1  7  1  0  0  0  0
  1  2  2  0  0  0  0
 39 40  1  0  0  0  0
 40 48  1  0  0  0  0
 40 41  2  0  0  0  0
  8  9  1  0  0  0  0
  9 17  1  0  0  0  0
  9 10  2  0  0  0  0
 18 19  1  0  0  0  0
 19 38  1  0  0  0  0
 19 20  2  0  0  0  0
 39 42  1  0  0  0  0
  8 11  1  0  0  0  0
 48 49  1  0  0  0  0
 18 21  1  0  0  0  0
 38 39  1  0  0  0  0
  7  8  1  0  0  0  0
 17 18  1  0  0  0  0
 23 33  1  0  0  0  0
 24 34  1  0  0  0  0
 25 35  1  0  0  0  0
 26 36  1  0  0  0  0
  3  4  1  0  0  0  0
  3  5  1  0  0  0  0
  3  6  1  0  0  0  0
 42 45  1  0  0  0  0
 42 46  1  0  0  0  0
 42 47  1  0  0  0  0
 11 14  1  0  0  0  0
 11 15  1  0  0  0  0
 11 16  1  0  0  0  0
 49 51  1  0  0  0  0
 49 52  1  0  0  0  0
 49 53  1  0  0  0  0
 21 31  1  0  0  0  0
 21 32  1  0  0  0  0
 39 44  1  0  0  0  0
  8 13  1  0  0  0  0
 18 30  1  0  0  0  0
 48 50  1  0  0  0  0
  7 12  1  0  0  0  0
 38 43  1  0  0  0  0
 17 29  1  0  0  0  0
 28 37  1  0  0  0  0
M  END
$$$$

  -OEChem-05262214473D

 53 53  0     1  0  0  0  0  0999 V2000
   -1.9298    0.2574    3.9747 C   0  0  0  0  0  0  0  0  0  0  0  0
   -0.9825   -0.3573    3.4990 O   0  0  0  0  0  0  0  0  0  0  0  0
   -2.3617   -0.0250    5.3754 C   0  0  0  0  0  0  0  0  0  0  0  0
   -3.1214   -0.8213    5.4288 H   0  0  0  0  0  0  0  0  0  0  0  0
   -1.5305   -0.3726    6.0097 H   0  0  0  0  0  0  0  0  0  0  0  0
   -2.7997    0.8299    5.9150 H   0  0  0  0  0  0  0  0  0  0  0  0
   -2.6795    1.2298    3.3336 N   0  0  0  0  0  0  0  0  0  0  0  0
   -2.4327    1.6559    1.9812 C   0  0  2  0  0  0  0  0  0  0  0  0
   -1.0977    1.0705    1.5400 C   0  0  0  0  0  0  0  0  0  0  0  0
   -0.2256    0.7177    2.3313 O   0  0  0  0  0  0  0  0  0  0  0  0
   -2.4239    3.1726    1.8718 C   0  0  0  0  0  0  0  0  0  0  0  0
   -3.4446    1.6657    3.8454 H   0  0  0  0  0  0  0  0  0  0  0  0
   -3.2368    1.2374    1.3661 H   0  0  0  0  0  0  0  0  0  0  0  0
   -1.6248    3.6099    2.4815 H   0  0  0  0  0  0  0  0  0  0  0  0
   -2.2644    3.4949    0.8375 H   0  0  0  0  0  0  0  0  0  0  0  0
   -3.3741    3.5939    2.2175 H   0  0  0  0  0  0  0  0  0  0  0  0
   -0.9750    1.0274    0.1566 N   0  0  0  0  0  0  0  0  0  0  0  0
    0.2023    0.5266   -0.5070 C   0  0  2  0  0  0  0  0  0  0  0  0
    0.8143   -0.5348    0.4002 C   0  0  0  0  0  0  0  0  0  0  0  0
    1.6222   -0.2710    1.2882 O   0  0  0  0  0  0  0  0  0  0  0  0
    1.2215    1.6354   -0.7930 C   0  0  0  0  0  0  0  0  0  0  0  0
    0.7268    2.6348   -1.8099 C   0  0  0  0  0  0  0  0  0  0  0  0
    0.8066    2.3424   -3.1714 C   0  0  0  0  0  0  0  0  0  0  0  0
    0.1904    3.8514   -1.3881 C   0  0  0  0  0  0  0  0  0  0  0  0
    0.3499    3.2664   -4.1112 C   0  0  0  0  0  0  0  0  0  0  0  0
   -0.2664    4.7755   -2.3278 C   0  0  0  0  0  0  0  0  0  0  0  0
   -0.1866    4.4830   -3.6894 C   0  0  0  0  0  0  0  0  0  0  0  0
   -0.6310    5.3851   -4.6066 O   0  0  0  0  0  0  0  0  0  0  0  0
   -1.7582    1.3241   -0.4207 H   0  0  0  0  0  0  0  0  0  0  0  0
   -0.1398    0.0522   -1.4343 H   0  0  0  0  0  0  0  0  0  0  0  0
    2.1710    1.2007   -1.1339 H   0  0  0  0  0  0  0  0  0  0  0  0
    1.4679    2.1771    0.1298 H   0  0  0  0  0  0  0  0  0  0  0  0
    1.2230    1.3971   -3.5090 H   0  0  0  0  0  0  0  0  0  0  0  0
    0.1242    4.0877   -0.3292 H   0  0  0  0  0  0  0  0  0  0  0  0
    0.4150    3.0329   -5.1706 H   0  0  0  0  0  0  0  0  0  0  0  0
   -0.6828    5.7213   -1.9930 H   0  0  0  0  0  0  0  0  0  0  0  0
   -0.9736    6.1765   -4.1614 H   0  0  0  0  0  0  0  0  0  0  0  0
    0.3124   -1.8005    0.1311 N   0  0  0  0  0  0  0  0  0  0  0  0
    0.7081   -2.9830    0.8618 C   0  0  2  0  0  0  0  0  0  0  0  0
    2.2301   -3.0251    0.8995 C   0  0  0  0  0  0  0  0  0  0  0  0
    2.9378   -2.4394    0.0827 O   0  0  0  0  0  0  0  0  0  0  0  0
    0.1452   -4.2428    0.2224 C   0  0  0  0  0  0  0  0  0  0  0  0
   -0.3674   -1.9008   -0.6170 H   0  0  0  0  0  0  0  0  0  0  0  0
    0.3200   -2.8703    1.8799 H   0  0  0  0  0  0  0  0  0  0  0  0
    0.5229   -4.3726   -0.7983 H   0  0  0  0  0  0  0  0  0  0  0  0
    0.4221   -5.1352    0.7933 H   0  0  0  0  0  0  0  0  0  0  0  0
   -0.9479   -4.1977    0.1691 H   0  0  0  0  0  0  0  0  0  0  0  0
    2.7046   -3.8288    1.9267 N   0  0  0  0  0  0  0  0  0  0  0  0
    4.1135   -4.0404    2.1636 C   0  0  0  0  0  0  0  0  0  0  0  0
    2.0460   -4.2608    2.5681 H   0  0  0  0  0  0  0  0  0  0  0  0
    4.4451   -4.9410    1.6260 H   0  0  0  0  0  0  0  0  0  0  0  0
    4.6806   -3.1692    1.8038 H   0  0  0  0  0  0  0  0  0  0  0  0
    4.2883   -4.1719    3.2417 H   0  0  0  0  0  0  0  0  0  0  0  0
 23 25  2  0  0  0  0
 22 23  1  0  0  0  0
 24 26  1  0  0  0  0
 22 24  2  0  0  0  0
 25 27  1  0  0  0  0
 26 27  2  0  0  0  0
 21 22  1  0  0  0  0
 27 28  1  0  0  0  0
  1  3  1  0  0  0  0
  1  7  1  0  0  0  0
  1  2  2  0  0  0  0
 39 40  1  0  0  0  0
 40 48  1  0  0  0  0
 40 41  2  0  0  0  0
  8  9  1  0  0  0  0
  9 17  1  0  0  0  0
  9 10  2  0  0  0  0
 18 19  1  0  0  0  0
 19 38  1  0  0  0  0
 19 20  2  0  0  0  0
 39 42  1  0  0  0  0
  8 11  1  0  0  0  0
 48 49  1  0  0  0  0
 18 21  1  0  0  0  0
 38 39  1  0  0  0  0
  7  8  1  0  0  0  0
 17 18  1  0  0  0  0
 23 33  1  0  0  0  0
 24 34  1  0  0  0  0
 25 35  1  0  0  0  0
 26 36  1  0  0  0  0
  3  4  1  0  0  0  0
  3  5  1  0  0  0  0
  3  6  1  0  0  0  0
 42 45  1  0  0  0  0
 42 46  1  0  0  0  0
 42 47  1  0  0  0  0
 11 14  1  0  0  0  0
 11 15  1  0  0  0  0
 11 16  1  0  0  0  0
 49 51  1  0  0  0  0
 49 52  1  0  0  0  0
 49 53  1  0  0  0  0
 21 31  1  0  0  0  0
 21 32  1  0  0  0  0
 39 44  1  0  0  0  0
  8 13  1  0  0  0  0
 18 30  1  0  0  0  0
 48 50  1  0  0  0  0
  7 12  1  0  0  0  0
 38 43  1  0  0  0  0
 17 29  1  0  0  0  0
 28 37  1  0  0  0  0
M  END
$$$$

  -OEChem-05262214473D

 53 53  0     1  0  0  0  0  0999 V2000
   -1.9298    0.2574    3.9747 C   0  0  0  0  0  0  0  0  0  0  0  0
   -0.9825   -0.3573    3.4990 O   0  0  0  0  0  0  0  0  0  0  0  0
   -2.3617   -0.0250    5.3754 C   0  0  0  0  0  0  0  0  0  0  0  0
   -3.1214   -0.8213    5.4288 H   0  0  0  0  0  0  0  0  0  0  0  0
   -1.5305   -0.3726    6.0097 H   0  0  0  0  0  0  0  0  0  0  0  0
   -2.7997    0.8299    5.9150 H   0  0  0  0  0  0  0  0  0  0  0  0
   -2.6795    1.2298    3.3336 N   0  0  0  0  0  0  0  0  0  0  0  0
   -2.4327    1.6559    1.9812 C   0  0  2  0  0  0  0  0  0  0  0  0
   -1.0977    1.0705    1.5400 C   0  0  0  0  0  0  0  0  0  0  0  0
   -0.2256    0.7177    2.3313 O   0  0  0  0  0  0  0  0  0  0  0  0
   -2.4239    3.1726    1.8718 C   0  0  0  0  0  0  0  0  0  0  0  0
   -3.4446    1.6657    3.8454 H   0  0  0  0  0  0  0  0  0  0  0  0
   -3.2368    1.2374    1.3661 H   0  0  0  0  0  0  0  0  0  0  0  0
   -1.6248    3.6099    2.4815 H   0  0  0  0  0  0  0  0  0  0  0  0
   -2.2644    3.4949    0.8375 H   0  0  0  0  0  0  0  0  0  0  0  0
   -3.3741    3.5939    2.2175 H   0  0  0  0  0  0  0  0  0  0  0  0
   -0.9750    1.0274    0.1566 N   0  0  0  0  0  0  0  0  0  0  0  0
    0.2023    0.5266   -0.5070 C   0  0  2  0  0  0  0  0  0  0  0  0
    0.8143   -0.5348    0.4002 C   0  0  0  0  0  0  0  0  0  0  0  0
    1.4032   -0.2637    1.4445 O   0  0  0  0  0  0  0  0  0  0  0  0
    1.2215    1.6354   -0.7930 C   0  0  0  0  0  0  0  0  0  0  0  0
    0.7268    2.6348   -1.8099 C   0  0  0  0  0  0  0  0  0  0  0  0
    0.8066    2.3424   -3.1714 C   0  0  0  0  0  0  0  0  0  0  0  0
    0.1904    3.8514   -1.3881 C   0  0  0  0  0  0  0  0  0  0  0  0
    0.3499    3.2664   -4.1112 C   0  0  0  0  0  0  0  0  0  0  0  0
   -0.2664    4.7755   -2.3278 C   0  0  0  0  0  0  0  0  0  0  0  0
   -0.1866    4.4830   -3.6894 C   0  0  0  0  0  0  0  0  0  0  0  0
   -0.6310    5.3851   -4.6066 O   0  0  0  0  0  0  0  0  0  0  0  0
   -1.7582    1.3241   -0.4207 H   0  0  0  0  0  0  0  0  0  0  0  0
   -0.1398    0.0522   -1.4343 H   0  0  0  0  0  0  0  0  0  0  0  0
    2.1710    1.2007   -1.1339 H   0  0  0  0  0  0  0  0  0  0  0  0
    1.4679    2.1771    0.1298 H   0  0  0  0  0  0  0  0  0  0  0  0
    1.2230    1.3971   -3.5090 H   0  0  0  0  0  0  0  0  0  0  0  0
    0.1242    4.0877   -0.3292 H   0  0  0  0  0  0  0  0  0  0  0  0
    0.4150    3.0329   -5.1706 H   0  0  0  0  0  0  0  0  0  0  0  0
   -0.6828    5.7213   -1.9930 H   0  0  0  0  0  0  0  0  0  0  0  0
   -0.9736    6.1765   -4.1614 H   0  0  0  0  0  0  0  0  0  0  0  0
    0.5800   -1.8191   -0.0712 N   0  0  0  0  0  0  0  0  0  0  0  0
    1.0321   -3.0098    0.6118 C   0  0  2  0  0  0  0  0  0  0  0  0
    2.5110   -2.8358    0.9315 C   0  0  0  0  0  0  0  0  0  0  0  0
    3.2432   -2.0617    0.3186 O   0  0  0  0  0  0  0  0  0  0  0  0
    0.8013   -4.2534   -0.2326 C   0  0  0  0  0  0  0  0  0  0  0  0
    0.0648   -1.9275   -0.9398 H   0  0  0  0  0  0  0  0  0  0  0  0
    0.4615   -3.0754    1.5446 H   0  0  0  0  0  0  0  0  0  0  0  0
    1.3651   -4.2059   -1.1714 H   0  0  0  0  0  0  0  0  0  0  0  0
    1.1181   -5.1575    0.2977 H   0  0  0  0  0  0  0  0  0  0  0  0
   -0.2588   -4.3607   -0.4866 H   0  0  0  0  0  0  0  0  0  0  0  0
    2.9266   -3.6780    1.9533 N   0  0  0  0  0  0  0  0  0  0  0  0
    4.2892   -3.7102    2.4314 C   0  0  0  0  0  0  0  0  0  0  0  0
    2.2472   -4.2733    2.4178 H   0  0  0  0  0  0  0  0  0  0  0  0
    4.8510   -4.4837    1.8872 H   0  0  0  0  0  0  0  0  0  0  0  0
    4.7595   -2.7299    2.2645 H   0  0  0  0  0  0  0  0  0  0  0  0
    4.2949   -3.9414    3.5068 H   0  0  0  0  0  0  0  0  0  0  0  0
 23 25  2  0  0  0  0
 22 23  1  0  0  0  0
 24 26  1  0  0  0  0
 22 24  2  0  0  0  0
 25 27  1  0  0  0  0
 26 27  2  0  0  0  0
 21 22  1  0  0  0  0
 27 28  1  0  0  0  0
  1  3  1  0  0  0  0
  1  7  1  0  0  0  0
  1  2  2  0  0  0  0
 39 40  1  0  0  0  0
 40 48  1  0  0  0  0
 40 41  2  0  0  0  0
  8  9  1  0  0  0  0
  9 17  1  0  0  0  0
  9 10  2  0  0  0  0
 18 19  1  0  0  0  0
 19 38  1  0  0  0  0
 19 20  2  0  0  0  0
 39 42  1  0  0  0  0
  8 11  1  0  0  0  0
 48 49  1  0  0  0  0
 18 21  1  0  0  0  0
 38 39  1  0  0  0  0
  7  8  1  0  0  0  0
 17 18  1  0  0  0  0
 23 33  1  0  0  0  0
 24 34  1  0  0  0  0
 25 35  1  0  0  0  0
 26 36  1  0  0  0  0
  3  4  1  0  0  0  0
  3  5  1  0  0  0  0
  3  6  1  0  0  0  0
 42 45  1  0  0  0  0
 42 46  1  0  0  0  0
 42 47  1  0  0  0  0
 11 14  1  0  0  0  0
 11 15  1  0  0  0  0
 11 16  1  0  0  0  0
 49 51  1  0  0  0  0
 49 52  1  0  0  0  0
 49 53  1  0  0  0  0
 21 31  1  0  0  0  0
 21 32  1  0  0  0  0
 39 44  1  0  0  0  0
  8 13  1  0  0  0  0
 18 30  1  0  0  0  0
 48 50  1  0  0  0  0
  7 12  1  0  0  0  0
 38 43  1  0  0  0  0
 17 29  1  0  0  0  0
 28 37  1  0  0  0  0
M  END
$$$$

  -OEChem-05262214473D

 53 53  0     1  0  0  0  0  0999 V2000
   -1.9298    0.2574    3.9747 C   0  0  0  0  0  0  0  0  0  0  0  0
   -0.9825   -0.3573    3.4990 O   0  0  0  0  0  0  0  0  0  0  0  0
   -2.3617   -0.0250    5.3754 C   0  0  0  0  0  0  0  0  0  0  0  0
   -3.1214   -0.8213    5.4288 H   0  0  0  0  0  0  0  0  0  0  0  0
   -1.5305   -0.3726    6.0097 H   0  0  0  0  0  0  0  0  0  0  0  0
   -2.7997    0.8299    5.9150 H   0  0  0  0  0  0  0  0  0  0  0  0
   -2.6795    1.2298    3.3336 N   0  0  0  0  0  0  0  0  0  0  0  0
   -2.4327    1.6559    1.9812 C   0  0  2  0  0  0  0  0  0  0  0  0
   -1.0977    1.0705    1.5400 C   0  0  0  0  0  0  0  0  0  0  0  0
   -0.2256    0.7177    2.3313 O   0  0  0  0  0  0  0  0  0  0  0  0
   -2.4239    3.1726    1.8718 C   0  0  0  0  0  0  0  0  0  0  0  0
   -3.4446    1.6657    3.8454 H   0  0  0  0  0  0  0  0  0  0  0  0
   -3.2368    1.2374    1.3661 H   0  0  0  0  0  0  0  0  0  0  0  0
   -1.6248    3.6099    2.4815 H   0  0  0  0  0  0  0  0  0  0  0  0
   -2.2644    3.4949    0.8375 H   0  0  0  0  0  0  0  0  0  0  0  0
   -3.3741    3.5939    2.2175 H   0  0  0  0  0  0  0  0  0  0  0  0
   -0.9750    1.0274    0.1566 N   0  0  0  0  0  0  0  0  0  0  0  0
    0.2023    0.5266   -0.5070 C   0  0  2  0  0  0  0  0  0  0  0  0
    0.8143   -0.5348    0.4002 C   0  0  0  0  0  0  0  0  0  0  0  0
    1.1623   -0.3066    1.5568 O   0  0  0  0  0  0  0  0  0  0  0  0
    1.2215    1.6354   -0.7930 C   0  0  0  0  0  0  0  0  0  0  0  0
    0.7268    2.6348   -1.8099 C   0  0  0  0  0  0  0  0  0  0  0  0
    0.8066    2.3424   -3.1714 C   0  0  0  0  0  0  0  0  0  0  0  0
    0.1904    3.8514   -1.3881 C   0  0  0  0  0  0  0  0  0  0  0  0
    0.3499    3.2664   -4.1112 C   0  0  0  0  0  0  0  0  0  0  0  0
   -0.2664    4.7755   -2.3278 C   0  0  0  0  0  0  0  0  0  0  0  0
   -0.1866    4.4830   -3.6894 C   0  0  0  0  0  0  0  0  0  0  0  0
   -0.6310    5.3851   -4.6066 O   0  0  0  0  0  0  0  0  0  0  0  0
   -1.7582    1.3241   -0.4207 H   0  0  0  0  0  0  0  0  0  0  0  0
   -0.1398    0.0522   -1.4343 H   0  0  0  0  0  0  0  0  0  0  0  0
    2.1710    1.2007   -1.1339 H   0  0  0  0  0  0  0  0  0  0  0  0
    1.4679    2.1771    0.1298 H   0  0  0  0  0  0  0  0  0  0  0  0
    1.2230    1.3971   -3.5090 H   0  0  0  0  0  0  0  0  0  0  0  0
    0.1242    4.0877   -0.3292 H   0  0  0  0  0  0  0  0  0  0  0  0
    0.4150    3.0329   -5.1706 H   0  0  0  0  0  0  0  0  0  0  0  0
   -0.6828    5.7213   -1.9930 H   0  0  0  0  0  0  0  0  0  0  0  0
   -0.9736    6.1765   -4.1614 H   0  0  0  0  0  0  0  0  0  0  0  0
    0.8778   -1.7748   -0.2202 N   0  0  0  0  0  0  0  0  0  0  0  0
    1.3943   -2.9599    0.4259 C   0  0  2  0  0  0  0  0  0  0  0  0
    2.7474   -2.6129    1.0328 C   0  0  0  0  0  0  0  0  0  0  0  0
    3.4375   -1.6743    0.6407 O   0  0  0  0  0  0  0  0  0  0  0  0
    1.5187   -4.1153   -0.5550 C   0  0  0  0  0  0  0  0  0  0  0  0
    0.5446   -1.8532   -1.1765 H   0  0  0  0  0  0  0  0  0  0  0  0
    0.6901   -3.2168    1.2248 H   0  0  0  0  0  0  0  0  0  0  0  0
    2.2201   -3.8763   -1.3627 H   0  0  0  0  0  0  0  0  0  0  0  0
    1.8830   -5.0204   -0.0579 H   0  0  0  0  0  0  0  0  0  0  0  0
    0.5502   -4.3440   -1.0127 H   0  0  0  0  0  0  0  0  0  0  0  0
    3.1131   -3.5008    2.0348 N   0  0  0  0  0  0  0  0  0  0  0  0
    4.3597   -3.3921    2.7560 C   0  0  0  0  0  0  0  0  0  0  0  0
    2.4705   -4.2387    2.3076 H   0  0  0  0  0  0  0  0  0  0  0  0
    5.1256   -4.0066    2.2602 H   0  0  0  0  0  0  0  0  0  0  0  0
    4.6849   -2.3414    2.7694 H   0  0  0  0  0  0  0  0  0  0  0  0
    4.2180   -3.7453    3.7881 H   0  0  0  0  0  0  0  0  0  0  0  0
 23 25  2  0  0  0  0
 22 23  1  0  0  0  0
 24 26  1  0  0  0  0
 22 24  2  0  0  0  0
 25 27  1  0  0  0  0
 26 27  2  0  0  0  0
 21 22  1  0  0  0  0
 27 28  1  0  0  0  0
  1  3  1  0  0  0  0
  1  7  1  0  0  0  0
  1  2  2  0  0  0  0
 39 40  1  0  0  0  0
 40 48  1  0  0  0  0
 40 41  2  0  0  0  0
  8  9  1  0  0  0  0
  9 17  1  0  0  0  0
  9 10  2  0  0  0  0
 18 19  1  0  0  0  0
 19 38  1  0  0  0  0
 19 20  2  0  0  0  0
 39 42  1  0  0  0  0
  8 11  1  0  0  0  0
 48 49  1  0  0  0  0
 18 21  1  0  0  0  0
 38 39  1  0  0  0  0
  7  8  1  0  0  0  0
 17 18  1  0  0  0  0
 23 33  1  0  0  0  0
 24 34  1  0  0  0  0
 25 35  1  0  0  0  0
 26 36  1  0  0  0  0
  3  4  1  0  0  0  0
  3  5  1  0  0  0  0
  3  6  1  0  0  0  0
 42 45  1  0  0  0  0
 42 46  1  0  0  0  0
 42 47  1  0  0  0  0
 11 14  1  0  0  0  0
 11 15  1  0  0  0  0
 11 16  1  0  0  0  0
 49 51  1  0  0  0  0
 49 52  1  0  0  0  0
 49 53  1  0  0  0  0
 21 31  1  0  0  0  0
 21 32  1  0  0  0  0
 39 44  1  0  0  0  0
  8 13  1  0  0  0  0
 18 30  1  0  0  0  0
 48 50  1  0  0  0  0
  7 12  1  0  0  0  0
 38 43  1  0  0  0  0
 17 29  1  0  0  0  0
 28 37  1  0  0  0  0
M  END
$$$$

  -OEChem-05262214473D

 53 53  0     1  0  0  0  0  0999 V2000
   -1.9298    0.2574    3.9747 C   0  0  0  0  0  0  0  0  0  0  0  0
   -0.9825   -0.3573    3.4990 O   0  0  0  0  0  0  0  0  0  0  0  0
   -2.3617   -0.0250    5.3754 C   0  0  0  0  0  0  0  0  0  0  0  0
   -3.1214   -0.8213    5.4288 H   0  0  0  0  0  0  0  0  0  0  0  0
   -1.5305   -0.3726    6.0097 H   0  0  0  0  0  0  0  0  0  0  0  0
   -2.7997    0.8299    5.9150 H   0  0  0  0  0  0  0  0  0  0  0  0
   -2.6795    1.2298    3.3336 N   0  0  0  0  0  0  0  0  0  0  0  0
   -2.4327    1.6559    1.9812 C   0  0  2  0  0  0  0  0  0  0  0  0
   -1.0977    1.0705    1.5400 C   0  0  0  0  0  0  0  0  0  0  0  0
   -0.2256    0.7177    2.3313 O   0  0  0  0  0  0  0  0  0  0  0  0
   -2.4239    3.1726    1.8718 C   0  0  0  0  0  0  0  0  0  0  0  0
   -3.4446    1.6657    3.8454 H   0  0  0  0  0  0  0  0  0  0  0  0
   -3.2368    1.2374    1.3661 H   0  0  0  0  0  0  0  0  0  0  0  0
   -1.6248    3.6099    2.4815 H   0  0  0  0  0  0  0  0  0  0  0  0
   -2.2644    3.4949    0.8375 H   0  0  0  0  0  0  0  0  0  0  0  0
   -3.3741    3.5939    2.2175 H   0  0  0  0  0  0  0  0  0  0  0  0
   -0.9750    1.0274    0.1566 N   0  0  0  0  0  0  0  0  0  0  0  0
    0.2023    0.5266   -0.5070 C   0  0  2  0  0  0  0  0  0  0  0  0
    0.8143   -0.5348    0.4002 C   0  0  0  0  0  0  0  0  0  0  0  0
    0.9160   -0.3968    1.6174 O   0  0  0  0  0  0  0  0  0  0  0  0
    1.2215    1.6354   -0.7930 C   0  0  0  0  0  0  0  0  0  0  0  0
    0.7268    2.6348   -1.8099 C   0  0  0  0  0  0  0  0  0  0  0  0
    0.8066    2.3424   -3.1714 C   0  0  0  0  0  0  0  0  0  0  0  0
    0.1904    3.8514   -1.3881 C   0  0  0  0  0  0  0  0  0  0  0  0
    0.3499    3.2664   -4.1112 C   0  0  0  0  0  0  0  0  0  0  0  0
   -0.2664    4.7755   -2.3278 C   0  0  0  0  0  0  0  0  0  0  0  0
   -0.1866    4.4830   -3.6894 C   0  0  0  0  0  0  0  0  0  0  0  0
   -0.6310    5.3851   -4.6066 O   0  0  0  0  0  0  0  0  0  0  0  0
   -1.7582    1.3241   -0.4207 H   0  0  0  0  0  0  0  0  0  0  0  0
   -0.1398    0.0522   -1.4343 H   0  0  0  0  0  0  0  0  0  0  0  0
    2.1710    1.2007   -1.1339 H   0  0  0  0  0  0  0  0  0  0  0  0
    1.4679    2.1771    0.1298 H   0  0  0  0  0  0  0  0  0  0  0  0
    1.2230    1.3971   -3.5090 H   0  0  0  0  0  0  0  0  0  0  0  0
    0.1242    4.0877   -0.3292 H   0  0  0  0  0  0  0  0  0  0  0  0
    0.4150    3.0329   -5.1706 H   0  0  0  0  0  0  0  0  0  0  0  0
   -0.6828    5.7213   -1.9930 H   0  0  0  0  0  0  0  0  0  0  0  0
   -0.9736    6.1765   -4.1614 H   0  0  0  0  0  0  0  0  0  0  0  0
    1.1855   -1.6706   -0.3059 N   0  0  0  0  0  0  0  0  0  0  0  0
    1.7699   -2.8365    0.3169 C   0  0  2  0  0  0  0  0  0  0  0  0
    2.9231   -2.3718    1.1963 C   0  0  0  0  0  0  0  0  0  0  0  0
    3.5075   -1.3036    1.0272 O   0  0  0  0  0  0  0  0  0  0  0  0
    2.2485   -3.8379   -0.7228 C   0  0  0  0  0  0  0  0  0  0  0  0
    1.0392   -1.6829   -1.3110 H   0  0  0  0  0  0  0  0  0  0  0  0
    0.9904   -3.2850    0.9425 H   0  0  0  0  0  0  0  0  0  0  0  0
    3.0297   -3.4064   -1.3592 H   0  0  0  0  0  0  0  0  0  0  0  0
    2.6649   -4.7331   -0.2493 H   0  0  0  0  0  0  0  0  0  0  0  0
    1.4238   -4.1485   -1.3734 H   0  0  0  0  0  0  0  0  0  0  0  0
    3.2512   -3.3095    2.1654 N   0  0  0  0  0  0  0  0  0  0  0  0
    4.3203   -3.1077    3.1153 C   0  0  0  0  0  0  0  0  0  0  0  0
    2.7007   -4.1595    2.2449 H   0  0  0  0  0  0  0  0  0  0  0  0
    5.2501   -3.5422    2.7195 H   0  0  0  0  0  0  0  0  0  0  0  0
    4.4621   -2.0300    3.2840 H   0  0  0  0  0  0  0  0  0  0  0  0
    4.0629   -3.5970    4.0663 H   0  0  0  0  0  0  0  0  0  0  0  0
 23 25  2  0  0  0  0
 22 23  1  0  0  0  0
 24 26  1  0  0  0  0
 22 24  2  0  0  0  0
 25 27  1  0  0  0  0
 26 27  2  0  0  0  0
 21 22  1  0  0  0  0
 27 28  1  0  0  0  0
  1  3  1  0  0  0  0
  1  7  1  0  0  0  0
  1  2  2  0  0  0  0
 39 40  1  0  0  0  0
 40 48  1  0  0  0  0
 40 41  2  0  0  0  0
  8  9  1  0  0  0  0
  9 17  1  0  0  0  0
  9 10  2  0  0  0  0
 18 19  1  0  0  0  0
 19 38  1  0  0  0  0
 19 20  2  0  0  0  0
 39 42  1  0  0  0  0
  8 11  1  0  0  0  0
 48 49  1  0  0  0  0
 18 21  1  0  0  0  0
 38 39  1  0  0  0  0
  7  8  1  0  0  0  0
 17 18  1  0  0  0  0
 23 33  1  0  0  0  0
 24 34  1  0  0  0  0
 25 35  1  0  0  0  0
 26 36  1  0  0  0  0
  3  4  1  0  0  0  0
  3  5  1  0  0  0  0
  3  6  1  0  0  0  0
 42 45  1  0  0  0  0
 42 46  1  0  0  0  0
 42 47  1  0  0  0  0
 11 14  1  0  0  0  0
 11 15  1  0  0  0  0
 11 16  1  0  0  0  0
 49 51  1  0  0  0  0
 49 52  1  0  0  0  0
 49 53  1  0  0  0  0
 21 31  1  0  0  0  0
 21 32  1  0  0  0  0
 39 44  1  0  0  0  0
  8 13  1  0  0  0  0
 18 30  1  0  0  0  0
 48 50  1  0  0  0  0
  7 12  1  0  0  0  0
 38 43  1  0  0  0  0
 17 29  1  0  0  0  0
 28 37  1  0  0  0  0
M  END
$$$$

  -OEChem-05262214473D

 53 53  0     1  0  0  0  0  0999 V2000
   -1.9298    0.2574    3.9747 C   0  0  0  0  0  0  0  0  0  0  0  0
   -0.9825   -0.3573    3.4990 O   0  0  0  0  0  0  0  0  0  0  0  0
   -2.3617   -0.0250    5.3754 C   0  0  0  0  0  0  0  0  0  0  0  0
   -3.1214   -0.8213    5.4288 H   0  0  0  0  0  0  0  0  0  0  0  0
   -1.5305   -0.3726    6.0097 H   0  0  0  0  0  0  0  0  0  0  0  0
   -2.7997    0.8299    5.9150 H   0  0  0  0  0  0  0  0  0  0  0  0
   -2.6795    1.2298    3.3336 N   0  0  0  0  0  0  0  0  0  0  0  0
   -2.4327    1.6559    1.9812 C   0  0  2  0  0  0  0  0  0  0  0  0
   -1.0977    1.0705    1.5400 C   0  0  0  0  0  0  0  0  0  0  0  0
   -0.2256    0.7177    2.3313 O   0  0  0  0  0  0  0  0  0  0  0  0
   -2.4239    3.1726    1.8718 C   0  0  0  0  0  0  0  0  0  0  0  0
   -3.4446    1.6657    3.8454 H   0  0  0  0  0  0  0  0  0  0  0  0
   -3.2368    1.2374    1.3661 H   0  0  0  0  0  0  0  0  0  0  0  0
   -1.6248    3.6099    2.4815 H   0  0  0  0  0  0  0  0  0  0  0  0
   -2.2644    3.4949    0.8375 H   0  0  0  0  0  0  0  0  0  0  0  0
   -3.3741    3.5939    2.2175 H   0  0  0  0  0  0  0  0  0  0  0  0
   -0.9750    1.0274    0.1566 N   0  0  0  0  0  0  0  0  0  0  0  0
    0.2023    0.5266   -0.5070 C   0  0  2  0  0  0  0  0  0  0  0  0
    0.8143   -0.5348    0.4002 C   0  0  0  0  0  0  0  0  0  0  0  0
    0.6812   -0.5282    1.6221 O   0  0  0  0  0  0  0  0  0  0  0  0
    1.2215    1.6354   -0.7930 C   0  0  0  0  0  0  0  0  0  0  0  0
    0.7268    2.6348   -1.8099 C   0  0  0  0  0  0  0  0  0  0  0  0
    0.8066    2.3424   -3.1714 C   0  0  0  0  0  0  0  0  0  0  0  0
    0.1904    3.8514   -1.3881 C   0  0  0  0  0  0  0  0  0  0  0  0
    0.3499    3.2664   -4.1112 C   0  0  0  0  0  0  0  0  0  0  0  0
   -0.2664    4.7755   -2.3278 C   0  0  0  0  0  0  0  0  0  0  0  0
   -0.1866    4.4830   -3.6894 C   0  0  0  0  0  0  0  0  0  0  0  0
   -0.6310    5.3851   -4.6066 O   0  0  0  0  0  0  0  0  0  0  0  0
   -1.7582    1.3241   -0.4207 H   0  0  0  0  0  0  0  0  0  0  0  0
   -0.1398    0.0522   -1.4343 H   0  0  0  0  0  0  0  0  0  0  0  0
    2.1710    1.2007   -1.1339 H   0  0  0  0  0  0  0  0  0  0  0  0
    1.4679    2.1771    0.1298 H   0  0  0  0  0  0  0  0  0  0  0  0
    1.2230    1.3971   -3.5090 H   0  0  0  0  0  0  0  0  0  0  0  0
    0.1242    4.0877   -0.3292 H   0  0  0  0  0  0  0  0  0  0  0  0
    0.4150    3.0329   -5.1706 H   0  0  0  0  0  0  0  0  0  0  0  0
   -0.6828    5.7213   -1.9930 H   0  0  0  0  0  0  0  0  0  0  0  0
   -0.9736    6.1765   -4.1614 H   0  0  0  0  0  0  0  0  0  0  0  0
    1.4822   -1.5137   -0.3225 N   0  0  0  0  0  0  0  0  0  0  0  0
    2.1333   -2.6482    0.2920 C   0  0  2  0  0  0  0  0  0  0  0  0
    3.0263   -2.1288    1.4110 C   0  0  0  0  0  0  0  0  0  0  0  0
    3.4484   -0.9750    1.4515 O   0  0  0  0  0  0  0  0  0  0  0  0
    2.9409   -3.4401   -0.7246 C   0  0  0  0  0  0  0  0  0  0  0  0
    1.5150   -1.4283   -1.3341 H   0  0  0  0  0  0  0  0  0  0  0  0
    1.3419   -3.2753    0.7168 H   0  0  0  0  0  0  0  0  0  0  0  0
    3.7388   -2.8283   -1.1611 H   0  0  0  0  0  0  0  0  0  0  0  0
    3.4103   -4.3153   -0.2634 H   0  0  0  0  0  0  0  0  0  0  0  0
    2.3025   -3.7876   -1.5440 H   0  0  0  0  0  0  0  0  0  0  0  0
    3.3316   -3.1170    2.3364 N   0  0  0  0  0  0  0  0  0  0  0  0
    4.1737   -2.8764    3.4848 C   0  0  0  0  0  0  0  0  0  0  0  0
    2.9222   -4.0410    2.2342 H   0  0  0  0  0  0  0  0  0  0  0  0
    5.2161   -3.1222    3.2338 H   0  0  0  0  0  0  0  0  0  0  0  0
    4.1062   -1.8170    3.7733 H   0  0  0  0  0  0  0  0  0  0  0  0
    3.8401   -3.5065    4.3225 H   0  0  0  0  0  0  0  0  0  0  0  0
 23 25  2  0  0  0  0
 22 23  1  0  0  0  0
 24 26  1  0  0  0  0
 22 24  2  0  0  0  0
 25 27  1  0  0  0  0
 26 27  2  0  0  0  0
 21 22  1  0  0  0  0
 27 28  1  0  0  0  0
  1  3  1  0  0  0  0
  1  7  1  0  0  0  0
  1  2  2  0  0  0  0
 39 40  1  0  0  0  0
 40 48  1  0  0  0  0
 40 41  2  0  0  0  0
  8  9  1  0  0  0  0
  9 17  1  0  0  0  0
  9 10  2  0  0  0  0
 18 19  1  0  0  0  0
 19 38  1  0  0  0  0
 19 20  2  0  0  0  0
 39 42  1  0  0  0  0
  8 11  1  0  0  0  0
 48 49  1  0  0  0  0
 18 21  1  0  0  0  0
 38 39  1  0  0  0  0
  7  8  1  0  0  0  0
 17 18  1  0  0  0  0
 23 33  1  0  0  0  0
 24 34  1  0  0  0  0
 25 35  1  0  0  0  0
 26 36  1  0  0  0  0
  3  4  1  0  0  0  0
  3  5  1  0  0  0  0
  3  6  1  0  0  0  0
 42 45  1  0  0  0  0
 42 46  1  0  0  0  0
 42 47  1  0  0  0  0
 11 14  1  0  0  0  0
 11 15  1  0  0  0  0
 11 16  1  0  0  0  0
 49 51  1  0  0  0  0
 49 52  1  0  0  0  0
 49 53  1  0  0  0  0
 21 31  1  0  0  0  0
 21 32  1  0  0  0  0
 39 44  1  0  0  0  0
  8 13  1  0  0  0  0
 18 30  1  0  0  0  0
 48 50  1  0  0  0  0
  7 12  1  0  0  0  0
 38 43  1  0  0  0  0
 17 29  1  0  0  0  0
 28 37  1  0  0  0  0
M  END
$$$$

  -OEChem-05262214473D

 53 53  0     1  0  0  0  0  0999 V2000
   -1.9298    0.2574    3.9747 C   0  0  0  0  0  0  0  0  0  0  0  0
   -0.9825   -0.3573    3.4990 O   0  0  0  0  0  0  0  0  0  0  0  0
   -2.3617   -0.0250    5.3754 C   0  0  0  0  0  0  0  0  0  0  0  0
   -3.1214   -0.8213    5.4288 H   0  0  0  0  0  0  0  0  0  0  0  0
   -1.5305   -0.3726    6.0097 H   0  0  0  0  0  0  0  0  0  0  0  0
   -2.7997    0.8299    5.9150 H   0  0  0  0  0  0  0  0  0  0  0  0
   -2.6795    1.2298    3.3336 N   0  0  0  0  0  0  0  0  0  0  0  0
   -2.4327    1.6559    1.9812 C   0  0  2  0  0  0  0  0  0  0  0  0
   -1.0977    1.0705    1.5400 C   0  0  0  0  0  0  0  0  0  0  0  0
   -0.2256    0.7177    2.3313 O   0  0  0  0  0  0  0  0  0  0  0  0
   -2.4239    3.1726    1.8718 C   0  0  0  0  0  0  0  0  0  0  0  0
   -3.4446    1.6657    3.8454 H   0  0  0  0  0  0  0  0  0  0  0  0
   -3.2368    1.2374    1.3661 H   0  0  0  0  0  0  0  0  0  0  0  0
   -1.6248    3.6099    2.4815 H   0  0  0  0  0  0  0  0  0  0  0  0
   -2.2644    3.4949    0.8375 H   0  0  0  0  0  0  0  0  0  0  0  0
   -3.3741    3.5939    2.2175 H   0  0  0  0  0  0  0  0  0  0  0  0
   -0.9750    1.0274    0.1566 N   0  0  0  0  0  0  0  0  0  0  0  0
    0.2023    0.5266   -0.5070 C   0  0  2  0  0  0  0  0  0  0  0  0
    0.8143   -0.5348    0.4002 C   0  0  0  0  0  0  0  0  0  0  0  0
    0.4736   -0.6918    1.5708 O   0  0  0  0  0  0  0  0  0  0  0  0
    1.2215    1.6354   -0.7930 C   0  0  0  0  0  0  0  0  0  0  0  0
    0.7268    2.6348   -1.8099 C   0  0  0  0  0  0  0  0  0  0  0  0
    0.8066    2.3424   -3.1714 C   0  0  0  0  0  0  0  0  0  0  0  0
    0.1904    3.8514   -1.3881 C   0  0  0  0  0  0  0  0  0  0  0  0
    0.3499    3.2664   -4.1112 C   0  0  0  0  0  0  0  0  0  0  0  0
   -0.2664    4.7755   -2.3278 C   0  0  0  0  0  0  0  0  0  0  0  0
   -0.1866    4.4830   -3.6894 C   0  0  0  0  0  0  0  0  0  0  0  0
   -0.6310    5.3851   -4.6066 O   0  0  0  0  0  0  0  0  0  0  0  0
   -1.7582    1.3241   -0.4207 H   0  0  0  0  0  0  0  0  0  0  0  0
   -0.1398    0.0522   -1.4343 H   0  0  0  0  0  0  0  0  0  0  0  0
    2.1710    1.2007   -1.1339 H   0  0  0  0  0  0  0  0  0  0  0  0
    1.4679    2.1771    0.1298 H   0  0  0  0  0  0  0  0  0  0  0  0
    1.2230    1.3971   -3.5090 H   0  0  0  0  0  0  0  0  0  0  0  0
    0.1242    4.0877   -0.3292 H   0  0  0  0  0  0  0  0  0  0  0  0
    0.4150    3.0329   -5.1706 H   0  0  0  0  0  0  0  0  0  0  0  0
   -0.6828    5.7213   -1.9930 H   0  0  0  0  0  0  0  0  0  0  0  0
   -0.9736    6.1765   -4.1614 H   0  0  0  0  0  0  0  0  0  0  0  0
    1.7475   -1.3147   -0.2687 N   0  0  0  0  0  0  0  0  0  0  0  0
    2.4599   -2.4077    0.3530 C   0  0  2  0  0  0  0  0  0  0  0  0
    3.0498   -1.9005    1.6623 C   0  0  0  0  0  0  0  0  0  0  0  0
    3.2642   -0.7107    1.8850 O   0  0  0  0  0  0  0  0  0  0  0  0
    3.5488   -2.9491   -0.5602 C   0  0  0  0  0  0  0  0  0  0  0  0
    1.9394   -1.1067   -1.2442 H   0  0  0  0  0  0  0  0  0  0  0  0
    1.7205   -3.1883    0.5631 H   0  0  0  0  0  0  0  0  0  0  0  0
    4.2989   -2.1812   -0.7819 H   0  0  0  0  0  0  0  0  0  0  0  0
    4.0686   -3.7955   -0.0994 H   0  0  0  0  0  0  0  0  0  0  0  0
    3.1265   -3.2860   -1.5130 H   0  0  0  0  0  0  0  0  0  0  0  0
    3.3489   -2.9364    2.5360 N   0  0  0  0  0  0  0  0  0  0  0  0
    3.9299   -2.7139    3.8394 C   0  0  0  0  0  0  0  0  0  0  0  0
    3.1198   -3.8913    2.2760 H   0  0  0  0  0  0  0  0  0  0  0  0
    5.0259   -2.7751    3.7681 H   0  0  0  0  0  0  0  0  0  0  0  0
    3.6415   -1.7169    4.2039 H   0  0  0  0  0  0  0  0  0  0  0  0
    3.5648   -3.4800    4.5392 H   0  0  0  0  0  0  0  0  0  0  0  0
 23 25  2  0  0  0  0
 22 23  1  0  0  0  0
 24 26  1  0  0  0  0
 22 24  2  0  0  0  0
 25 27  1  0  0  0  0
 26 27  2  0  0  0  0
 21 22  1  0  0  0  0
 27 28  1  0  0  0  0
  1  3  1  0  0  0  0
  1  7  1  0  0  0  0
  1  2  2  0  0  0  0
 39 40  1  0  0  0  0
 40 48  1  0  0  0  0
 40 41  2  0  0  0  0
  8  9  1  0  0  0  0
  9 17  1  0  0  0  0
  9 10  2  0  0  0  0
 18 19  1  0  0  0  0
 19 38  1  0  0  0  0
 19 20  2  0  0  0  0
 39 42  1  0  0  0  0
  8 11  1  0  0  0  0
 48 49  1  0  0  0  0
 18 21  1  0  0  0  0
 38 39  1  0  0  0  0
  7  8  1  0  0  0  0
 17 18  1  0  0  0  0
 23 33  1  0  0  0  0
 24 34  1  0  0  0  0
 25 35  1  0  0  0  0
 26 36  1  0  0  0  0
  3  4  1  0  0  0  0
  3  5  1  0  0  0  0
  3  6  1  0  0  0  0
 42 45  1  0  0  0  0
 42 46  1  0  0  0  0
 42 47  1  0  0  0  0
 11 14  1  0  0  0  0
 11 15  1  0  0  0  0
 11 16  1  0  0  0  0
 49 51  1  0  0  0  0
 49 52  1  0  0  0  0
 49 53  1  0  0  0  0
 21 31  1  0  0  0  0
 21 32  1  0  0  0  0
 39 44  1  0  0  0  0
  8 13  1  0  0  0  0
 18 30  1  0  0  0  0
 48 50  1  0  0  0  0
  7 12  1  0  0  0  0
 38 43  1  0  0  0  0
 17 29  1  0  0  0  0
 28 37  1  0  0  0  0
M  END
$$$$

  -OEChem-05262214473D

 53 53  0     1  0  0  0  0  0999 V2000
   -1.9298    0.2574    3.9747 C   0  0  0  0  0  0  0  0  0  0  0  0
   -0.9825   -0.3573    3.4990 O   0  0  0  0  0  0  0  0  0  0  0  0
   -2.3617   -0.0250    5.3754 C   0  0  0  0  0  0  0  0  0  0  0  0
   -3.1214   -0.8213    5.4288 H   0  0  0  0  0  0  0  0  0  0  0  0
   -1.5305   -0.3726    6.0097 H   0  0  0  0  0  0  0  0  0  0  0  0
   -2.7997    0.8299    5.9150 H   0  0  0  0  0  0  0  0  0  0  0  0
   -2.6795    1.2298    3.3336 N   0  0  0  0  0  0  0  0  0  0  0  0
   -2.4327    1.6559    1.9812 C   0  0  2  0  0  0  0  0  0  0  0  0
   -1.0977    1.0705    1.5400 C   0  0  0  0  0  0  0  0  0  0  0  0
   -0.2256    0.7177    2.3313 O   0  0  0  0  0  0  0  0  0  0  0  0
   -2.4239    3.1726    1.8718 C   0  0  0  0  0  0  0  0  0  0  0  0
   -3.4446    1.6657    3.8454 H   0  0  0  0  0  0  0  0  0  0  0  0
   -3.2368    1.2374    1.3661 H   0  0  0  0  0  0  0  0  0  0  0  0
   -1.6248    3.6099    2.4815 H   0  0  0  0  0  0  0  0  0  0  0  0
   -2.2644    3.4949    0.8375 H   0  0  0  0  0  0  0  0  0  0  0  0
   -3.3741    3.5939    2.2175 H   0  0  0  0  0  0  0  0  0  0  0  0
   -0.9750    1.0274    0.1566 N   0  0  0  0  0  0  0  0  0  0  0  0
    0.2023    0.5266   -0.5070 C   0  0  2  0  0  0  0  0  0  0  0  0
    0.5979   -0.7687    0.1929 C   0  0  0  0  0  0  0  0  0  0  0  0
   -0.0500   -1.2545    1.1176 O   0  0  0  0  0  0  0  0  0  0  0  0
    1.3608    1.5297   -0.4662 C   0  0  0  0  0  0  0  0  0  0  0  0
    1.0856    2.7724   -1.2772 C   0  0  0  0  0  0  0  0  0  0  0  0
    1.2724    2.7589   -2.6595 C   0  0  0  0  0  0  0  0  0  0  0  0
    0.6451    3.9348   -0.6443 C   0  0  0  0  0  0  0  0  0  0  0  0
    1.0185    3.9077   -3.4088 C   0  0  0  0  0  0  0  0  0  0  0  0
    0.3913    5.0836   -1.3936 C   0  0  0  0  0  0  0  0  0  0  0  0
    0.5780    5.0700   -2.7759 C   0  0  0  0  0  0  0  0  0  0  0  0
    0.3317    6.1912   -3.5071 O   0  0  0  0  0  0  0  0  0  0  0  0
   -1.7582    1.3241   -0.4207 H   0  0  0  0  0  0  0  0  0  0  0  0
   -0.0926    0.3015   -1.5387 H   0  0  0  0  0  0  0  0  0  0  0  0
    2.2869    1.0559   -0.8190 H   0  0  0  0  0  0  0  0  0  0  0  0
    1.5689    1.8334    0.5683 H   0  0  0  0  0  0  0  0  0  0  0  0
    1.6152    1.8578   -3.1609 H   0  0  0  0  0  0  0  0  0  0  0  0
    0.4967    3.9545    0.4323 H   0  0  0  0  0  0  0  0  0  0  0  0
    1.1662    3.8910   -4.4854 H   0  0  0  0  0  0  0  0  0  0  0  0
    0.0488    5.9858   -0.8948 H   0  0  0  0  0  0  0  0  0  0  0  0
    0.0340    6.9114   -2.9287 H   0  0  0  0  0  0  0  0  0  0  0  0
    1.7299   -1.3397   -0.3720 N   0  0  0  0  0  0  0  0  0  0  0  0
    2.3045   -2.5838    0.0871 C   0  0  2  0  0  0  0  0  0  0  0  0
    2.4657   -2.4976    1.5991 C   0  0  0  0  0  0  0  0  0  0  0  0
    2.5324   -1.4312    2.2069 O   0  0  0  0  0  0  0  0  0  0  0  0
    3.6397   -2.8587   -0.5871 C   0  0  0  0  0  0  0  0  0  0  0  0
    2.1770   -0.8590   -1.1471 H   0  0  0  0  0  0  0  0  0  0  0  0
    1.5869   -3.3738   -0.1598 H   0  0  0  0  0  0  0  0  0  0  0  0
    4.3716   -2.0776   -0.3512 H   0  0  0  0  0  0  0  0  0  0  0  0
    4.0600   -3.8153   -0.2595 H   0  0  0  0  0  0  0  0  0  0  0  0
    3.5270   -2.8907   -1.6761 H   0  0  0  0  0  0  0  0  0  0  0  0
    2.5698   -3.7514    2.1851 N   0  0  0  0  0  0  0  0  0  0  0  0
    2.7421   -3.9354    3.6073 C   0  0  0  0  0  0  0  0  0  0  0  0
    2.4848   -4.5820    1.6066 H   0  0  0  0  0  0  0  0  0  0  0  0
    3.8149   -3.9991    3.8419 H   0  0  0  0  0  0  0  0  0  0  0  0
    2.2996   -3.0830    4.1434 H   0  0  0  0  0  0  0  0  0  0  0  0
    2.2428   -4.8644    3.9198 H   0  0  0  0  0  0  0  0  0  0  0  0
 23 25  2  0  0  0  0
 22 23  1  0  0  0  0
 24 26  1  0  0  0  0
 22 24  2  0  0  0  0
 25 27  1  0  0  0  0
 26 27  2  0  0  0  0
 21 22  1  0  0  0  0
 27 28  1  0  0  0  0
  1  3  1  0  0  0  0
  1  7  1  0  0  0  0
  1  2  2  0  0  0  0
 39 40  1  0  0  0  0
 40 48  1  0  0  0  0
 40 41  2  0  0  0  0
  8  9  1  0  0  0  0
  9 17  1  0  0  0  0
  9 10  2  0  0  0  0
 18 19  1  0  0  0  0
 19 38  1  0  0  0  0
 19 20  2  0  0  0  0
 39 42  1  0  0  0  0
  8 11  1  0  0  0  0
 48 49  1  0  0  0  0
 18 21  1  0  0  0  0
 38 39  1  0  0  0  0
  7  8  1  0  0  0  0
 17 18  1  0  0  0  0
 23 33  1  0  0  0  0
 24 34  1  0  0  0  0
 25 35  1  0  0  0  0
 26 36  1  0  0  0  0
  3  4  1  0  0  0  0
  3  5  1  0  0  0  0
  3  6  1  0  0  0  0
 42 45  1  0  0  0  0
 42 46  1  0  0  0  0
 42 47  1  0  0  0  0
 11 14  1  0  0  0  0
 11 15  1  0  0  0  0
 11 16  1  0  0  0  0
 49 51  1  0  0  0  0
 49 52  1  0  0  0  0
 49 53  1  0  0  0  0
 21 31  1  0  0  0  0
 21 32  1  0  0  0  0
 39 44  1  0  0  0  0
  8 13  1  0  0  0  0
 18 30  1  0  0  0  0
 48 50  1  0  0  0  0
  7 12  1  0  0  0  0
 38 43  1  0  0  0  0
 17 29  1  0  0  0  0
 28 37  1  0  0  0  0
M  END
$$$$

  -OEChem-05262214473D

 53 53  0     1  0  0  0  0  0999 V2000
   -1.9298    0.2574    3.9747 C   0  0  0  0  0  0  0  0  0  0  0  0
   -0.9825   -0.3573    3.4990 O   0  0  0  0  0  0  0  0  0  0  0  0
   -2.3617   -0.0250    5.3754 C   0  0  0  0  0  0  0  0  0  0  0  0
   -3.1214   -0.8213    5.4288 H   0  0  0  0  0  0  0  0  0  0  0  0
   -1.5305   -0.3726    6.0097 H   0  0  0  0  0  0  0  0  0  0  0  0
   -2.7997    0.8299    5.9150 H   0  0  0  0  0  0  0  0  0  0  0  0
   -2.6795    1.2298    3.3336 N   0  0  0  0  0  0  0  0  0  0  0  0
   -2.4327    1.6559    1.9812 C   0  0  2  0  0  0  0  0  0  0  0  0
   -1.0977    1.0705    1.5400 C   0  0  0  0  0  0  0  0  0  0  0  0
   -0.2256    0.7177    2.3313 O   0  0  0  0  0  0  0  0  0  0  0  0
   -2.4239    3.1726    1.8718 C   0  0  0  0  0  0  0  0  0  0  0  0
   -3.4446    1.6657    3.8454 H   0  0  0  0  0  0  0  0  0  0  0  0
   -3.2368    1.2374    1.3661 H   0  0  0  0  0  0  0  0  0  0  0  0
   -1.6248    3.6099    2.4815 H   0  0  0  0  0  0  0  0  0  0  0  0
   -2.2644    3.4949    0.8375 H   0  0  0  0  0  0  0  0  0  0  0  0
   -3.3741    3.5939    2.2175 H   0  0  0  0  0  0  0  0  0  0  0  0
   -0.9750    1.0274    0.1566 N   0  0  0  0  0  0  0  0  0  0  0  0
    0.2023    0.5266   -0.5070 C   0  0  2  0  0  0  0  0  0  0  0  0
    0.5979   -0.7687    0.1929 C   0  0  0  0  0  0  0  0  0  0  0  0
   -0.1676   -1.3964    0.9215 O   0  0  0  0  0  0  0  0  0  0  0  0
    1.3608    1.5297   -0.4662 C   0  0  0  0  0  0  0  0  0  0  0  0
    1.0856    2.7724   -1.2772 C   0  0  0  0  0  0  0  0  0  0  0  0
    1.2724    2.7589   -2.6595 C   0  0  0  0  0  0  0  0  0  0  0  0
    0.6451    3.9348   -0.6443 C   0  0  0  0  0  0  0  0  0  0  0  0
    1.0185    3.9077   -3.4088 C   0  0  0  0  0  0  0  0  0  0  0  0
    0.3913    5.0836   -1.3936 C   0  0  0  0  0  0  0  0  0  0  0  0
    0.5780    5.0700   -2.7759 C   0  0  0  0  0  0  0  0  0  0  0  0
    0.3317    6.1912   -3.5071 O   0  0  0  0  0  0  0  0  0  0  0  0
   -1.7582    1.3241   -0.4207 H   0  0  0  0  0  0  0  0  0  0  0  0
   -0.0926    0.3015   -1.5387 H   0  0  0  0  0  0  0  0  0  0  0  0
    2.2869    1.0559   -0.8190 H   0  0  0  0  0  0  0  0  0  0  0  0
    1.5689    1.8334    0.5683 H   0  0  0  0  0  0  0  0  0  0  0  0
    1.6152    1.8578   -3.1609 H   0  0  0  0  0  0  0  0  0  0  0  0
    0.4967    3.9545    0.4323 H   0  0  0  0  0  0  0  0  0  0  0  0
    1.1662    3.8910   -4.4854 H   0  0  0  0  0  0  0  0  0  0  0  0
    0.0488    5.9858   -0.8948 H   0  0  0  0  0  0  0  0  0  0  0  0
    0.0340    6.9114   -2.9287 H   0  0  0  0  0  0  0  0  0  0  0  0
    1.8880   -1.1628   -0.1341 N   0  0  0  0  0  0  0  0  0  0  0  0
    2.5024   -2.3681    0.3744 C   0  0  2  0  0  0  0  0  0  0  0  0
    2.3212   -2.3865    1.8865 C   0  0  0  0  0  0  0  0  0  0  0  0
    2.1198   -1.3717    2.5503 O   0  0  0  0  0  0  0  0  0  0  0  0
    3.9754   -2.4376    0.0026 C   0  0  0  0  0  0  0  0  0  0  0  0
    2.4274   -0.5745   -0.7623 H   0  0  0  0  0  0  0  0  0  0  0  0
    1.9607   -3.2106   -0.0692 H   0  0  0  0  0  0  0  0  0  0  0  0
    4.5345   -1.6014    0.4381 H   0  0  0  0  0  0  0  0  0  0  0  0
    4.4325   -3.3647    0.3639 H   0  0  0  0  0  0  0  0  0  0  0  0
    4.1054   -2.3942   -1.0842 H   0  0  0  0  0  0  0  0  0  0  0  0
    2.4539   -3.6640    2.4125 N   0  0  0  0  0  0  0  0  0  0  0  0
    2.3371   -3.9415    3.8250 C   0  0  0  0  0  0  0  0  0  0  0  0
    2.6014   -4.4496    1.7857 H   0  0  0  0  0  0  0  0  0  0  0  0
    3.3332   -3.9040    4.2902 H   0  0  0  0  0  0  0  0  0  0  0  0
    1.6852   -3.1895    4.2936 H   0  0  0  0  0  0  0  0  0  0  0  0
    1.9035   -4.9423    3.9673 H   0  0  0  0  0  0  0  0  0  0  0  0
 23 25  2  0  0  0  0
 22 23  1  0  0  0  0
 24 26  1  0  0  0  0
 22 24  2  0  0  0  0
 25 27  1  0  0  0  0
 26 27  2  0  0  0  0
 21 22  1  0  0  0  0
 27 28  1  0  0  0  0
  1  3  1  0  0  0  0
  1  7  1  0  0  0  0
  1  2  2  0  0  0  0
 39 40  1  0  0  0  0
 40 48  1  0  0  0  0
 40 41  2  0  0  0  0
  8  9  1  0  0  0  0
  9 17  1  0  0  0  0
  9 10  2  0  0  0  0
 18 19  1  0  0  0  0
 19 38  1  0  0  0  0
 19 20  2  0  0  0  0
 39 42  1  0  0  0  0
  8 11  1  0  0  0  0
 48 49  1  0  0  0  0
 18 21  1  0  0  0  0
 38 39  1  0  0  0  0
  7  8  1  0  0  0  0
 17 18  1  0  0  0  0
 23 33  1  0  0  0  0
 24 34  1  0  0  0  0
 25 35  1  0  0  0  0
 26 36  1  0  0  0  0
  3  4  1  0  0  0  0
  3  5  1  0  0  0  0
  3  6  1  0  0  0  0
 42 45  1  0  0  0  0
 42 46  1  0  0  0  0
 42 47  1  0  0  0  0
 11 14  1  0  0  0  0
 11 15  1  0  0  0  0
 11 16  1  0  0  0  0
 49 51  1  0  0  0  0
 49 52  1  0  0  0  0
 49 53  1  0  0  0  0
 21 31  1  0  0  0  0
 21 32  1  0  0  0  0
 39 44  1  0  0  0  0
  8 13  1  0  0  0  0
 18 30  1  0  0  0  0
 48 50  1  0  0  0  0
  7 12  1  0  0  0  0
 38 43  1  0  0  0  0
 17 29  1  0  0  0  0
 28 37  1  0  0  0  0
M  END
$$$$

  -OEChem-05262214473D

 53 53  0     1  0  0  0  0  0999 V2000
   -1.9298    0.2574    3.9747 C   0  0  0  0  0  0  0  0  0  0  0  0
   -0.9825   -0.3573    3.4990 O   0  0  0  0  0  0  0  0  0  0  0  0
   -2.3617   -0.0250    5.3754 C   0  0  0  0  0  0  0  0  0  0  0  0
   -3.1214   -0.8213    5.4288 H   0  0  0  0  0  0  0  0  0  0  0  0
   -1.5305   -0.3726    6.0097 H   0  0  0  0  0  0  0  0  0  0  0  0
   -2.7997    0.8299    5.9150 H   0  0  0  0  0  0  0  0  0  0  0  0
   -2.6795    1.2298    3.3336 N   0  0  0  0  0  0  0  0  0  0  0  0
   -2.4327    1.6559    1.9812 C   0  0  2  0  0  0  0  0  0  0  0  0
   -1.0977    1.0705    1.5400 C   0  0  0  0  0  0  0  0  0  0  0  0
   -0.2256    0.7177    2.3313 O   0  0  0  0  0  0  0  0  0  0  0  0
   -2.4239    3.1726    1.8718 C   0  0  0  0  0  0  0  0  0  0  0  0
   -3.4446    1.6657    3.8454 H   0  0  0  0  0  0  0  0  0  0  0  0
   -3.2368    1.2374    1.3661 H   0  0  0  0  0  0  0  0  0  0  0  0
   -1.6248    3.6099    2.4815 H   0  0  0  0  0  0  0  0  0  0  0  0
   -2.2644    3.4949    0.8375 H   0  0  0  0  0  0  0  0  0  0  0  0
   -3.3741    3.5939    2.2175 H   0  0  0  0  0  0  0  0  0  0  0  0
   -0.9750    1.0274    0.1566 N   0  0  0  0  0  0  0  0  0  0  0  0
    0.2023    0.5266   -0.5070 C   0  0  2  0  0  0  0  0  0  0  0  0
    0.5979   -0.7687    0.1929 C   0  0  0  0  0  0  0  0  0  0  0  0
   -0.2213   -1.5343    0.6966 O   0  0  0  0  0  0  0  0  0  0  0  0
    1.3608    1.5297   -0.4662 C   0  0  0  0  0  0  0  0  0  0  0  0
    1.0856    2.7724   -1.2772 C   0  0  0  0  0  0  0  0  0  0  0  0
    1.2724    2.7589   -2.6595 C   0  0  0  0  0  0  0  0  0  0  0  0
    0.6451    3.9348   -0.6443 C   0  0  0  0  0  0  0  0  0  0  0  0
    1.0185    3.9077   -3.4088 C   0  0  0  0  0  0  0  0  0  0  0  0
    0.3913    5.0836   -1.3936 C   0  0  0  0  0  0  0  0  0  0  0  0
    0.5780    5.0700   -2.7759 C   0  0  0  0  0  0  0  0  0  0  0  0
    0.3317    6.1912   -3.5071 O   0  0  0  0  0  0  0  0  0  0  0  0
   -1.7582    1.3241   -0.4207 H   0  0  0  0  0  0  0  0  0  0  0  0
   -0.0926    0.3015   -1.5387 H   0  0  0  0  0  0  0  0  0  0  0  0
    2.2869    1.0559   -0.8190 H   0  0  0  0  0  0  0  0  0  0  0  0
    1.5689    1.8334    0.5683 H   0  0  0  0  0  0  0  0  0  0  0  0
    1.6152    1.8578   -3.1609 H   0  0  0  0  0  0  0  0  0  0  0  0
    0.4967    3.9545    0.4323 H   0  0  0  0  0  0  0  0  0  0  0  0
    1.1662    3.8910   -4.4854 H   0  0  0  0  0  0  0  0  0  0  0  0
    0.0488    5.9858   -0.8948 H   0  0  0  0  0  0  0  0  0  0  0  0
    0.0340    6.9114   -2.9287 H   0  0  0  0  0  0  0  0  0  0  0  0
    1.9673   -0.9892    0.1424 N   0  0  0  0  0  0  0  0  0  0  0  0
    2.6047   -2.1556    0.7099 C   0  0  2  0  0  0  0  0  0  0  0  0
    2.1053   -2.3156    2.1397 C   0  0  0  0  0  0  0  0  0  0  0  0
    1.6388   -1.3863    2.7953 O   0  0  0  0  0  0  0  0  0  0  0  0
    4.1199   -2.0305    0.6742 C   0  0  0  0  0  0  0  0  0  0  0  0
    2.5509   -0.2959   -0.3164 H   0  0  0  0  0  0  0  0  0  0  0  0
    2.2824   -3.0147    0.1115 H   0  0  0  0  0  0  0  0  0  0  0  0
    4.4617   -1.1751    1.2682 H   0  0  0  0  0  0  0  0  0  0  0  0
    4.6017   -2.9270    1.0782 H   0  0  0  0  0  0  0  0  0  0  0  0
    4.4750   -1.8857   -0.3519 H   0  0  0  0  0  0  0  0  0  0  0  0
    2.2816   -3.6085    2.6125 N   0  0  0  0  0  0  0  0  0  0  0  0
    1.8986   -4.0101    3.9459 C   0  0  0  0  0  0  0  0  0  0  0  0
    2.6589   -4.3199    1.9933 H   0  0  0  0  0  0  0  0  0  0  0  0
    2.7579   -3.8995    4.6237 H   0  0  0  0  0  0  0  0  0  0  0  0
    1.0713   -3.3755    4.2964 H   0  0  0  0  0  0  0  0  0  0  0  0
    1.5746   -5.0612    3.9334 H   0  0  0  0  0  0  0  0  0  0  0  0
 23 25  2  0  0  0  0
 22 23  1  0  0  0  0
 24 26  1  0  0  0  0
 22 24  2  0  0  0  0
 25 27  1  0  0  0  0
 26 27  2  0  0  0  0
 21 22  1  0  0  0  0
 27 28  1  0  0  0  0
  1  3  1  0  0  0  0
  1  7  1  0  0  0  0
  1  2  2  0  0  0  0
 39 40  1  0  0  0  0
 40 48  1  0  0  0  0
 40 41  2  0  0  0  0
  8  9  1  0  0  0  0
  9 17  1  0  0  0  0
  9 10  2  0  0  0  0
 18 19  1  0  0  0  0
 19 38  1  0  0  0  0
 19 20  2  0  0  0  0
 39 42  1  0  0  0  0
  8 11  1  0  0  0  0
 48 49  1  0  0  0  0
 18 21  1  0  0  0  0
 38 39  1  0  0  0  0
  7  8  1  0  0  0  0
 17 18  1  0  0  0  0
 23 33  1  0  0  0  0
 24 34  1  0  0  0  0
 25 35  1  0  0  0  0
 26 36  1  0  0  0  0
  3  4  1  0  0  0  0
  3  5  1  0  0  0  0
  3  6  1  0  0  0  0
 42 45  1  0  0  0  0
 42 46  1  0  0  0  0
 42 47  1  0  0  0  0
 11 14  1  0  0  0  0
 11 15  1  0  0  0  0
 11 16  1  0  0  0  0
 49 51  1  0  0  0  0
 49 52  1  0  0  0  0
 49 53  1  0  0  0  0
 21 31  1  0  0  0  0
 21 32  1  0  0  0  0
 39 44  1  0  0  0  0
  8 13  1  0  0  0  0
 18 30  1  0  0  0  0
 48 50  1  0  0  0  0
  7 12  1  0  0  0  0
 38 43  1  0  0  0  0
 17 29  1  0  0  0  0
 28 37  1  0  0  0  0
M  END
$$$$

  -OEChem-05262214473D

 53 53  0     1  0  0  0  0  0999 V2000
   -1.9298    0.2574    3.9747 C   0  0  0  0  0  0  0  0  0  0  0  0
   -0.9825   -0.3573    3.4990 O   0  0  0  0  0  0  0  0  0  0  0  0
   -2.3617   -0.0250    5.3754 C   0  0  0  0  0  0  0  0  0  0  0  0
   -3.1214   -0.8213    5.4288 H   0  0  0  0  0  0  0  0  0  0  0  0
   -1.5305   -0.3726    6.0097 H   0  0  0  0  0  0  0  0  0  0  0  0
   -2.7997    0.8299    5.9150 H   0  0  0  0  0  0  0  0  0  0  0  0
   -2.6795    1.2298    3.3336 N   0  0  0  0  0  0  0  0  0  0  0  0
   -2.4327    1.6559    1.9812 C   0  0  2  0  0  0  0  0  0  0  0  0
   -1.0977    1.0705    1.5400 C   0  0  0  0  0  0  0  0  0  0  0  0
   -0.2256    0.7177    2.3313 O   0  0  0  0  0  0  0  0  0  0  0  0
   -2.4239    3.1726    1.8718 C   0  0  0  0  0  0  0  0  0  0  0  0
   -3.4446    1.6657    3.8454 H   0  0  0  0  0  0  0  0  0  0  0  0
   -3.2368    1.2374    1.3661 H   0  0  0  0  0  0  0  0  0  0  0  0
   -1.6248    3.6099    2.4815 H   0  0  0  0  0  0  0  0  0  0  0  0
   -2.2644    3.4949    0.8375 H   0  0  0  0  0  0  0  0  0  0  0  0
   -3.3741    3.5939    2.2175 H   0  0  0  0  0  0  0  0  0  0  0  0
   -0.9750    1.0274    0.1566 N   0  0  0  0  0  0  0  0  0  0  0  0
    0.2023    0.5266   -0.5070 C   0  0  2  0  0  0  0  0  0  0  0  0
    0.5979   -0.7687    0.1929 C   0  0  0  0  0  0  0  0  0  0  0  0
   -0.2072   -1.6587    0.4583 O   0  0  0  0  0  0  0  0  0  0  0  0
    1.3608    1.5297   -0.4662 C   0  0  0  0  0  0  0  0  0  0  0  0
    1.0856    2.7724   -1.2772 C   0  0  0  0  0  0  0  0  0  0  0  0
    1.2724    2.7589   -2.6595 C   0  0  0  0  0  0  0  0  0  0  0  0
    0.6451    3.9348   -0.6443 C   0  0  0  0  0  0  0  0  0  0  0  0
    1.0185    3.9077   -3.4088 C   0  0  0  0  0  0  0  0  0  0  0  0
    0.3913    5.0836   -1.3936 C   0  0  0  0  0  0  0  0  0  0  0  0
    0.5780    5.0700   -2.7759 C   0  0  0  0  0  0  0  0  0  0  0  0
    0.3317    6.1912   -3.5071 O   0  0  0  0  0  0  0  0  0  0  0  0
   -1.7582    1.3241   -0.4207 H   0  0  0  0  0  0  0  0  0  0  0  0
   -0.0926    0.3015   -1.5387 H   0  0  0  0  0  0  0  0  0  0  0  0
    2.2869    1.0559   -0.8190 H   0  0  0  0  0  0  0  0  0  0  0  0
    1.5689    1.8334    0.5683 H   0  0  0  0  0  0  0  0  0  0  0  0
    1.6152    1.8578   -3.1609 H   0  0  0  0  0  0  0  0  0  0  0  0
    0.4967    3.9545    0.4323 H   0  0  0  0  0  0  0  0  0  0  0  0
    1.1662    3.8910   -4.4854 H   0  0  0  0  0  0  0  0  0  0  0  0
    0.0488    5.9858   -0.8948 H   0  0  0  0  0  0  0  0  0  0  0  0
    0.0340    6.9114   -2.9287 H   0  0  0  0  0  0  0  0  0  0  0  0
    1.9625   -0.8306    0.4386 N   0  0  0  0  0  0  0  0  0  0  0  0
    2.6046   -1.9607    1.0707 C   0  0  2  0  0  0  0  0  0  0  0  0
    1.8326   -2.2898    2.3416 C   0  0  0  0  0  0  0  0  0  0  0  0
    1.1220   -1.4740    2.9251 O   0  0  0  0  0  0  0  0  0  0  0  0
    4.0635   -1.6653    1.3820 C   0  0  0  0  0  0  0  0  0  0  0  0
    2.5390   -0.0420    0.1602 H   0  0  0  0  0  0  0  0  0  0  0  0
    2.5302   -2.7994    0.3700 H   0  0  0  0  0  0  0  0  0  0  0  0
    4.1581   -0.8277    2.0828 H   0  0  0  0  0  0  0  0  0  0  0  0
    4.5560   -2.5322    1.8348 H   0  0  0  0  0  0  0  0  0  0  0  0
    4.6104   -1.3997    0.4709 H   0  0  0  0  0  0  0  0  0  0  0  0
    2.0646   -3.5889    2.7714 N   0  0  0  0  0  0  0  0  0  0  0  0
    1.4567   -4.1365    3.9617 C   0  0  0  0  0  0  0  0  0  0  0  0
    2.6534   -4.2017    2.2151 H   0  0  0  0  0  0  0  0  0  0  0  0
    2.1284   -3.9859    4.8196 H   0  0  0  0  0  0  0  0  0  0  0  0
    0.4999   -3.6283    4.1517 H   0  0  0  0  0  0  0  0  0  0  0  0
    1.2784   -5.2128    3.8202 H   0  0  0  0  0  0  0  0  0  0  0  0
 23 25  2  0  0  0  0
 22 23  1  0  0  0  0
 24 26  1  0  0  0  0
 22 24  2  0  0  0  0
 25 27  1  0  0  0  0
 26 27  2  0  0  0  0
 21 22  1  0  0  0  0
 27 28  1  0  0  0  0
  1  3  1  0  0  0  0
  1  7  1  0  0  0  0
  1  2  2  0  0  0  0
 39 40  1  0  0  0  0
 40 48  1  0  0  0  0
 40 41  2  0  0  0  0
  8  9  1  0  0  0  0
  9 17  1  0  0  0  0
  9 10  2  0  0  0  0
 18 19  1  0  0  0  0
 19 38  1  0  0  0  0
 19 20  2  0  0  0  0
 39 42  1  0  0  0  0
  8 11  1  0  0  0  0
 48 49  1  0  0  0  0
 18 21  1  0  0  0  0
 38 39  1  0  0  0  0
  7  8  1  0  0  0  0
 17 18  1  0  0  0  0
 23 33  1  0  0  0  0
 24 34  1  0  0  0  0
 25 35  1  0  0  0  0
 26 36  1  0  0  0  0
  3  4  1  0  0  0  0
  3  5  1  0  0  0  0
  3  6  1  0  0  0  0
 42 45  1  0  0  0  0
 42 46  1  0  0  0  0
 42 47  1  0  0  0  0
 11 14  1  0  0  0  0
 11 15  1  0  0  0  0
 11 16  1  0  0  0  0
 49 51  1  0  0  0  0
 49 52  1  0  0  0  0
 49 53  1  0  0  0  0
 21 31  1  0  0  0  0
 21 32  1  0  0  0  0
 39 44  1  0  0  0  0
  8 13  1  0  0  0  0
 18 30  1  0  0  0  0
 48 50  1  0  0  0  0
  7 12  1  0  0  0  0
 38 43  1  0  0  0  0
 17 29  1  0  0  0  0
 28 37  1  0  0  0  0
M  END
$$$$

  -OEChem-05262214473D

 53 53  0     1  0  0  0  0  0999 V2000
   -1.9298    0.2574    3.9747 C   0  0  0  0  0  0  0  0  0  0  0  0
   -0.9825   -0.3573    3.4990 O   0  0  0  0  0  0  0  0  0  0  0  0
   -2.3617   -0.0250    5.3754 C   0  0  0  0  0  0  0  0  0  0  0  0
   -3.1214   -0.8213    5.4288 H   0  0  0  0  0  0  0  0  0  0  0  0
   -1.5305   -0.3726    6.0097 H   0  0  0  0  0  0  0  0  0  0  0  0
   -2.7997    0.8299    5.9150 H   0  0  0  0  0  0  0  0  0  0  0  0
   -2.6795    1.2298    3.3336 N   0  0  0  0  0  0  0  0  0  0  0  0
   -2.4327    1.6559    1.9812 C   0  0  2  0  0  0  0  0  0  0  0  0
   -1.0977    1.0705    1.5400 C   0  0  0  0  0  0  0  0  0  0  0  0
   -0.2256    0.7177    2.3313 O   0  0  0  0  0  0  0  0  0  0  0  0
   -2.4239    3.1726    1.8718 C   0  0  0  0  0  0  0  0  0  0  0  0
   -3.4446    1.6657    3.8454 H   0  0  0  0  0  0  0  0  0  0  0  0
   -3.2368    1.2374    1.3661 H   0  0  0  0  0  0  0  0  0  0  0  0
   -1.6248    3.6099    2.4815 H   0  0  0  0  0  0  0  0  0  0  0  0
   -2.2644    3.4949    0.8375 H   0  0  0  0  0  0  0  0  0  0  0  0
   -3.3741    3.5939    2.2175 H   0  0  0  0  0  0  0  0  0  0  0  0
   -0.9750    1.0274    0.1566 N   0  0  0  0  0  0  0  0  0  0  0  0
    0.2023    0.5266   -0.5070 C   0  0  2  0  0  0  0  0  0  0  0  0
    0.5979   -0.7687    0.1929 C   0  0  0  0  0  0  0  0  0  0  0  0
   -0.1265   -1.7613    0.2229 O   0  0  0  0  0  0  0  0  0  0  0  0
    1.3608    1.5297   -0.4662 C   0  0  0  0  0  0  0  0  0  0  0  0
    1.0856    2.7724   -1.2772 C   0  0  0  0  0  0  0  0  0  0  0  0
    1.2724    2.7589   -2.6595 C   0  0  0  0  0  0  0  0  0  0  0  0
    0.6451    3.9348   -0.6443 C   0  0  0  0  0  0  0  0  0  0  0  0
    1.0185    3.9077   -3.4088 C   0  0  0  0  0  0  0  0  0  0  0  0
    0.3913    5.0836   -1.3936 C   0  0  0  0  0  0  0  0  0  0  0  0
    0.5780    5.0700   -2.7759 C   0  0  0  0  0  0  0  0  0  0  0  0
    0.3317    6.1912   -3.5071 O   0  0  0  0  0  0  0  0  0  0  0  0
   -1.7582    1.3241   -0.4207 H   0  0  0  0  0  0  0  0  0  0  0  0
   -0.0926    0.3015   -1.5387 H   0  0  0  0  0  0  0  0  0  0  0  0
    2.2869    1.0559   -0.8190 H   0  0  0  0  0  0  0  0  0  0  0  0
    1.5689    1.8334    0.5683 H   0  0  0  0  0  0  0  0  0  0  0  0
    1.6152    1.8578   -3.1609 H   0  0  0  0  0  0  0  0  0  0  0  0
    0.4967    3.9545    0.4323 H   0  0  0  0  0  0  0  0  0  0  0  0
    1.1662    3.8910   -4.4854 H   0  0  0  0  0  0  0  0  0  0  0  0
    0.0488    5.9858   -0.8948 H   0  0  0  0  0  0  0  0  0  0  0  0
    0.0340    6.9114   -2.9287 H   0  0  0  0  0  0  0  0  0  0  0  0
    1.8740   -0.6979    0.7343 N   0  0  0  0  0  0  0  0  0  0  0  0
    2.5019   -1.7967    1.4323 C   0  0  2  0  0  0  0  0  0  0  0  0
    1.5217   -2.3109    2.4784 C   0  0  0  0  0  0  0  0  0  0  0  0
    0.6047   -1.6288    2.9311 O   0  0  0  0  0  0  0  0  0  0  0  0
    3.8100   -1.3667    2.0779 C   0  0  0  0  0  0  0  0  0  0  0  0
    2.3926    0.1698    0.6349 H   0  0  0  0  0  0  0  0  0  0  0  0
    2.6871   -2.5793    0.6886 H   0  0  0  0  0  0  0  0  0  0  0  0
    3.6445   -0.5830    2.8261 H   0  0  0  0  0  0  0  0  0  0  0  0
    4.2986   -2.2070    2.5821 H   0  0  0  0  0  0  0  0  0  0  0  0
    4.5026   -0.9695    1.3281 H   0  0  0  0  0  0  0  0  0  0  0  0
    1.8176   -3.6064    2.8786 N   0  0  0  0  0  0  0  0  0  0  0  0
    1.0414   -4.3123    3.8712 C   0  0  0  0  0  0  0  0  0  0  0  0
    2.5853   -4.1031    2.4361 H   0  0  0  0  0  0  0  0  0  0  0  0
    1.4876   -4.1574    4.8646 H   0  0  0  0  0  0  0  0  0  0  0  0
    0.0097   -3.9306    3.8692 H   0  0  0  0  0  0  0  0  0  0  0  0
    1.0353   -5.3868    3.6356 H   0  0  0  0  0  0  0  0  0  0  0  0
 23 25  2  0  0  0  0
 22 23  1  0  0  0  0
 24 26  1  0  0  0  0
 22 24  2  0  0  0  0
 25 27  1  0  0  0  0
 26 27  2  0  0  0  0
 21 22  1  0  0  0  0
 27 28  1  0  0  0  0
  1  3  1  0  0  0  0
  1  7  1  0  0  0  0
  1  2  2  0  0  0  0
 39 40  1  0  0  0  0
 40 48  1  0  0  0  0
 40 41  2  0  0  0  0
  8  9  1  0  0  0  0
  9 17  1  0  0  0  0
  9 10  2  0  0  0  0
 18 19  1  0  0  0  0
 19 38  1  0  0  0  0
 19 20  2  0  0  0  0
 39 42  1  0  0  0  0
  8 11  1  0  0  0  0
 48 49  1  0  0  0  0
 18 21  1  0  0  0  0
 38 39  1  0  0  0  0
  7  8  1  0  0  0  0
 17 18  1  0  0  0  0
 23 33  1  0  0  0  0
 24 34  1  0  0  0  0
 25 35  1  0  0  0  0
 26 36  1  0  0  0  0
  3  4  1  0  0  0  0
  3  5  1  0  0  0  0
  3  6  1  0  0  0  0
 42 45  1  0  0  0  0
 42 46  1  0  0  0  0
 42 47  1  0  0  0  0
 11 14  1  0  0  0  0
 11 15  1  0  0  0  0
 11 16  1  0  0  0  0
 49 51  1  0  0  0  0
 49 52  1  0  0  0  0
 49 53  1  0  0  0  0
 21 31  1  0  0  0  0
 21 32  1  0  0  0  0
 39 44  1  0  0  0  0
  8 13  1  0  0  0  0
 18 30  1  0  0  0  0
 48 50  1  0  0  0  0
  7 12  1  0  0  0  0
 38 43  1  0  0  0  0
 17 29  1  0  0  0  0
 28 37  1  0  0  0  0
M  END
$$$$

  -OEChem-05262214473D

 53 53  0     1  0  0  0  0  0999 V2000
   -1.9298    0.2574    3.9747 C   0  0  0  0  0  0  0  0  0  0  0  0
   -0.9825   -0.3573    3.4990 O   0  0  0  0  0  0  0  0  0  0  0  0
   -2.3617   -0.0250    5.3754 C   0  0  0  0  0  0  0  0  0  0  0  0
   -3.1214   -0.8213    5.4288 H   0  0  0  0  0  0  0  0  0  0  0  0
   -1.5305   -0.3726    6.0097 H   0  0  0  0  0  0  0  0  0  0  0  0
   -2.7997    0.8299    5.9150 H   0  0  0  0  0  0  0  0  0  0  0  0
   -2.6795    1.2298    3.3336 N   0  0  0  0  0  0  0  0  0  0  0  0
   -2.4327    1.6559    1.9812 C   0  0  2  0  0  0  0  0  0  0  0  0
   -1.0977    1.0705    1.5400 C   0  0  0  0  0  0  0  0  0  0  0  0
   -0.2256    0.7177    2.3313 O   0  0  0  0  0  0  0  0  0  0  0  0
   -2.4239    3.1726    1.8718 C   0  0  0  0  0  0  0  0  0  0  0  0
   -3.4446    1.6657    3.8454 H   0  0  0  0  0  0  0  0  0  0  0  0
   -3.2368    1.2374    1.3661 H   0  0  0  0  0  0  0  0  0  0  0  0
   -1.6248    3.6099    2.4815 H   0  0  0  0  0  0  0  0  0  0  0  0
   -2.2644    3.4949    0.8375 H   0  0  0  0  0  0  0  0  0  0  0  0
   -3.3741    3.5939    2.2175 H   0  0  0  0  0  0  0  0  0  0  0  0
   -0.9750    1.0274    0.1566 N   0  0  0  0  0  0  0  0  0  0  0  0
    0.2023    0.5266   -0.5070 C   0  0  2  0  0  0  0  0  0  0  0  0
    0.5979   -0.7687    0.1929 C   0  0  0  0  0  0  0  0  0  0  0  0
    0.0154   -1.8349    0.0064 O   0  0  0  0  0  0  0  0  0  0  0  0
    1.3608    1.5297   -0.4662 C   0  0  0  0  0  0  0  0  0  0  0  0
    1.0856    2.7724   -1.2772 C   0  0  0  0  0  0  0  0  0  0  0  0
    1.2724    2.7589   -2.6595 C   0  0  0  0  0  0  0  0  0  0  0  0
    0.6451    3.9348   -0.6443 C   0  0  0  0  0  0  0  0  0  0  0  0
    1.0185    3.9077   -3.4088 C   0  0  0  0  0  0  0  0  0  0  0  0
    0.3913    5.0836   -1.3936 C   0  0  0  0  0  0  0  0  0  0  0  0
    0.5780    5.0700   -2.7759 C   0  0  0  0  0  0  0  0  0  0  0  0
    0.3317    6.1912   -3.5071 O   0  0  0  0  0  0  0  0  0  0  0  0
   -1.7582    1.3241   -0.4207 H   0  0  0  0  0  0  0  0  0  0  0  0
   -0.0926    0.3015   -1.5387 H   0  0  0  0  0  0  0  0  0  0  0  0
    2.2869    1.0559   -0.8190 H   0  0  0  0  0  0  0  0  0  0  0  0
    1.5689    1.8334    0.5683 H   0  0  0  0  0  0  0  0  0  0  0  0
    1.6152    1.8578   -3.1609 H   0  0  0  0  0  0  0  0  0  0  0  0
    0.4967    3.9545    0.4323 H   0  0  0  0  0  0  0  0  0  0  0  0
    1.1662    3.8910   -4.4854 H   0  0  0  0  0  0  0  0  0  0  0  0
    0.0488    5.9858   -0.8948 H   0  0  0  0  0  0  0  0  0  0  0  0
    0.0340    6.9114   -2.9287 H   0  0  0  0  0  0  0  0  0  0  0  0
    1.7076   -0.6001    1.0093 N   0  0  0  0  0  0  0  0  0  0  0  0
    2.3037   -1.6747    1.7700 C   0  0  2  0  0  0  0  0  0  0  0  0
    1.1939   -2.3773    2.5407 C   0  0  0  0  0  0  0  0  0  0  0  0
    0.1221   -1.8402    2.8126 O   0  0  0  0  0  0  0  0  0  0  0  0
    3.3766   -1.1552    2.7144 C   0  0  0  0  0  0  0  0  0  0  0  0
    2.1216    0.3251    1.0755 H   0  0  0  0  0  0  0  0  0  0  0  0
    2.7425   -2.3695    1.0456 H   0  0  0  0  0  0  0  0  0  0  0  0
    2.9558   -0.4575    3.4476 H   0  0  0  0  0  0  0  0  0  0  0  0
    3.8470   -1.9738    3.2692 H   0  0  0  0  0  0  0  0  0  0  0  0
    4.1589   -0.6243    2.1613 H   0  0  0  0  0  0  0  0  0  0  0  0
    1.5577   -3.6599    2.9267 N   0  0  0  0  0  0  0  0  0  0  0  0
    0.6810   -4.5253    3.6807 C   0  0  0  0  0  0  0  0  0  0  0  0
    2.4592   -4.0308    2.6413 H   0  0  0  0  0  0  0  0  0  0  0  0
    0.8790   -4.4021    4.7557 H   0  0  0  0  0  0  0  0  0  0  0  0
   -0.3656   -4.2619    3.4682 H   0  0  0  0  0  0  0  0  0  0  0  0
    0.8617   -5.5713    3.3922 H   0  0  0  0  0  0  0  0  0  0  0  0
 23 25  2  0  0  0  0
 22 23  1  0  0  0  0
 24 26  1  0  0  0  0
 22 24  2  0  0  0  0
 25 27  1  0  0  0  0
 26 27  2  0  0  0  0
 21 22  1  0  0  0  0
 27 28  1  0  0  0  0
  1  3  1  0  0  0  0
  1  7  1  0  0  0  0
  1  2  2  0  0  0  0
 39 40  1  0  0  0  0
 40 48  1  0  0  0  0
 40 41  2  0  0  0  0
  8  9  1  0  0  0  0
  9 17  1  0  0  0  0
  9 10  2  0  0  0  0
 18 19  1  0  0  0  0
 19 38  1  0  0  0  0
 19 20  2  0  0  0  0
 39 42  1  0  0  0  0
  8 11  1  0  0  0  0
 48 49  1  0  0  0  0
 18 21  1  0  0  0  0
 38 39  1  0  0  0  0
  7  8  1  0  0  0  0
 17 18  1  0  0  0  0
 23 33  1  0  0  0  0
 24 34  1  0  0  0  0
 25 35  1  0  0  0  0
 26 36  1  0  0  0  0
  3  4  1  0  0  0  0
  3  5  1  0  0  0  0
  3  6  1  0  0  0  0
 42 45  1  0  0  0  0
 42 46  1  0  0  0  0
 42 47  1  0  0  0  0
 11 14  1  0  0  0  0
 11 15  1  0  0  0  0
 11 16  1  0  0  0  0
 49 51  1  0  0  0  0
 49 52  1  0  0  0  0
 49 53  1  0  0  0  0
 21 31  1  0  0  0  0
 21 32  1  0  0  0  0
 39 44  1  0  0  0  0
  8 13  1  0  0  0  0
 18 30  1  0  0  0  0
 48 50  1  0  0  0  0
  7 12  1  0  0  0  0
 38 43  1  0  0  0  0
 17 29  1  0  0  0  0
 28 37  1  0  0  0  0
M  END
$$$$

  -OEChem-05262214473D

 53 53  0     1  0  0  0  0  0999 V2000
   -1.9298    0.2574    3.9747 C   0  0  0  0  0  0  0  0  0  0  0  0
   -0.9825   -0.3573    3.4990 O   0  0  0  0  0  0  0  0  0  0  0  0
   -2.3617   -0.0250    5.3754 C   0  0  0  0  0  0  0  0  0  0  0  0
   -3.1214   -0.8213    5.4288 H   0  0  0  0  0  0  0  0  0  0  0  0
   -1.5305   -0.3726    6.0097 H   0  0  0  0  0  0  0  0  0  0  0  0
   -2.7997    0.8299    5.9150 H   0  0  0  0  0  0  0  0  0  0  0  0
   -2.6795    1.2298    3.3336 N   0  0  0  0  0  0  0  0  0  0  0  0
   -2.4327    1.6559    1.9812 C   0  0  2  0  0  0  0  0  0  0  0  0
   -1.0977    1.0705    1.5400 C   0  0  0  0  0  0  0  0  0  0  0  0
   -0.2256    0.7177    2.3313 O   0  0  0  0  0  0  0  0  0  0  0  0
   -2.4239    3.1726    1.8718 C   0  0  0  0  0  0  0  0  0  0  0  0
   -3.4446    1.6657    3.8454 H   0  0  0  0  0  0  0  0  0  0  0  0
   -3.2368    1.2374    1.3661 H   0  0  0  0  0  0  0  0  0  0  0  0
   -1.6248    3.6099    2.4815 H   0  0  0  0  0  0  0  0  0  0  0  0
   -2.2644    3.4949    0.8375 H   0  0  0  0  0  0  0  0  0  0  0  0
   -3.3741    3.5939    2.2175 H   0  0  0  0  0  0  0  0  0  0  0  0
   -0.9750    1.0274    0.1566 N   0  0  0  0  0  0  0  0  0  0  0  0
    0.2023    0.5266   -0.5070 C   0  0  2  0  0  0  0  0  0  0  0  0
    0.5979   -0.7687    0.1929 C   0  0  0  0  0  0  0  0  0  0  0  0
    0.2088   -1.8746   -0.1765 O   0  0  0  0  0  0  0  0  0  0  0  0
    1.3608    1.5297   -0.4662 C   0  0  0  0  0  0  0  0  0  0  0  0
    1.0856    2.7724   -1.2772 C   0  0  0  0  0  0  0  0  0  0  0  0
    1.2724    2.7589   -2.6595 C   0  0  0  0  0  0  0  0  0  0  0  0
    0.6451    3.9348   -0.6443 C   0  0  0  0  0  0  0  0  0  0  0  0
    1.0185    3.9077   -3.4088 C   0  0  0  0  0  0  0  0  0  0  0  0
    0.3913    5.0836   -1.3936 C   0  0  0  0  0  0  0  0  0  0  0  0
    0.5780    5.0700   -2.7759 C   0  0  0  0  0  0  0  0  0  0  0  0
    0.3317    6.1912   -3.5071 O   0  0  0  0  0  0  0  0  0  0  0  0
   -1.7582    1.3241   -0.4207 H   0  0  0  0  0  0  0  0  0  0  0  0
   -0.0926    0.3015   -1.5387 H   0  0  0  0  0  0  0  0  0  0  0  0
    2.2869    1.0559   -0.8190 H   0  0  0  0  0  0  0  0  0  0  0  0
    1.5689    1.8334    0.5683 H   0  0  0  0  0  0  0  0  0  0  0  0
    1.6152    1.8578   -3.1609 H   0  0  0  0  0  0  0  0  0  0  0  0
    0.4967    3.9545    0.4323 H   0  0  0  0  0  0  0  0  0  0  0  0
    1.1662    3.8910   -4.4854 H   0  0  0  0  0  0  0  0  0  0  0  0
    0.0488    5.9858   -0.8948 H   0  0  0  0  0  0  0  0  0  0  0  0
    0.0340    6.9114   -2.9287 H   0  0  0  0  0  0  0  0  0  0  0  0
    1.4748   -0.5439    1.2450 N   0  0  0  0  0  0  0  0  0  0  0  0
    2.0236   -1.6032    2.0608 C   0  0  2  0  0  0  0  0  0  0  0  0
    0.8714   -2.4847    2.5244 C   0  0  0  0  0  0  0  0  0  0  0  0
   -0.2928   -2.0938    2.5779 O   0  0  0  0  0  0  0  0  0  0  0  0
    2.7928   -1.0452    3.2481 C   0  0  0  0  0  0  0  0  0  0  0  0
    1.7444    0.4133    1.4520 H   0  0  0  0  0  0  0  0  0  0  0  0
    2.6925   -2.1843    1.4167 H   0  0  0  0  0  0  0  0  0  0  0  0
    2.1390   -0.4599    3.9049 H   0  0  0  0  0  0  0  0  0  0  0  0
    3.2319   -1.8482    3.8492 H   0  0  0  0  0  0  0  0  0  0  0  0
    3.6026   -0.3877    2.9136 H   0  0  0  0  0  0  0  0  0  0  0  0
    1.3023   -3.7456    2.9123 N   0  0  0  0  0  0  0  0  0  0  0  0
    0.4001   -4.7611    3.4031 C   0  0  0  0  0  0  0  0  0  0  0  0
    2.2837   -3.9897    2.8165 H   0  0  0  0  0  0  0  0  0  0  0  0
    0.3443   -4.7035    4.5001 H   0  0  0  0  0  0  0  0  0  0  0  0
   -0.6007   -4.5996    2.9761 H   0  0  0  0  0  0  0  0  0  0  0  0
    0.7695   -5.7539    3.1065 H   0  0  0  0  0  0  0  0  0  0  0  0
 23 25  2  0  0  0  0
 22 23  1  0  0  0  0
 24 26  1  0  0  0  0
 22 24  2  0  0  0  0
 25 27  1  0  0  0  0
 26 27  2  0  0  0  0
 21 22  1  0  0  0  0
 27 28  1  0  0  0  0
  1  3  1  0  0  0  0
  1  7  1  0  0  0  0
  1  2  2  0  0  0  0
 39 40  1  0  0  0  0
 40 48  1  0  0  0  0
 40 41  2  0  0  0  0
  8  9  1  0  0  0  0
  9 17  1  0  0  0  0
  9 10  2  0  0  0  0
 18 19  1  0  0  0  0
 19 38  1  0  0  0  0
 19 20  2  0  0  0  0
 39 42  1  0  0  0  0
  8 11  1  0  0  0  0
 48 49  1  0  0  0  0
 18 21  1  0  0  0  0
 38 39  1  0  0  0  0
  7  8  1  0  0  0  0
 17 18  1  0  0  0  0
 23 33  1  0  0  0  0
 24 34  1  0  0  0  0
 25 35  1  0  0  0  0
 26 36  1  0  0  0  0
  3  4  1  0  0  0  0
  3  5  1  0  0  0  0
  3  6  1  0  0  0  0
 42 45  1  0  0  0  0
 42 46  1  0  0  0  0
 42 47  1  0  0  0  0
 11 14  1  0  0  0  0
 11 15  1  0  0  0  0
 11 16  1  0  0  0  0
 49 51  1  0  0  0  0
 49 52  1  0  0  0  0
 49 53  1  0  0  0  0
 21 31  1  0  0  0  0
 21 32  1  0  0  0  0
 39 44  1  0  0  0  0
  8 13  1  0  0  0  0
 18 30  1  0  0  0  0
 48 50  1  0  0  0  0
  7 12  1  0  0  0  0
 38 43  1  0  0  0  0
 17 29  1  0  0  0  0
 28 37  1  0  0  0  0
M  END
$$$$

  -OEChem-05262214473D

 53 53  0     1  0  0  0  0  0999 V2000
   -1.9298    0.2574    3.9747 C   0  0  0  0  0  0  0  0  0  0  0  0
   -0.9825   -0.3573    3.4990 O   0  0  0  0  0  0  0  0  0  0  0  0
   -2.3617   -0.0250    5.3754 C   0  0  0  0  0  0  0  0  0  0  0  0
   -3.1214   -0.8213    5.4288 H   0  0  0  0  0  0  0  0  0  0  0  0
   -1.5305   -0.3726    6.0097 H   0  0  0  0  0  0  0  0  0  0  0  0
   -2.7997    0.8299    5.9150 H   0  0  0  0  0  0  0  0  0  0  0  0
   -2.6795    1.2298    3.3336 N   0  0  0  0  0  0  0  0  0  0  0  0
   -2.4327    1.6559    1.9812 C   0  0  2  0  0  0  0  0  0  0  0  0
   -1.0977    1.0705    1.5400 C   0  0  0  0  0  0  0  0  0  0  0  0
   -0.2256    0.7177    2.3313 O   0  0  0  0  0  0  0  0  0  0  0  0
   -2.4239    3.1726    1.8718 C   0  0  0  0  0  0  0  0  0  0  0  0
   -3.4446    1.6657    3.8454 H   0  0  0  0  0  0  0  0  0  0  0  0
   -3.2368    1.2374    1.3661 H   0  0  0  0  0  0  0  0  0  0  0  0
   -1.6248    3.6099    2.4815 H   0  0  0  0  0  0  0  0  0  0  0  0
   -2.2644    3.4949    0.8375 H   0  0  0  0  0  0  0  0  0  0  0  0
   -3.3741    3.5939    2.2175 H   0  0  0  0  0  0  0  0  0  0  0  0
   -0.9750    1.0274    0.1566 N   0  0  0  0  0  0  0  0  0  0  0  0
    0.2023    0.5266   -0.5070 C   0  0  2  0  0  0  0  0  0  0  0  0
    0.5979   -0.7687    0.1929 C   0  0  0  0  0  0  0  0  0  0  0  0
    0.4407   -1.8777   -0.3133 O   0  0  0  0  0  0  0  0  0  0  0  0
    1.3608    1.5297   -0.4662 C   0  0  0  0  0  0  0  0  0  0  0  0
    1.0856    2.7724   -1.2772 C   0  0  0  0  0  0  0  0  0  0  0  0
    1.2724    2.7589   -2.6595 C   0  0  0  0  0  0  0  0  0  0  0  0
    0.6451    3.9348   -0.6443 C   0  0  0  0  0  0  0  0  0  0  0  0
    1.0185    3.9077   -3.4088 C   0  0  0  0  0  0  0  0  0  0  0  0
    0.3913    5.0836   -1.3936 C   0  0  0  0  0  0  0  0  0  0  0  0
    0.5780    5.0700   -2.7759 C   0  0  0  0  0  0  0  0  0  0  0  0
    0.3317    6.1912   -3.5071 O   0  0  0  0  0  0  0  0  0  0  0  0
   -1.7582    1.3241   -0.4207 H   0  0  0  0  0  0  0  0  0  0  0  0
   -0.0926    0.3015   -1.5387 H   0  0  0  0  0  0  0  0  0  0  0  0
    2.2869    1.0559   -0.8190 H   0  0  0  0  0  0  0  0  0  0  0  0
    1.5689    1.8334    0.5683 H   0  0  0  0  0  0  0  0  0  0  0  0
    1.6152    1.8578   -3.1609 H   0  0  0  0  0  0  0  0  0  0  0  0
    0.4967    3.9545    0.4323 H   0  0  0  0  0  0  0  0  0  0  0  0
    1.1662    3.8910   -4.4854 H   0  0  0  0  0  0  0  0  0  0  0  0
    0.0488    5.9858   -0.8948 H   0  0  0  0  0  0  0  0  0  0  0  0
    0.0340    6.9114   -2.9287 H   0  0  0  0  0  0  0  0  0  0  0  0
    1.1914   -0.5331    1.4252 N   0  0  0  0  0  0  0  0  0  0  0  0
    1.6805   -1.5869    2.2849 C   0  0  2  0  0  0  0  0  0  0  0  0
    0.5762   -2.6256    2.4305 C   0  0  0  0  0  0  0  0  0  0  0  0
   -0.6119   -2.3723    2.2428 O   0  0  0  0  0  0  0  0  0  0  0  0
    2.0986   -1.0441    3.6426 C   0  0  0  0  0  0  0  0  0  0  0  0
    1.2869    0.4284    1.7386 H   0  0  0  0  0  0  0  0  0  0  0  0
    2.5406   -2.0362    1.7766 H   0  0  0  0  0  0  0  0  0  0  0  0
    1.2498   -0.5900    4.1669 H   0  0  0  0  0  0  0  0  0  0  0  0
    2.4954   -1.8390    4.2826 H   0  0  0  0  0  0  0  0  0  0  0  0
    2.8717   -0.2758    3.5339 H   0  0  0  0  0  0  0  0  0  0  0  0
    1.0690   -3.8578    2.8366 N   0  0  0  0  0  0  0  0  0  0  0  0
    0.2179   -5.0036    3.0573 C   0  0  0  0  0  0  0  0  0  0  0  0
    2.0707   -3.9826    2.9500 H   0  0  0  0  0  0  0  0  0  0  0  0
   -0.0803   -5.0410    4.1155 H   0  0  0  0  0  0  0  0  0  0  0  0
   -0.6794   -4.9206    2.4264 H   0  0  0  0  0  0  0  0  0  0  0  0
    0.7649   -5.9220    2.7979 H   0  0  0  0  0  0  0  0  0  0  0  0
 23 25  2  0  0  0  0
 22 23  1  0  0  0  0
 24 26  1  0  0  0  0
 22 24  2  0  0  0  0
 25 27  1  0  0  0  0
 26 27  2  0  0  0  0
 21 22  1  0  0  0  0
 27 28  1  0  0  0  0
  1  3  1  0  0  0  0
  1  7  1  0  0  0  0
  1  2  2  0  0  0  0
 39 40  1  0  0  0  0
 40 48  1  0  0  0  0
 40 41  2  0  0  0  0
  8  9  1  0  0  0  0
  9 17  1  0  0  0  0
  9 10  2  0  0  0  0
 18 19  1  0  0  0  0
 19 38  1  0  0  0  0
 19 20  2  0  0  0  0
 39 42  1  0  0  0  0
  8 11  1  0  0  0  0
 48 49  1  0  0  0  0
 18 21  1  0  0  0  0
 38 39  1  0  0  0  0
  7  8  1  0  0  0  0
 17 18  1  0  0  0  0
 23 33  1  0  0  0  0
 24 34  1  0  0  0  0
 25 35  1  0  0  0  0
 26 36  1  0  0  0  0
  3  4  1  0  0  0  0
  3  5  1  0  0  0  0
  3  6  1  0  0  0  0
 42 45  1  0  0  0  0
 42 46  1  0  0  0  0
 42 47  1  0  0  0  0
 11 14  1  0  0  0  0
 11 15  1  0  0  0  0
 11 16  1  0  0  0  0
 49 51  1  0  0  0  0
 49 52  1  0  0  0  0
 49 53  1  0  0  0  0
 21 31  1  0  0  0  0
 21 32  1  0  0  0  0
 39 44  1  0  0  0  0
  8 13  1  0  0  0  0
 18 30  1  0  0  0  0
 48 50  1  0  0  0  0
  7 12  1  0  0  0  0
 38 43  1  0  0  0  0
 17 29  1  0  0  0  0
 28 37  1  0  0  0  0
M  END
$$$$

  -OEChem-05262214473D

 53 53  0     1  0  0  0  0  0999 V2000
   -1.9298    0.2574    3.9747 C   0  0  0  0  0  0  0  0  0  0  0  0
   -0.9825   -0.3573    3.4990 O   0  0  0  0  0  0  0  0  0  0  0  0
   -2.3617   -0.0250    5.3754 C   0  0  0  0  0  0  0  0  0  0  0  0
   -3.1214   -0.8213    5.4288 H   0  0  0  0  0  0  0  0  0  0  0  0
   -1.5305   -0.3726    6.0097 H   0  0  0  0  0  0  0  0  0  0  0  0
   -2.7997    0.8299    5.9150 H   0  0  0  0  0  0  0  0  0  0  0  0
   -2.6795    1.2298    3.3336 N   0  0  0  0  0  0  0  0  0  0  0  0
   -2.4327    1.6559    1.9812 C   0  0  2  0  0  0  0  0  0  0  0  0
   -1.0977    1.0705    1.5400 C   0  0  0  0  0  0  0  0  0  0  0  0
   -0.2256    0.7177    2.3313 O   0  0  0  0  0  0  0  0  0  0  0  0
   -2.4239    3.1726    1.8718 C   0  0  0  0  0  0  0  0  0  0  0  0
   -3.4446    1.6657    3.8454 H   0  0  0  0  0  0  0  0  0  0  0  0
   -3.2368    1.2374    1.3661 H   0  0  0  0  0  0  0  0  0  0  0  0
   -1.6248    3.6099    2.4815 H   0  0  0  0  0  0  0  0  0  0  0  0
   -2.2644    3.4949    0.8375 H   0  0  0  0  0  0  0  0  0  0  0  0
   -3.3741    3.5939    2.2175 H   0  0  0  0  0  0  0  0  0  0  0  0
   -0.9750    1.0274    0.1566 N   0  0  0  0  0  0  0  0  0  0  0  0
    0.2023    0.5266   -0.5070 C   0  0  2  0  0  0  0  0  0  0  0  0
    0.5979   -0.7687    0.1929 C   0  0  0  0  0  0  0  0  0  0  0  0
    0.6950   -1.8440   -0.3947 O   0  0  0  0  0  0  0  0  0  0  0  0
    1.3608    1.5297   -0.4662 C   0  0  0  0  0  0  0  0  0  0  0  0
    1.0856    2.7724   -1.2772 C   0  0  0  0  0  0  0  0  0  0  0  0
    1.2724    2.7589   -2.6595 C   0  0  0  0  0  0  0  0  0  0  0  0
    0.6451    3.9348   -0.6443 C   0  0  0  0  0  0  0  0  0  0  0  0
    1.0185    3.9077   -3.4088 C   0  0  0  0  0  0  0  0  0  0  0  0
    0.3913    5.0836   -1.3936 C   0  0  0  0  0  0  0  0  0  0  0  0
    0.5780    5.0700   -2.7759 C   0  0  0  0  0  0  0  0  0  0  0  0
    0.3317    6.1912   -3.5071 O   0  0  0  0  0  0  0  0  0  0  0  0
   -1.7582    1.3241   -0.4207 H   0  0  0  0  0  0  0  0  0  0  0  0
   -0.0926    0.3015   -1.5387 H   0  0  0  0  0  0  0  0  0  0  0  0
    2.2869    1.0559   -0.8190 H   0  0  0  0  0  0  0  0  0  0  0  0
    1.5689    1.8334    0.5683 H   0  0  0  0  0  0  0  0  0  0  0  0
    1.6152    1.8578   -3.1609 H   0  0  0  0  0  0  0  0  0  0  0  0
    0.4967    3.9545    0.4323 H   0  0  0  0  0  0  0  0  0  0  0  0
    1.1662    3.8910   -4.4854 H   0  0  0  0  0  0  0  0  0  0  0  0
    0.0488    5.9858   -0.8948 H   0  0  0  0  0  0  0  0  0  0  0  0
    0.0340    6.9114   -2.9287 H   0  0  0  0  0  0  0  0  0  0  0  0
    0.8768   -0.5684    1.5377 N   0  0  0  0  0  0  0  0  0  0  0  0
    1.2979   -1.6270    2.4270 C   0  0  2  0  0  0  0  0  0  0  0  0
    0.3285   -2.7904    2.2654 C   0  0  0  0  0  0  0  0  0  0  0  0
   -0.8134   -2.6567    1.8303 O   0  0  0  0  0  0  0  0  0  0  0  0
    1.3410   -1.1520    3.8711 C   0  0  0  0  0  0  0  0  0  0  0  0
    0.7801    0.3694    1.9158 H   0  0  0  0  0  0  0  0  0  0  0  0
    2.2971   -1.9354    2.1008 H   0  0  0  0  0  0  0  0  0  0  0  0
    0.3487   -0.8388    4.2157 H   0  0  0  0  0  0  0  0  0  0  0  0
    1.6876   -1.9467    4.5399 H   0  0  0  0  0  0  0  0  0  0  0  0
    2.0160   -0.2962    3.9799 H   0  0  0  0  0  0  0  0  0  0  0  0
    0.8737   -3.9888    2.7046 N   0  0  0  0  0  0  0  0  0  0  0  0
    0.1467   -5.2362    2.6670 C   0  0  0  0  0  0  0  0  0  0  0  0
    1.8348   -4.0101    3.0325 H   0  0  0  0  0  0  0  0  0  0  0  0
   -0.3657   -5.3917    3.6279 H   0  0  0  0  0  0  0  0  0  0  0  0
   -0.5964   -5.2032    1.8566 H   0  0  0  0  0  0  0  0  0  0  0  0
    0.8483   -6.0642    2.4876 H   0  0  0  0  0  0  0  0  0  0  0  0
 23 25  2  0  0  0  0
 22 23  1  0  0  0  0
 24 26  1  0  0  0  0
 22 24  2  0  0  0  0
 25 27  1  0  0  0  0
 26 27  2  0  0  0  0
 21 22  1  0  0  0  0
 27 28  1  0  0  0  0
  1  3  1  0  0  0  0
  1  7  1  0  0  0  0
  1  2  2  0  0  0  0
 39 40  1  0  0  0  0
 40 48  1  0  0  0  0
 40 41  2  0  0  0  0
  8  9  1  0  0  0  0
  9 17  1  0  0  0  0
  9 10  2  0  0  0  0
 18 19  1  0  0  0  0
 19 38  1  0  0  0  0
 19 20  2  0  0  0  0
 39 42  1  0  0  0  0
  8 11  1  0  0  0  0
 48 49  1  0  0  0  0
 18 21  1  0  0  0  0
 38 39  1  0  0  0  0
  7  8  1  0  0  0  0
 17 18  1  0  0  0  0
 23 33  1  0  0  0  0
 24 34  1  0  0  0  0
 25 35  1  0  0  0  0
 26 36  1  0  0  0  0
  3  4  1  0  0  0  0
  3  5  1  0  0  0  0
  3  6  1  0  0  0  0
 42 45  1  0  0  0  0
 42 46  1  0  0  0  0
 42 47  1  0  0  0  0
 11 14  1  0  0  0  0
 11 15  1  0  0  0  0
 11 16  1  0  0  0  0
 49 51  1  0  0  0  0
 49 52  1  0  0  0  0
 49 53  1  0  0  0  0
 21 31  1  0  0  0  0
 21 32  1  0  0  0  0
 39 44  1  0  0  0  0
  8 13  1  0  0  0  0
 18 30  1  0  0  0  0
 48 50  1  0  0  0  0
  7 12  1  0  0  0  0
 38 43  1  0  0  0  0
 17 29  1  0  0  0  0
 28 37  1  0  0  0  0
M  END
$$$$

  -OEChem-05262214473D

 53 53  0     1  0  0  0  0  0999 V2000
   -1.9298    0.2574    3.9747 C   0  0  0  0  0  0  0  0  0  0  0  0
   -0.9825   -0.3573    3.4990 O   0  0  0  0  0  0  0  0  0  0  0  0
   -2.3617   -0.0250    5.3754 C   0  0  0  0  0  0  0  0  0  0  0  0
   -3.1214   -0.8213    5.4288 H   0  0  0  0  0  0  0  0  0  0  0  0
   -1.5305   -0.3726    6.0097 H   0  0  0  0  0  0  0  0  0  0  0  0
   -2.7997    0.8299    5.9150 H   0  0  0  0  0  0  0  0  0  0  0  0
   -2.6795    1.2298    3.3336 N   0  0  0  0  0  0  0  0  0  0  0  0
   -2.4327    1.6559    1.9812 C   0  0  2  0  0  0  0  0  0  0  0  0
   -1.0977    1.0705    1.5400 C   0  0  0  0  0  0  0  0  0  0  0  0
   -0.2256    0.7177    2.3313 O   0  0  0  0  0  0  0  0  0  0  0  0
   -2.4239    3.1726    1.8718 C   0  0  0  0  0  0  0  0  0  0  0  0
   -3.4446    1.6657    3.8454 H   0  0  0  0  0  0  0  0  0  0  0  0
   -3.2368    1.2374    1.3661 H   0  0  0  0  0  0  0  0  0  0  0  0
   -1.6248    3.6099    2.4815 H   0  0  0  0  0  0  0  0  0  0  0  0
   -2.2644    3.4949    0.8375 H   0  0  0  0  0  0  0  0  0  0  0  0
   -3.3741    3.5939    2.2175 H   0  0  0  0  0  0  0  0  0  0  0  0
   -0.9750    1.0274    0.1566 N   0  0  0  0  0  0  0  0  0  0  0  0
    0.2023    0.5266   -0.5070 C   0  0  2  0  0  0  0  0  0  0  0  0
    0.5979   -0.7687    0.1929 C   0  0  0  0  0  0  0  0  0  0  0  0
    0.9546   -1.7757   -0.4151 O   0  0  0  0  0  0  0  0  0  0  0  0
    1.3608    1.5297   -0.4662 C   0  0  0  0  0  0  0  0  0  0  0  0
    1.0856    2.7724   -1.2772 C   0  0  0  0  0  0  0  0  0  0  0  0
    1.2724    2.7589   -2.6595 C   0  0  0  0  0  0  0  0  0  0  0  0
    0.6451    3.9348   -0.6443 C   0  0  0  0  0  0  0  0  0  0  0  0
    1.0185    3.9077   -3.4088 C   0  0  0  0  0  0  0  0  0  0  0  0
    0.3913    5.0836   -1.3936 C   0  0  0  0  0  0  0  0  0  0  0  0
    0.5780    5.0700   -2.7759 C   0  0  0  0  0  0  0  0  0  0  0  0
    0.3317    6.1912   -3.5071 O   0  0  0  0  0  0  0  0  0  0  0  0
   -1.7582    1.3241   -0.4207 H   0  0  0  0  0  0  0  0  0  0  0  0
   -0.0926    0.3015   -1.5387 H   0  0  0  0  0  0  0  0  0  0  0  0
    2.2869    1.0559   -0.8190 H   0  0  0  0  0  0  0  0  0  0  0  0
    1.5689    1.8334    0.5683 H   0  0  0  0  0  0  0  0  0  0  0  0
    1.6152    1.8578   -3.1609 H   0  0  0  0  0  0  0  0  0  0  0  0
    0.4967    3.9545    0.4323 H   0  0  0  0  0  0  0  0  0  0  0  0
    1.1662    3.8910   -4.4854 H   0  0  0  0  0  0  0  0  0  0  0  0
    0.0488    5.9858   -0.8948 H   0  0  0  0  0  0  0  0  0  0  0  0
    0.0340    6.9114   -2.9287 H   0  0  0  0  0  0  0  0  0  0  0  0
    0.5524   -0.6475    1.5748 N   0  0  0  0  0  0  0  0  0  0  0  0
    0.9018   -1.7207    2.4775 C   0  0  2  0  0  0  0  0  0  0  0  0
    0.1451   -2.9680    2.0404 C   0  0  0  0  0  0  0  0  0  0  0  0
   -0.8835   -2.9276    1.3685 O   0  0  0  0  0  0  0  0  0  0  0  0
    0.5719   -1.3616    3.9179 C   0  0  0  0  0  0  0  0  0  0  0  0
    0.2587    0.2402    1.9716 H   0  0  0  0  0  0  0  0  0  0  0  0
    1.9787   -1.8887    2.3672 H   0  0  0  0  0  0  0  0  0  0  0  0
   -0.5028   -1.1896    4.0479 H   0  0  0  0  0  0  0  0  0  0  0  0
    0.8635   -2.1641    4.6036 H   0  0  0  0  0  0  0  0  0  0  0  0
    1.0939   -0.4476    4.2211 H   0  0  0  0  0  0  0  0  0  0  0  0
    0.7296   -4.1297    2.5253 N   0  0  0  0  0  0  0  0  0  0  0  0
    0.1913   -5.4432    2.2587 C   0  0  0  0  0  0  0  0  0  0  0  0
    1.5921   -4.0702    3.0585 H   0  0  0  0  0  0  0  0  0  0  0  0
   -0.4925   -5.7315    3.0706 H   0  0  0  0  0  0  0  0  0  0  0  0
   -0.3573   -5.4279    1.3054 H   0  0  0  0  0  0  0  0  0  0  0  0
    1.0140   -6.1707    2.1967 H   0  0  0  0  0  0  0  0  0  0  0  0
 23 25  2  0  0  0  0
 22 23  1  0  0  0  0
 24 26  1  0  0  0  0
 22 24  2  0  0  0  0
 25 27  1  0  0  0  0
 26 27  2  0  0  0  0
 21 22  1  0  0  0  0
 27 28  1  0  0  0  0
  1  3  1  0  0  0  0
  1  7  1  0  0  0  0
  1  2  2  0  0  0  0
 39 40  1  0  0  0  0
 40 48  1  0  0  0  0
 40 41  2  0  0  0  0
  8  9  1  0  0  0  0
  9 17  1  0  0  0  0
  9 10  2  0  0  0  0
 18 19  1  0  0  0  0
 19 38  1  0  0  0  0
 19 20  2  0  0  0  0
 39 42  1  0  0  0  0
  8 11  1  0  0  0  0
 48 49  1  0  0  0  0
 18 21  1  0  0  0  0
 38 39  1  0  0  0  0
  7  8  1  0  0  0  0
 17 18  1  0  0  0  0
 23 33  1  0  0  0  0
 24 34  1  0  0  0  0
 25 35  1  0  0  0  0
 26 36  1  0  0  0  0
  3  4  1  0  0  0  0
  3  5  1  0  0  0  0
  3  6  1  0  0  0  0
 42 45  1  0  0  0  0
 42 46  1  0  0  0  0
 42 47  1  0  0  0  0
 11 14  1  0  0  0  0
 11 15  1  0  0  0  0
 11 16  1  0  0  0  0
 49 51  1  0  0  0  0
 49 52  1  0  0  0  0
 49 53  1  0  0  0  0
 21 31  1  0  0  0  0
 21 32  1  0  0  0  0
 39 44  1  0  0  0  0
  8 13  1  0  0  0  0
 18 30  1  0  0  0  0
 48 50  1  0  0  0  0
  7 12  1  0  0  0  0
 38 43  1  0  0  0  0
 17 29  1  0  0  0  0
 28 37  1  0  0  0  0
M  END
$$$$

  -OEChem-05262214473D

 53 53  0     1  0  0  0  0  0999 V2000
   -1.9298    0.2574    3.9747 C   0  0  0  0  0  0  0  0  0  0  0  0
   -0.9825   -0.3573    3.4990 O   0  0  0  0  0  0  0  0  0  0  0  0
   -2.3617   -0.0250    5.3754 C   0  0  0  0  0  0  0  0  0  0  0  0
   -3.1214   -0.8213    5.4288 H   0  0  0  0  0  0  0  0  0  0  0  0
   -1.5305   -0.3726    6.0097 H   0  0  0  0  0  0  0  0  0  0  0  0
   -2.7997    0.8299    5.9150 H   0  0  0  0  0  0  0  0  0  0  0  0
   -2.6795    1.2298    3.3336 N   0  0  0  0  0  0  0  0  0  0  0  0
   -2.4327    1.6559    1.9812 C   0  0  2  0  0  0  0  0  0  0  0  0
   -1.0977    1.0705    1.5400 C   0  0  0  0  0  0  0  0  0  0  0  0
   -0.2256    0.7177    2.3313 O   0  0  0  0  0  0  0  0  0  0  0  0
   -2.4239    3.1726    1.8718 C   0  0  0  0  0  0  0  0  0  0  0  0
   -3.4446    1.6657    3.8454 H   0  0  0  0  0  0  0  0  0  0  0  0
   -3.2368    1.2374    1.3661 H   0  0  0  0  0  0  0  0  0  0  0  0
   -1.6248    3.6099    2.4815 H   0  0  0  0  0  0  0  0  0  0  0  0
   -2.2644    3.4949    0.8375 H   0  0  0  0  0  0  0  0  0  0  0  0
   -3.3741    3.5939    2.2175 H   0  0  0  0  0  0  0  0  0  0  0  0
   -0.9750    1.0274    0.1566 N   0  0  0  0  0  0  0  0  0  0  0  0
    0.2023    0.5266   -0.5070 C   0  0  2  0  0  0  0  0  0  0  0  0
    0.5979   -0.7687    0.1929 C   0  0  0  0  0  0  0  0  0  0  0  0
    1.2017   -1.6776   -0.3731 O   0  0  0  0  0  0  0  0  0  0  0  0
    1.3608    1.5297   -0.4662 C   0  0  0  0  0  0  0  0  0  0  0  0
    1.0856    2.7724   -1.2772 C   0  0  0  0  0  0  0  0  0  0  0  0
    1.2724    2.7589   -2.6595 C   0  0  0  0  0  0  0  0  0  0  0  0
    0.6451    3.9348   -0.6443 C   0  0  0  0  0  0  0  0  0  0  0  0
    1.0185    3.9077   -3.4088 C   0  0  0  0  0  0  0  0  0  0  0  0
    0.3913    5.0836   -1.3936 C   0  0  0  0  0  0  0  0  0  0  0  0
    0.5780    5.0700   -2.7759 C   0  0  0  0  0  0  0  0  0  0  0  0
    0.3317    6.1912   -3.5071 O   0  0  0  0  0  0  0  0  0  0  0  0
   -1.7582    1.3241   -0.4207 H   0  0  0  0  0  0  0  0  0  0  0  0
   -0.0926    0.3015   -1.5387 H   0  0  0  0  0  0  0  0  0  0  0  0
    2.2869    1.0559   -0.8190 H   0  0  0  0  0  0  0  0  0  0  0  0
    1.5689    1.8334    0.5683 H   0  0  0  0  0  0  0  0  0  0  0  0
    1.6152    1.8578   -3.1609 H   0  0  0  0  0  0  0  0  0  0  0  0
    0.4967    3.9545    0.4323 H   0  0  0  0  0  0  0  0  0  0  0  0
    1.1662    3.8910   -4.4854 H   0  0  0  0  0  0  0  0  0  0  0  0
    0.0488    5.9858   -0.8948 H   0  0  0  0  0  0  0  0  0  0  0  0
    0.0340    6.9114   -2.9287 H   0  0  0  0  0  0  0  0  0  0  0  0
    0.2402   -0.7649    1.5339 N   0  0  0  0  0  0  0  0  0  0  0  0
    0.5193   -1.8617    2.4328 C   0  0  2  0  0  0  0  0  0  0  0  0
    0.0386   -3.1462    1.7708 C   0  0  0  0  0  0  0  0  0  0  0  0
   -0.8174   -3.1666    0.8888 O   0  0  0  0  0  0  0  0  0  0  0  0
   -0.1564   -1.6586    3.7800 C   0  0  0  0  0  0  0  0  0  0  0  0
   -0.2419    0.0498    1.9022 H   0  0  0  0  0  0  0  0  0  0  0  0
    1.6070   -1.8994    2.5576 H   0  0  0  0  0  0  0  0  0  0  0  0
   -1.2467   -1.6183    3.6750 H   0  0  0  0  0  0  0  0  0  0  0  0
    0.0793   -2.4762    4.4693 H   0  0  0  0  0  0  0  0  0  0  0  0
    0.1681   -0.7195    4.2411 H   0  0  0  0  0  0  0  0  0  0  0  0
    0.6466   -4.2709    2.3109 N   0  0  0  0  0  0  0  0  0  0  0  0
    0.3489   -5.6104    1.8602 C   0  0  0  0  0  0  0  0  0  0  0  0
    1.3590   -4.1588    3.0262 H   0  0  0  0  0  0  0  0  0  0  0  0
   -0.4520   -6.0374    2.4816 H   0  0  0  0  0  0  0  0  0  0  0  0
    0.0215   -5.5796    0.8105 H   0  0  0  0  0  0  0  0  0  0  0  0
    1.2507   -6.2345    1.9449 H   0  0  0  0  0  0  0  0  0  0  0  0
 23 25  2  0  0  0  0
 22 23  1  0  0  0  0
 24 26  1  0  0  0  0
 22 24  2  0  0  0  0
 25 27  1  0  0  0  0
 26 27  2  0  0  0  0
 21 22  1  0  0  0  0
 27 28  1  0  0  0  0
  1  3  1  0  0  0  0
  1  7  1  0  0  0  0
  1  2  2  0  0  0  0
 39 40  1  0  0  0  0
 40 48  1  0  0  0  0
 40 41  2  0  0  0  0
  8  9  1  0  0  0  0
  9 17  1  0  0  0  0
  9 10  2  0  0  0  0
 18 19  1  0  0  0  0
 19 38  1  0  0  0  0
 19 20  2  0  0  0  0
 39 42  1  0  0  0  0
  8 11  1  0  0  0  0
 48 49  1  0  0  0  0
 18 21  1  0  0  0  0
 38 39  1  0  0  0  0
  7  8  1  0  0  0  0
 17 18  1  0  0  0  0
 23 33  1  0  0  0  0
 24 34  1  0  0  0  0
 25 35  1  0  0  0  0
 26 36  1  0  0  0  0
  3  4  1  0  0  0  0
  3  5  1  0  0  0  0
  3  6  1  0  0  0  0
 42 45  1  0  0  0  0
 42 46  1  0  0  0  0
 42 47  1  0  0  0  0
 11 14  1  0  0  0  0
 11 15  1  0  0  0  0
 11 16  1  0  0  0  0
 49 51  1  0  0  0  0
 49 52  1  0  0  0  0
 49 53  1  0  0  0  0
 21 31  1  0  0  0  0
 21 32  1  0  0  0  0
 39 44  1  0  0  0  0
  8 13  1  0  0  0  0
 18 30  1  0  0  0  0
 48 50  1  0  0  0  0
  7 12  1  0  0  0  0
 38 43  1  0  0  0  0
 17 29  1  0  0  0  0
 28 37  1  0  0  0  0
M  END
$$$$

  -OEChem-05262214473D

 53 53  0     1  0  0  0  0  0999 V2000
   -1.9298    0.2574    3.9747 C   0  0  0  0  0  0  0  0  0  0  0  0
   -0.9825   -0.3573    3.4990 O   0  0  0  0  0  0  0  0  0  0  0  0
   -2.3617   -0.0250    5.3754 C   0  0  0  0  0  0  0  0  0  0  0  0
   -3.1214   -0.8213    5.4288 H   0  0  0  0  0  0  0  0  0  0  0  0
   -1.5305   -0.3726    6.0097 H   0  0  0  0  0  0  0  0  0  0  0  0
   -2.7997    0.8299    5.9150 H   0  0  0  0  0  0  0  0  0  0  0  0
   -2.6795    1.2298    3.3336 N   0  0  0  0  0  0  0  0  0  0  0  0
   -2.4327    1.6559    1.9812 C   0  0  2  0  0  0  0  0  0  0  0  0
   -1.0977    1.0705    1.5400 C   0  0  0  0  0  0  0  0  0  0  0  0
   -0.2256    0.7177    2.3313 O   0  0  0  0  0  0  0  0  0  0  0  0
   -2.4239    3.1726    1.8718 C   0  0  0  0  0  0  0  0  0  0  0  0
   -3.4446    1.6657    3.8454 H   0  0  0  0  0  0  0  0  0  0  0  0
   -3.2368    1.2374    1.3661 H   0  0  0  0  0  0  0  0  0  0  0  0
   -1.6248    3.6099    2.4815 H   0  0  0  0  0  0  0  0  0  0  0  0
   -2.2644    3.4949    0.8375 H   0  0  0  0  0  0  0  0  0  0  0  0
   -3.3741    3.5939    2.2175 H   0  0  0  0  0  0  0  0  0  0  0  0
   -0.9750    1.0274    0.1566 N   0  0  0  0  0  0  0  0  0  0  0  0
    0.2023    0.5266   -0.5070 C   0  0  2  0  0  0  0  0  0  0  0  0
    0.5979   -0.7687    0.1929 C   0  0  0  0  0  0  0  0  0  0  0  0
    1.4195   -1.5562   -0.2716 O   0  0  0  0  0  0  0  0  0  0  0  0
    1.3608    1.5297   -0.4662 C   0  0  0  0  0  0  0  0  0  0  0  0
    1.0856    2.7724   -1.2772 C   0  0  0  0  0  0  0  0  0  0  0  0
    1.2724    2.7589   -2.6595 C   0  0  0  0  0  0  0  0  0  0  0  0
    0.6451    3.9348   -0.6443 C   0  0  0  0  0  0  0  0  0  0  0  0
    1.0185    3.9077   -3.4088 C   0  0  0  0  0  0  0  0  0  0  0  0
    0.3913    5.0836   -1.3936 C   0  0  0  0  0  0  0  0  0  0  0  0
    0.5780    5.0700   -2.7759 C   0  0  0  0  0  0  0  0  0  0  0  0
    0.3317    6.1912   -3.5071 O   0  0  0  0  0  0  0  0  0  0  0  0
   -1.7582    1.3241   -0.4207 H   0  0  0  0  0  0  0  0  0  0  0  0
   -0.0926    0.3015   -1.5387 H   0  0  0  0  0  0  0  0  0  0  0  0
    2.2869    1.0559   -0.8190 H   0  0  0  0  0  0  0  0  0  0  0  0
    1.5689    1.8334    0.5683 H   0  0  0  0  0  0  0  0  0  0  0  0
    1.6152    1.8578   -3.1609 H   0  0  0  0  0  0  0  0  0  0  0  0
    0.4967    3.9545    0.4323 H   0  0  0  0  0  0  0  0  0  0  0  0
    1.1662    3.8910   -4.4854 H   0  0  0  0  0  0  0  0  0  0  0  0
    0.0488    5.9858   -0.8948 H   0  0  0  0  0  0  0  0  0  0  0  0
    0.0340    6.9114   -2.9287 H   0  0  0  0  0  0  0  0  0  0  0  0
   -0.0383   -0.9126    1.4180 N   0  0  0  0  0  0  0  0  0  0  0  0
    0.1764   -2.0403    2.2961 C   0  0  2  0  0  0  0  0  0  0  0  0
    0.0161   -3.3129    1.4750 C   0  0  0  0  0  0  0  0  0  0  0  0
   -0.6197   -3.3574    0.4239 O   0  0  0  0  0  0  0  0  0  0  0  0
   -0.7943   -2.0228    3.4666 C   0  0  0  0  0  0  0  0  0  0  0  0
   -0.6876   -0.1890    1.7122 H   0  0  0  0  0  0  0  0  0  0  0  0
    1.2073   -1.9666    2.6591 H   0  0  0  0  0  0  0  0  0  0  0  0
   -1.8324   -2.0957    3.1225 H   0  0  0  0  0  0  0  0  0  0  0  0
   -0.6116   -2.8618    4.1461 H   0  0  0  0  0  0  0  0  0  0  0  0
   -0.6983   -1.0936    4.0386 H   0  0  0  0  0  0  0  0  0  0  0  0
    0.6303   -4.4027    2.0762 N   0  0  0  0  0  0  0  0  0  0  0  0
    0.6086   -5.7264    1.4988 C   0  0  0  0  0  0  0  0  0  0  0  0
    1.1515   -4.2700    2.9378 H   0  0  0  0  0  0  0  0  0  0  0  0
   -0.2471   -6.2885    1.9011 H   0  0  0  0  0  0  0  0  0  0  0  0
    0.5143   -5.6479    0.4056 H   0  0  0  0  0  0  0  0  0  0  0  0
    1.5423   -6.2510    1.7495 H   0  0  0  0  0  0  0  0  0  0  0  0
 23 25  2  0  0  0  0
 22 23  1  0  0  0  0
 24 26  1  0  0  0  0
 22 24  2  0  0  0  0
 25 27  1  0  0  0  0
 26 27  2  0  0  0  0
 21 22  1  0  0  0  0
 27 28  1  0  0  0  0
  1  3  1  0  0  0  0
  1  7  1  0  0  0  0
  1  2  2  0  0  0  0
 39 40  1  0  0  0  0
 40 48  1  0  0  0  0
 40 41  2  0  0  0  0
  8  9  1  0  0  0  0
  9 17  1  0  0  0  0
  9 10  2  0  0  0  0
 18 19  1  0  0  0  0
 19 38  1  0  0  0  0
 19 20  2  0  0  0  0
 39 42  1  0  0  0  0
  8 11  1  0  0  0  0
 48 49  1  0  0  0  0
 18 21  1  0  0  0  0
 38 39  1  0  0  0  0
  7  8  1  0  0  0  0
 17 18  1  0  0  0  0
 23 33  1  0  0  0  0
 24 34  1  0  0  0  0
 25 35  1  0  0  0  0
 26 36  1  0  0  0  0
  3  4  1  0  0  0  0
  3  5  1  0  0  0  0
  3  6  1  0  0  0  0
 42 45  1  0  0  0  0
 42 46  1  0  0  0  0
 42 47  1  0  0  0  0
 11 14  1  0  0  0  0
 11 15  1  0  0  0  0
 11 16  1  0  0  0  0
 49 51  1  0  0  0  0
 49 52  1  0  0  0  0
 49 53  1  0  0  0  0
 21 31  1  0  0  0  0
 21 32  1  0  0  0  0
 39 44  1  0  0  0  0
  8 13  1  0  0  0  0
 18 30  1  0  0  0  0
 48 50  1  0  0  0  0
  7 12  1  0  0  0  0
 38 43  1  0  0  0  0
 17 29  1  0  0  0  0
 28 37  1  0  0  0  0
M  END
$$$$

  -OEChem-05262214473D

 53 53  0     1  0  0  0  0  0999 V2000
   -1.9298    0.2574    3.9747 C   0  0  0  0  0  0  0  0  0  0  0  0
   -0.9825   -0.3573    3.4990 O   0  0  0  0  0  0  0  0  0  0  0  0
   -2.3617   -0.0250    5.3754 C   0  0  0  0  0  0  0  0  0  0  0  0
   -3.1214   -0.8213    5.4288 H   0  0  0  0  0  0  0  0  0  0  0  0
   -1.5305   -0.3726    6.0097 H   0  0  0  0  0  0  0  0  0  0  0  0
   -2.7997    0.8299    5.9150 H   0  0  0  0  0  0  0  0  0  0  0  0
   -2.6795    1.2298    3.3336 N   0  0  0  0  0  0  0  0  0  0  0  0
   -2.4327    1.6559    1.9812 C   0  0  2  0  0  0  0  0  0  0  0  0
   -1.0977    1.0705    1.5400 C   0  0  0  0  0  0  0  0  0  0  0  0
   -0.2256    0.7177    2.3313 O   0  0  0  0  0  0  0  0  0  0  0  0
   -2.4239    3.1726    1.8718 C   0  0  0  0  0  0  0  0  0  0  0  0
   -3.4446    1.6657    3.8454 H   0  0  0  0  0  0  0  0  0  0  0  0
   -3.2368    1.2374    1.3661 H   0  0  0  0  0  0  0  0  0  0  0  0
   -1.6248    3.6099    2.4815 H   0  0  0  0  0  0  0  0  0  0  0  0
   -2.2644    3.4949    0.8375 H   0  0  0  0  0  0  0  0  0  0  0  0
   -3.3741    3.5939    2.2175 H   0  0  0  0  0  0  0  0  0  0  0  0
   -0.9750    1.0274    0.1566 N   0  0  0  0  0  0  0  0  0  0  0  0
    0.2023    0.5266   -0.5070 C   0  0  2  0  0  0  0  0  0  0  0  0
    0.5979   -0.7687    0.1929 C   0  0  0  0  0  0  0  0  0  0  0  0
    1.5931   -1.4200   -0.1176 O   0  0  0  0  0  0  0  0  0  0  0  0
    1.3608    1.5297   -0.4662 C   0  0  0  0  0  0  0  0  0  0  0  0
    1.0856    2.7724   -1.2772 C   0  0  0  0  0  0  0  0  0  0  0  0
    1.2724    2.7589   -2.6595 C   0  0  0  0  0  0  0  0  0  0  0  0
    0.6451    3.9348   -0.6443 C   0  0  0  0  0  0  0  0  0  0  0  0
    1.0185    3.9077   -3.4088 C   0  0  0  0  0  0  0  0  0  0  0  0
    0.3913    5.0836   -1.3936 C   0  0  0  0  0  0  0  0  0  0  0  0
    0.5780    5.0700   -2.7759 C   0  0  0  0  0  0  0  0  0  0  0  0
    0.3317    6.1912   -3.5071 O   0  0  0  0  0  0  0  0  0  0  0  0
   -1.7582    1.3241   -0.4207 H   0  0  0  0  0  0  0  0  0  0  0  0
   -0.0926    0.3015   -1.5387 H   0  0  0  0  0  0  0  0  0  0  0  0
    2.2869    1.0559   -0.8190 H   0  0  0  0  0  0  0  0  0  0  0  0
    1.5689    1.8334    0.5683 H   0  0  0  0  0  0  0  0  0  0  0  0
    1.6152    1.8578   -3.1609 H   0  0  0  0  0  0  0  0  0  0  0  0
    0.4967    3.9545    0.4323 H   0  0  0  0  0  0  0  0  0  0  0  0
    1.1662    3.8910   -4.4854 H   0  0  0  0  0  0  0  0  0  0  0  0
    0.0488    5.9858   -0.8948 H   0  0  0  0  0  0  0  0  0  0  0  0
    0.0340    6.9114   -2.9287 H   0  0  0  0  0  0  0  0  0  0  0  0
   -0.2644   -1.0807    1.2348 N   0  0  0  0  0  0  0  0  0  0  0  0
   -0.1035   -2.2444    2.0766 C   0  0  2  0  0  0  0  0  0  0  0  0
    0.0793   -3.4567    1.1731 C   0  0  0  0  0  0  0  0  0  0  0  0
   -0.3038   -3.4870    0.0055 O   0  0  0  0  0  0  0  0  0  0  0  0
   -1.2982   -2.4293    2.9992 C   0  0  0  0  0  0  0  0  0  0  0  0
   -1.0479   -0.4598    1.4147 H   0  0  0  0  0  0  0  0  0  0  0  0
    0.8070   -2.0859    2.6647 H   0  0  0  0  0  0  0  0  0  0  0  0
   -2.2198   -2.5894    2.4279 H   0  0  0  0  0  0  0  0  0  0  0  0
   -1.1620   -3.2947    3.6561 H   0  0  0  0  0  0  0  0  0  0  0  0
   -1.4461   -1.5442    3.6274 H   0  0  0  0  0  0  0  0  0  0  0  0
    0.6818   -4.5162    1.8370 N   0  0  0  0  0  0  0  0  0  0  0  0
    0.9527   -5.7833    1.1989 C   0  0  0  0  0  0  0  0  0  0  0  0
    0.9838   -4.3960    2.7993 H   0  0  0  0  0  0  0  0  0  0  0  0
    0.1084   -6.4677    1.3685 H   0  0  0  0  0  0  0  0  0  0  0  0
    1.0874   -5.6281    0.1183 H   0  0  0  0  0  0  0  0  0  0  0  0
    1.8689   -6.2192    1.6238 H   0  0  0  0  0  0  0  0  0  0  0  0
 23 25  2  0  0  0  0
 22 23  1  0  0  0  0
 24 26  1  0  0  0  0
 22 24  2  0  0  0  0
 25 27  1  0  0  0  0
 26 27  2  0  0  0  0
 21 22  1  0  0  0  0
 27 28  1  0  0  0  0
  1  3  1  0  0  0  0
  1  7  1  0  0  0  0
  1  2  2  0  0  0  0
 39 40  1  0  0  0  0
 40 48  1  0  0  0  0
 40 41  2  0  0  0  0
  8  9  1  0  0  0  0
  9 17  1  0  0  0  0
  9 10  2  0  0  0  0
 18 19  1  0  0  0  0
 19 38  1  0  0  0  0
 19 20  2  0  0  0  0
 39 42  1  0  0  0  0
  8 11  1  0  0  0  0
 48 49  1  0  0  0  0
 18 21  1  0  0  0  0
 38 39  1  0  0  0  0
  7  8  1  0  0  0  0
 17 18  1  0  0  0  0
 23 33  1  0  0  0  0
 24 34  1  0  0  0  0
 25 35  1  0  0  0  0
 26 36  1  0  0  0  0
  3  4  1  0  0  0  0
  3  5  1  0  0  0  0
  3  6  1  0  0  0  0
 42 45  1  0  0  0  0
 42 46  1  0  0  0  0
 42 47  1  0  0  0  0
 11 14  1  0  0  0  0
 11 15  1  0  0  0  0
 11 16  1  0  0  0  0
 49 51  1  0  0  0  0
 49 52  1  0  0  0  0
 49 53  1  0  0  0  0
 21 31  1  0  0  0  0
 21 32  1  0  0  0  0
 39 44  1  0  0  0  0
  8 13  1  0  0  0  0
 18 30  1  0  0  0  0
 48 50  1  0  0  0  0
  7 12  1  0  0  0  0
 38 43  1  0  0  0  0
 17 29  1  0  0  0  0
 28 37  1  0  0  0  0
M  END
$$$$

  -OEChem-05262214473D

 53 53  0     1  0  0  0  0  0999 V2000
   -1.9298    0.2574    3.9747 C   0  0  0  0  0  0  0  0  0  0  0  0
   -0.9825   -0.3573    3.4990 O   0  0  0  0  0  0  0  0  0  0  0  0
   -2.3617   -0.0250    5.3754 C   0  0  0  0  0  0  0  0  0  0  0  0
   -3.1214   -0.8213    5.4288 H   0  0  0  0  0  0  0  0  0  0  0  0
   -1.5305   -0.3726    6.0097 H   0  0  0  0  0  0  0  0  0  0  0  0
   -2.7997    0.8299    5.9150 H   0  0  0  0  0  0  0  0  0  0  0  0
   -2.6795    1.2298    3.3336 N   0  0  0  0  0  0  0  0  0  0  0  0
   -2.4327    1.6559    1.9812 C   0  0  2  0  0  0  0  0  0  0  0  0
   -1.0977    1.0705    1.5400 C   0  0  0  0  0  0  0  0  0  0  0  0
   -0.2256    0.7177    2.3313 O   0  0  0  0  0  0  0  0  0  0  0  0
   -2.4239    3.1726    1.8718 C   0  0  0  0  0  0  0  0  0  0  0  0
   -3.4446    1.6657    3.8454 H   0  0  0  0  0  0  0  0  0  0  0  0
   -3.2368    1.2374    1.3661 H   0  0  0  0  0  0  0  0  0  0  0  0
   -1.6248    3.6099    2.4815 H   0  0  0  0  0  0  0  0  0  0  0  0
   -2.2644    3.4949    0.8375 H   0  0  0  0  0  0  0  0  0  0  0  0
   -3.3741    3.5939    2.2175 H   0  0  0  0  0  0  0  0  0  0  0  0
   -0.9750    1.0274    0.1566 N   0  0  0  0  0  0  0  0  0  0  0  0
    0.2023    0.5266   -0.5070 C   0  0  2  0  0  0  0  0  0  0  0  0
    0.5979   -0.7687    0.1929 C   0  0  0  0  0  0  0  0  0  0  0  0
    1.7107   -1.2781    0.0786 O   0  0  0  0  0  0  0  0  0  0  0  0
    1.3608    1.5297   -0.4662 C   0  0  0  0  0  0  0  0  0  0  0  0
    1.0856    2.7724   -1.2772 C   0  0  0  0  0  0  0  0  0  0  0  0
    1.2724    2.7589   -2.6595 C   0  0  0  0  0  0  0  0  0  0  0  0
    0.6451    3.9348   -0.6443 C   0  0  0  0  0  0  0  0  0  0  0  0
    1.0185    3.9077   -3.4088 C   0  0  0  0  0  0  0  0  0  0  0  0
    0.3913    5.0836   -1.3936 C   0  0  0  0  0  0  0  0  0  0  0  0
    0.5780    5.0700   -2.7759 C   0  0  0  0  0  0  0  0  0  0  0  0
    0.3317    6.1912   -3.5071 O   0  0  0  0  0  0  0  0  0  0  0  0
   -1.7582    1.3241   -0.4207 H   0  0  0  0  0  0  0  0  0  0  0  0
   -0.0926    0.3015   -1.5387 H   0  0  0  0  0  0  0  0  0  0  0  0
    2.2869    1.0559   -0.8190 H   0  0  0  0  0  0  0  0  0  0  0  0
    1.5689    1.8334    0.5683 H   0  0  0  0  0  0  0  0  0  0  0  0
    1.6152    1.8578   -3.1609 H   0  0  0  0  0  0  0  0  0  0  0  0
    0.4967    3.9545    0.4323 H   0  0  0  0  0  0  0  0  0  0  0  0
    1.1662    3.8910   -4.4854 H   0  0  0  0  0  0  0  0  0  0  0  0
    0.0488    5.9858   -0.8948 H   0  0  0  0  0  0  0  0  0  0  0  0
    0.0340    6.9114   -2.9287 H   0  0  0  0  0  0  0  0  0  0  0  0
   -0.4225   -1.2575    0.9968 N   0  0  0  0  0  0  0  0  0  0  0  0
   -0.3014   -2.4600    1.7893 C   0  0  2  0  0  0  0  0  0  0  0  0
    0.2237   -3.5679    0.8858 C   0  0  0  0  0  0  0  0  0  0  0  0
    0.1087   -3.5466   -0.3379 O   0  0  0  0  0  0  0  0  0  0  0  0
   -1.6339   -2.8504    2.4096 C   0  0  0  0  0  0  0  0  0  0  0  0
   -1.2984   -0.7442    1.0299 H   0  0  0  0  0  0  0  0  0  0  0  0
    0.4332   -2.2490    2.5741 H   0  0  0  0  0  0  0  0  0  0  0  0
   -2.3827   -3.0656    1.6386 H   0  0  0  0  0  0  0  0  0  0  0  0
   -1.5345   -3.7453    3.0328 H   0  0  0  0  0  0  0  0  0  0  0  0
   -2.0246   -2.0407    3.0355 H   0  0  0  0  0  0  0  0  0  0  0  0
    0.7977   -4.6036    1.6096 N   0  0  0  0  0  0  0  0  0  0  0  0
    1.3577   -5.7772    0.9811 C   0  0  0  0  0  0  0  0  0  0  0  0
    0.8672   -4.5284    2.6202 H   0  0  0  0  0  0  0  0  0  0  0  0
    0.5901   -6.5627    0.9202 H   0  0  0  0  0  0  0  0  0  0  0  0
    1.7018   -5.5216   -0.0319 H   0  0  0  0  0  0  0  0  0  0  0  0
    2.2082   -6.1412    1.5763 H   0  0  0  0  0  0  0  0  0  0  0  0
 23 25  2  0  0  0  0
 22 23  1  0  0  0  0
 24 26  1  0  0  0  0
 22 24  2  0  0  0  0
 25 27  1  0  0  0  0
 26 27  2  0  0  0  0
 21 22  1  0  0  0  0
 27 28  1  0  0  0  0
  1  3  1  0  0  0  0
  1  7  1  0  0  0  0
  1  2  2  0  0  0  0
 39 40  1  0  0  0  0
 40 48  1  0  0  0  0
 40 41  2  0  0  0  0
  8  9  1  0  0  0  0
  9 17  1  0  0  0  0
  9 10  2  0  0  0  0
 18 19  1  0  0  0  0
 19 38  1  0  0  0  0
 19 20  2  0  0  0  0
 39 42  1  0  0  0  0
  8 11  1  0  0  0  0
 48 49  1  0  0  0  0
 18 21  1  0  0  0  0
 38 39  1  0  0  0  0
  7  8  1  0  0  0  0
 17 18  1  0  0  0  0
 23 33  1  0  0  0  0
 24 34  1  0  0  0  0
 25 35  1  0  0  0  0
 26 36  1  0  0  0  0
  3  4  1  0  0  0  0
  3  5  1  0  0  0  0
  3  6  1  0  0  0  0
 42 45  1  0  0  0  0
 42 46  1  0  0  0  0
 42 47  1  0  0  0  0
 11 14  1  0  0  0  0
 11 15  1  0  0  0  0
 11 16  1  0  0  0  0
 49 51  1  0  0  0  0
 49 52  1  0  0  0  0
 49 53  1  0  0  0  0
 21 31  1  0  0  0  0
 21 32  1  0  0  0  0
 39 44  1  0  0  0  0
  8 13  1  0  0  0  0
 18 30  1  0  0  0  0
 48 50  1  0  0  0  0
  7 12  1  0  0  0  0
 38 43  1  0  0  0  0
 17 29  1  0  0  0  0
 28 37  1  0  0  0  0
M  END
$$$$

  -OEChem-05262214473D

 53 53  0     1  0  0  0  0  0999 V2000
   -1.9298    0.2574    3.9747 C   0  0  0  0  0  0  0  0  0  0  0  0
   -0.9825   -0.3573    3.4990 O   0  0  0  0  0  0  0  0  0  0  0  0
   -2.3617   -0.0250    5.3754 C   0  0  0  0  0  0  0  0  0  0  0  0
   -3.1214   -0.8213    5.4288 H   0  0  0  0  0  0  0  0  0  0  0  0
   -1.5305   -0.3726    6.0097 H   0  0  0  0  0  0  0  0  0  0  0  0
   -2.7997    0.8299    5.9150 H   0  0  0  0  0  0  0  0  0  0  0  0
   -2.6795    1.2298    3.3336 N   0  0  0  0  0  0  0  0  0  0  0  0
   -2.4327    1.6559    1.9812 C   0  0  2  0  0  0  0  0  0  0  0  0
   -1.0977    1.0705    1.5400 C   0  0  0  0  0  0  0  0  0  0  0  0
   -0.2256    0.7177    2.3313 O   0  0  0  0  0  0  0  0  0  0  0  0
   -2.4239    3.1726    1.8718 C   0  0  0  0  0  0  0  0  0  0  0  0
   -3.4446    1.6657    3.8454 H   0  0  0  0  0  0  0  0  0  0  0  0
   -3.2368    1.2374    1.3661 H   0  0  0  0  0  0  0  0  0  0  0  0
   -1.6248    3.6099    2.4815 H   0  0  0  0  0  0  0  0  0  0  0  0
   -2.2644    3.4949    0.8375 H   0  0  0  0  0  0  0  0  0  0  0  0
   -3.3741    3.5939    2.2175 H   0  0  0  0  0  0  0  0  0  0  0  0
   -0.9750    1.0274    0.1566 N   0  0  0  0  0  0  0  0  0  0  0  0
    0.2023    0.5266   -0.5070 C   0  0  2  0  0  0  0  0  0  0  0  0
    0.5979   -0.7687    0.1929 C   0  0  0  0  0  0  0  0  0  0  0  0
    1.7644   -1.1402    0.3035 O   0  0  0  0  0  0  0  0  0  0  0  0
    1.3608    1.5297   -0.4662 C   0  0  0  0  0  0  0  0  0  0  0  0
    1.0856    2.7724   -1.2772 C   0  0  0  0  0  0  0  0  0  0  0  0
    1.2724    2.7589   -2.6595 C   0  0  0  0  0  0  0  0  0  0  0  0
    0.6451    3.9348   -0.6443 C   0  0  0  0  0  0  0  0  0  0  0  0
    1.0185    3.9077   -3.4088 C   0  0  0  0  0  0  0  0  0  0  0  0
    0.3913    5.0836   -1.3936 C   0  0  0  0  0  0  0  0  0  0  0  0
    0.5780    5.0700   -2.7759 C   0  0  0  0  0  0  0  0  0  0  0  0
    0.3317    6.1912   -3.5071 O   0  0  0  0  0  0  0  0  0  0  0  0
   -1.7582    1.3241   -0.4207 H   0  0  0  0  0  0  0  0  0  0  0  0
   -0.0926    0.3015   -1.5387 H   0  0  0  0  0  0  0  0  0  0  0  0
    2.2869    1.0559   -0.8190 H   0  0  0  0  0  0  0  0  0  0  0  0
    1.5689    1.8334    0.5683 H   0  0  0  0  0  0  0  0  0  0  0  0
    1.6152    1.8578   -3.1609 H   0  0  0  0  0  0  0  0  0  0  0  0
    0.4967    3.9545    0.4323 H   0  0  0  0  0  0  0  0  0  0  0  0
    1.1662    3.8910   -4.4854 H   0  0  0  0  0  0  0  0  0  0  0  0
    0.0488    5.9858   -0.8948 H   0  0  0  0  0  0  0  0  0  0  0  0
    0.0340    6.9114   -2.9287 H   0  0  0  0  0  0  0  0  0  0  0  0
   -0.5018   -1.4311    0.7203 N   0  0  0  0  0  0  0  0  0  0  0  0
   -0.4038   -2.6726    1.4539 C   0  0  2  0  0  0  0  0  0  0  0  0
    0.4397   -3.6387    0.6325 C   0  0  0  0  0  0  0  0  0  0  0  0
    0.5897   -3.5320   -0.5829 O   0  0  0  0  0  0  0  0  0  0  0  0
   -1.7785   -3.2574    1.7380 C   0  0  0  0  0  0  0  0  0  0  0  0
   -1.4219   -1.0229    0.5840 H   0  0  0  0  0  0  0  0  0  0  0  0
    0.1114   -2.4449    2.3934 H   0  0  0  0  0  0  0  0  0  0  0  0
   -2.3099   -3.4919    0.8084 H   0  0  0  0  0  0  0  0  0  0  0  0
   -1.7037   -4.1829    2.3184 H   0  0  0  0  0  0  0  0  0  0  0  0
   -2.3941   -2.5493    2.3032 H   0  0  0  0  0  0  0  0  0  0  0  0
    0.9700   -4.6590    1.4097 N   0  0  0  0  0  0  0  0  0  0  0  0
    1.7962   -5.7086    0.8602 C   0  0  0  0  0  0  0  0  0  0  0  0
    0.8096   -4.6581    2.4127 H   0  0  0  0  0  0  0  0  0  0  0  0
    1.1654   -6.5672    0.5867 H   0  0  0  0  0  0  0  0  0  0  0  0
    2.3157   -5.3356   -0.0347 H   0  0  0  0  0  0  0  0  0  0  0  0
    2.5371   -6.0224    1.6103 H   0  0  0  0  0  0  0  0  0  0  0  0
 23 25  2  0  0  0  0
 22 23  1  0  0  0  0
 24 26  1  0  0  0  0
 22 24  2  0  0  0  0
 25 27  1  0  0  0  0
 26 27  2  0  0  0  0
 21 22  1  0  0  0  0
 27 28  1  0  0  0  0
  1  3  1  0  0  0  0
  1  7  1  0  0  0  0
  1  2  2  0  0  0  0
 39 40  1  0  0  0  0
 40 48  1  0  0  0  0
 40 41  2  0  0  0  0
  8  9  1  0  0  0  0
  9 17  1  0  0  0  0
  9 10  2  0  0  0  0
 18 19  1  0  0  0  0
 19 38  1  0  0  0  0
 19 20  2  0  0  0  0
 39 42  1  0  0  0  0
  8 11  1  0  0  0  0
 48 49  1  0  0  0  0
 18 21  1  0  0  0  0
 38 39  1  0  0  0  0
  7  8  1  0  0  0  0
 17 18  1  0  0  0  0
 23 33  1  0  0  0  0
 24 34  1  0  0  0  0
 25 35  1  0  0  0  0
 26 36  1  0  0  0  0
  3  4  1  0  0  0  0
  3  5  1  0  0  0  0
  3  6  1  0  0  0  0
 42 45  1  0  0  0  0
 42 46  1  0  0  0  0
 42 47  1  0  0  0  0
 11 14  1  0  0  0  0
 11 15  1  0  0  0  0
 11 16  1  0  0  0  0
 49 51  1  0  0  0  0
 49 52  1  0  0  0  0
 49 53  1  0  0  0  0
 21 31  1  0  0  0  0
 21 32  1  0  0  0  0
 39 44  1  0  0  0  0
  8 13  1  0  0  0  0
 18 30  1  0  0  0  0
 48 50  1  0  0  0  0
  7 12  1  0  0  0  0
 38 43  1  0  0  0  0
 17 29  1  0  0  0  0
 28 37  1  0  0  0  0
M  END
$$$$

  -OEChem-05262214473D

 53 53  0     1  0  0  0  0  0999 V2000
   -1.9298    0.2574    3.9747 C   0  0  0  0  0  0  0  0  0  0  0  0
   -0.9825   -0.3573    3.4990 O   0  0  0  0  0  0  0  0  0  0  0  0
   -2.3617   -0.0250    5.3754 C   0  0  0  0  0  0  0  0  0  0  0  0
   -3.1214   -0.8213    5.4288 H   0  0  0  0  0  0  0  0  0  0  0  0
   -1.5305   -0.3726    6.0097 H   0  0  0  0  0  0  0  0  0  0  0  0
   -2.7997    0.8299    5.9150 H   0  0  0  0  0  0  0  0  0  0  0  0
   -2.6795    1.2298    3.3336 N   0  0  0  0  0  0  0  0  0  0  0  0
   -2.4327    1.6559    1.9812 C   0  0  2  0  0  0  0  0  0  0  0  0
   -1.0977    1.0705    1.5400 C   0  0  0  0  0  0  0  0  0  0  0  0
   -0.2256    0.7177    2.3313 O   0  0  0  0  0  0  0  0  0  0  0  0
   -2.4239    3.1726    1.8718 C   0  0  0  0  0  0  0  0  0  0  0  0
   -3.4446    1.6657    3.8454 H   0  0  0  0  0  0  0  0  0  0  0  0
   -3.2368    1.2374    1.3661 H   0  0  0  0  0  0  0  0  0  0  0  0
   -1.6248    3.6099    2.4815 H   0  0  0  0  0  0  0  0  0  0  0  0
   -2.2644    3.4949    0.8375 H   0  0  0  0  0  0  0  0  0  0  0  0
   -3.3741    3.5939    2.2175 H   0  0  0  0  0  0  0  0  0  0  0  0
   -0.9750    1.0274    0.1566 N   0  0  0  0  0  0  0  0  0  0  0  0
    0.2023    0.5266   -0.5070 C   0  0  2  0  0  0  0  0  0  0  0  0
    0.5979   -0.7687    0.1929 C   0  0  0  0  0  0  0  0  0  0  0  0
    1.7504   -1.0157    0.5417 O   0  0  0  0  0  0  0  0  0  0  0  0
    1.3608    1.5297   -0.4662 C   0  0  0  0  0  0  0  0  0  0  0  0
    1.0856    2.7724   -1.2772 C   0  0  0  0  0  0  0  0  0  0  0  0
    1.2724    2.7589   -2.6595 C   0  0  0  0  0  0  0  0  0  0  0  0
    0.6451    3.9348   -0.6443 C   0  0  0  0  0  0  0  0  0  0  0  0
    1.0185    3.9077   -3.4088 C   0  0  0  0  0  0  0  0  0  0  0  0
    0.3913    5.0836   -1.3936 C   0  0  0  0  0  0  0  0  0  0  0  0
    0.5780    5.0700   -2.7759 C   0  0  0  0  0  0  0  0  0  0  0  0
    0.3317    6.1912   -3.5071 O   0  0  0  0  0  0  0  0  0  0  0  0
   -1.7582    1.3241   -0.4207 H   0  0  0  0  0  0  0  0  0  0  0  0
   -0.0926    0.3015   -1.5387 H   0  0  0  0  0  0  0  0  0  0  0  0
    2.2869    1.0559   -0.8190 H   0  0  0  0  0  0  0  0  0  0  0  0
    1.5689    1.8334    0.5683 H   0  0  0  0  0  0  0  0  0  0  0  0
    1.6152    1.8578   -3.1609 H   0  0  0  0  0  0  0  0  0  0  0  0
    0.4967    3.9545    0.4323 H   0  0  0  0  0  0  0  0  0  0  0  0
    1.1662    3.8910   -4.4854 H   0  0  0  0  0  0  0  0  0  0  0  0
    0.0488    5.9858   -0.8948 H   0  0  0  0  0  0  0  0  0  0  0  0
    0.0340    6.9114   -2.9287 H   0  0  0  0  0  0  0  0  0  0  0  0
   -0.4970   -1.5897    0.4242 N   0  0  0  0  0  0  0  0  0  0  0  0
   -0.4036   -2.8675    1.0930 C   0  0  2  0  0  0  0  0  0  0  0  0
    0.7124   -3.6645    0.4306 C   0  0  0  0  0  0  0  0  0  0  0  0
    1.1065   -3.4443   -0.7127 O   0  0  0  0  0  0  0  0  0  0  0  0
   -1.7221   -3.6227    1.0301 C   0  0  0  0  0  0  0  0  0  0  0  0
   -1.4100   -1.2767    0.1074 H   0  0  0  0  0  0  0  0  0  0  0  0
   -0.1363   -2.6602    2.1350 H   0  0  0  0  0  0  0  0  0  0  0  0
   -2.0063   -3.8393   -0.0061 H   0  0  0  0  0  0  0  0  0  0  0  0
   -1.6580   -4.5778    1.5618 H   0  0  0  0  0  0  0  0  0  0  0  0
   -2.5296   -3.0352    1.4804 H   0  0  0  0  0  0  0  0  0  0  0  0
    1.1870   -4.6787    1.2507 N   0  0  0  0  0  0  0  0  0  0  0  0
    2.2381   -5.5821    0.8445 C   0  0  0  0  0  0  0  0  0  0  0  0
    0.8151   -4.7763    2.1908 H   0  0  0  0  0  0  0  0  0  0  0  0
    1.7949   -6.4808    0.3908 H   0  0  0  0  0  0  0  0  0  0  0  0
    2.8872   -5.0828    0.1101 H   0  0  0  0  0  0  0  0  0  0  0  0
    2.8333   -5.8708    1.7234 H   0  0  0  0  0  0  0  0  0  0  0  0
 23 25  2  0  0  0  0
 22 23  1  0  0  0  0
 24 26  1  0  0  0  0
 22 24  2  0  0  0  0
 25 27  1  0  0  0  0
 26 27  2  0  0  0  0
 21 22  1  0  0  0  0
 27 28  1  0  0  0  0
  1  3  1  0  0  0  0
  1  7  1  0  0  0  0
  1  2  2  0  0  0  0
 39 40  1  0  0  0  0
 40 48  1  0  0  0  0
 40 41  2  0  0  0  0
  8  9  1  0  0  0  0
  9 17  1  0  0  0  0
  9 10  2  0  0  0  0
 18 19  1  0  0  0  0
 19 38  1  0  0  0  0
 19 20  2  0  0  0  0
 39 42  1  0  0  0  0
  8 11  1  0  0  0  0
 48 49  1  0  0  0  0
 18 21  1  0  0  0  0
 38 39  1  0  0  0  0
  7  8  1  0  0  0  0
 17 18  1  0  0  0  0
 23 33  1  0  0  0  0
 24 34  1  0  0  0  0
 25 35  1  0  0  0  0
 26 36  1  0  0  0  0
  3  4  1  0  0  0  0
  3  5  1  0  0  0  0
  3  6  1  0  0  0  0
 42 45  1  0  0  0  0
 42 46  1  0  0  0  0
 42 47  1  0  0  0  0
 11 14  1  0  0  0  0
 11 15  1  0  0  0  0
 11 16  1  0  0  0  0
 49 51  1  0  0  0  0
 49 52  1  0  0  0  0
 49 53  1  0  0  0  0
 21 31  1  0  0  0  0
 21 32  1  0  0  0  0
 39 44  1  0  0  0  0
  8 13  1  0  0  0  0
 18 30  1  0  0  0  0
 48 50  1  0  0  0  0
  7 12  1  0  0  0  0
 38 43  1  0  0  0  0
 17 29  1  0  0  0  0
 28 37  1  0  0  0  0
M  END
$$$$

  -OEChem-05262214473D

 53 53  0     1  0  0  0  0  0999 V2000
   -1.9298    0.2574    3.9747 C   0  0  0  0  0  0  0  0  0  0  0  0
   -0.9825   -0.3573    3.4990 O   0  0  0  0  0  0  0  0  0  0  0  0
   -2.3617   -0.0250    5.3754 C   0  0  0  0  0  0  0  0  0  0  0  0
   -3.1214   -0.8213    5.4288 H   0  0  0  0  0  0  0  0  0  0  0  0
   -1.5305   -0.3726    6.0097 H   0  0  0  0  0  0  0  0  0  0  0  0
   -2.7997    0.8299    5.9150 H   0  0  0  0  0  0  0  0  0  0  0  0
   -2.6795    1.2298    3.3336 N   0  0  0  0  0  0  0  0  0  0  0  0
   -2.4327    1.6559    1.9812 C   0  0  2  0  0  0  0  0  0  0  0  0
   -1.0977    1.0705    1.5400 C   0  0  0  0  0  0  0  0  0  0  0  0
   -0.2256    0.7177    2.3313 O   0  0  0  0  0  0  0  0  0  0  0  0
   -2.4239    3.1726    1.8718 C   0  0  0  0  0  0  0  0  0  0  0  0
   -3.4446    1.6657    3.8454 H   0  0  0  0  0  0  0  0  0  0  0  0
   -3.2368    1.2374    1.3661 H   0  0  0  0  0  0  0  0  0  0  0  0
   -1.6248    3.6099    2.4815 H   0  0  0  0  0  0  0  0  0  0  0  0
   -2.2644    3.4949    0.8375 H   0  0  0  0  0  0  0  0  0  0  0  0
   -3.3741    3.5939    2.2175 H   0  0  0  0  0  0  0  0  0  0  0  0
   -0.9750    1.0274    0.1566 N   0  0  0  0  0  0  0  0  0  0  0  0
    0.2023    0.5266   -0.5070 C   0  0  2  0  0  0  0  0  0  0  0  0
    0.5979   -0.7687    0.1929 C   0  0  0  0  0  0  0  0  0  0  0  0
    1.6697   -0.9132    0.7771 O   0  0  0  0  0  0  0  0  0  0  0  0
    1.3608    1.5297   -0.4662 C   0  0  0  0  0  0  0  0  0  0  0  0
    1.0856    2.7724   -1.2772 C   0  0  0  0  0  0  0  0  0  0  0  0
    1.2724    2.7589   -2.6595 C   0  0  0  0  0  0  0  0  0  0  0  0
    0.6451    3.9348   -0.6443 C   0  0  0  0  0  0  0  0  0  0  0  0
    1.0185    3.9077   -3.4088 C   0  0  0  0  0  0  0  0  0  0  0  0
    0.3913    5.0836   -1.3936 C   0  0  0  0  0  0  0  0  0  0  0  0
    0.5780    5.0700   -2.7759 C   0  0  0  0  0  0  0  0  0  0  0  0
    0.3317    6.1912   -3.5071 O   0  0  0  0  0  0  0  0  0  0  0  0
   -1.7582    1.3241   -0.4207 H   0  0  0  0  0  0  0  0  0  0  0  0
   -0.0926    0.3015   -1.5387 H   0  0  0  0  0  0  0  0  0  0  0  0
    2.2869    1.0559   -0.8190 H   0  0  0  0  0  0  0  0  0  0  0  0
    1.5689    1.8334    0.5683 H   0  0  0  0  0  0  0  0  0  0  0  0
    1.6152    1.8578   -3.1609 H   0  0  0  0  0  0  0  0  0  0  0  0
    0.4967    3.9545    0.4323 H   0  0  0  0  0  0  0  0  0  0  0  0
    1.1662    3.8910   -4.4854 H   0  0  0  0  0  0  0  0  0  0  0  0
    0.0488    5.9858   -0.8948 H   0  0  0  0  0  0  0  0  0  0  0  0
    0.0340    6.9114   -2.9287 H   0  0  0  0  0  0  0  0  0  0  0  0
   -0.4084   -1.7224    0.1285 N   0  0  0  0  0  0  0  0  0  0  0  0
   -0.3009   -3.0315    0.7314 C   0  0  2  0  0  0  0  0  0  0  0  0
    1.0233   -3.6435    0.2939 C   0  0  0  0  0  0  0  0  0  0  0  0
    1.6238   -3.2895   -0.7186 O   0  0  0  0  0  0  0  0  0  0  0  0
   -1.4685   -3.9212    0.3343 C   0  0  0  0  0  0  0  0  0  0  0  0
   -1.2636   -1.4885   -0.3674 H   0  0  0  0  0  0  0  0  0  0  0  0
   -0.2932   -2.8803    1.8164 H   0  0  0  0  0  0  0  0  0  0  0  0
   -1.4927   -4.0841   -0.7494 H   0  0  0  0  0  0  0  0  0  0  0  0
   -1.4006   -4.9029    0.8145 H   0  0  0  0  0  0  0  0  0  0  0  0
   -2.4217   -3.4654    0.6232 H   0  0  0  0  0  0  0  0  0  0  0  0
    1.4339   -4.6612    1.1435 N   0  0  0  0  0  0  0  0  0  0  0  0
    2.6534   -5.4064    0.9350 C   0  0  0  0  0  0  0  0  0  0  0  0
    0.8833   -4.8749    1.9698 H   0  0  0  0  0  0  0  0  0  0  0  0
    2.4357   -6.3094    0.3457 H   0  0  0  0  0  0  0  0  0  0  0  0
    3.3773   -4.7804    0.3926 H   0  0  0  0  0  0  0  0  0  0  0  0
    3.0764   -5.6968    1.9080 H   0  0  0  0  0  0  0  0  0  0  0  0
 23 25  2  0  0  0  0
 22 23  1  0  0  0  0
 24 26  1  0  0  0  0
 22 24  2  0  0  0  0
 25 27  1  0  0  0  0
 26 27  2  0  0  0  0
 21 22  1  0  0  0  0
 27 28  1  0  0  0  0
  1  3  1  0  0  0  0
  1  7  1  0  0  0  0
  1  2  2  0  0  0  0
 39 40  1  0  0  0  0
 40 48  1  0  0  0  0
 40 41  2  0  0  0  0
  8  9  1  0  0  0  0
  9 17  1  0  0  0  0
  9 10  2  0  0  0  0
 18 19  1  0  0  0  0
 19 38  1  0  0  0  0
 19 20  2  0  0  0  0
 39 42  1  0  0  0  0
  8 11  1  0  0  0  0
 48 49  1  0  0  0  0
 18 21  1  0  0  0  0
 38 39  1  0  0  0  0
  7  8  1  0  0  0  0
 17 18  1  0  0  0  0
 23 33  1  0  0  0  0
 24 34  1  0  0  0  0
 25 35  1  0  0  0  0
 26 36  1  0  0  0  0
  3  4  1  0  0  0  0
  3  5  1  0  0  0  0
  3  6  1  0  0  0  0
 42 45  1  0  0  0  0
 42 46  1  0  0  0  0
 42 47  1  0  0  0  0
 11 14  1  0  0  0  0
 11 15  1  0  0  0  0
 11 16  1  0  0  0  0
 49 51  1  0  0  0  0
 49 52  1  0  0  0  0
 49 53  1  0  0  0  0
 21 31  1  0  0  0  0
 21 32  1  0  0  0  0
 39 44  1  0  0  0  0
  8 13  1  0  0  0  0
 18 30  1  0  0  0  0
 48 50  1  0  0  0  0
  7 12  1  0  0  0  0
 38 43  1  0  0  0  0
 17 29  1  0  0  0  0
 28 37  1  0  0  0  0
M  END
$$$$

  -OEChem-05262214473D

 53 53  0     1  0  0  0  0  0999 V2000
   -1.9298    0.2574    3.9747 C   0  0  0  0  0  0  0  0  0  0  0  0
   -0.9825   -0.3573    3.4990 O   0  0  0  0  0  0  0  0  0  0  0  0
   -2.3617   -0.0250    5.3754 C   0  0  0  0  0  0  0  0  0  0  0  0
   -3.1214   -0.8213    5.4288 H   0  0  0  0  0  0  0  0  0  0  0  0
   -1.5305   -0.3726    6.0097 H   0  0  0  0  0  0  0  0  0  0  0  0
   -2.7997    0.8299    5.9150 H   0  0  0  0  0  0  0  0  0  0  0  0
   -2.6795    1.2298    3.3336 N   0  0  0  0  0  0  0  0  0  0  0  0
   -2.4327    1.6559    1.9812 C   0  0  2  0  0  0  0  0  0  0  0  0
   -1.0977    1.0705    1.5400 C   0  0  0  0  0  0  0  0  0  0  0  0
   -0.2256    0.7177    2.3313 O   0  0  0  0  0  0  0  0  0  0  0  0
   -2.4239    3.1726    1.8718 C   0  0  0  0  0  0  0  0  0  0  0  0
   -3.4446    1.6657    3.8454 H   0  0  0  0  0  0  0  0  0  0  0  0
   -3.2368    1.2374    1.3661 H   0  0  0  0  0  0  0  0  0  0  0  0
   -1.6248    3.6099    2.4815 H   0  0  0  0  0  0  0  0  0  0  0  0
   -2.2644    3.4949    0.8375 H   0  0  0  0  0  0  0  0  0  0  0  0
   -3.3741    3.5939    2.2175 H   0  0  0  0  0  0  0  0  0  0  0  0
   -0.9750    1.0274    0.1566 N   0  0  0  0  0  0  0  0  0  0  0  0
    0.2023    0.5266   -0.5070 C   0  0  2  0  0  0  0  0  0  0  0  0
    0.5979   -0.7687    0.1929 C   0  0  0  0  0  0  0  0  0  0  0  0
    1.5277   -0.8395    0.9937 O   0  0  0  0  0  0  0  0  0  0  0  0
    1.3608    1.5297   -0.4662 C   0  0  0  0  0  0  0  0  0  0  0  0
    1.0856    2.7724   -1.2772 C   0  0  0  0  0  0  0  0  0  0  0  0
    1.2724    2.7589   -2.6595 C   0  0  0  0  0  0  0  0  0  0  0  0
    0.6451    3.9348   -0.6443 C   0  0  0  0  0  0  0  0  0  0  0  0
    1.0185    3.9077   -3.4088 C   0  0  0  0  0  0  0  0  0  0  0  0
    0.3913    5.0836   -1.3936 C   0  0  0  0  0  0  0  0  0  0  0  0
    0.5780    5.0700   -2.7759 C   0  0  0  0  0  0  0  0  0  0  0  0
    0.3317    6.1912   -3.5071 O   0  0  0  0  0  0  0  0  0  0  0  0
   -1.7582    1.3241   -0.4207 H   0  0  0  0  0  0  0  0  0  0  0  0
   -0.0926    0.3015   -1.5387 H   0  0  0  0  0  0  0  0  0  0  0  0
    2.2869    1.0559   -0.8190 H   0  0  0  0  0  0  0  0  0  0  0  0
    1.5689    1.8334    0.5683 H   0  0  0  0  0  0  0  0  0  0  0  0
    1.6152    1.8578   -3.1609 H   0  0  0  0  0  0  0  0  0  0  0  0
    0.4967    3.9545    0.4323 H   0  0  0  0  0  0  0  0  0  0  0  0
    1.1662    3.8910   -4.4854 H   0  0  0  0  0  0  0  0  0  0  0  0
    0.0488    5.9858   -0.8948 H   0  0  0  0  0  0  0  0  0  0  0  0
    0.0340    6.9114   -2.9287 H   0  0  0  0  0  0  0  0  0  0  0  0
   -0.2421   -1.8202   -0.1466 N   0  0  0  0  0  0  0  0  0  0  0  0
   -0.1028   -3.1534    0.3937 C   0  0  2  0  0  0  0  0  0  0  0  0
    1.3511   -3.5770    0.2315 C   0  0  0  0  0  0  0  0  0  0  0  0
    2.1064   -3.0781   -0.6002 O   0  0  0  0  0  0  0  0  0  0  0  0
   -1.0351   -4.1327   -0.3022 C   0  0  0  0  0  0  0  0  0  0  0  0
   -0.9925   -1.6438   -0.8080 H   0  0  0  0  0  0  0  0  0  0  0  0
   -0.3486   -3.0901    1.4594 H   0  0  0  0  0  0  0  0  0  0  0  0
   -0.8041   -4.2095   -1.3709 H   0  0  0  0  0  0  0  0  0  0  0  0
   -0.9490   -5.1362    0.1275 H   0  0  0  0  0  0  0  0  0  0  0  0
   -2.0780   -3.8106   -0.2100 H   0  0  0  0  0  0  0  0  0  0  0  0
    1.6939   -4.6077    1.0954 N   0  0  0  0  0  0  0  0  0  0  0  0
    3.0138   -5.1934    1.1255 C   0  0  0  0  0  0  0  0  0  0  0  0
    1.0094   -4.9472    1.7647 H   0  0  0  0  0  0  0  0  0  0  0  0
    3.0443   -6.0646    0.4547 H   0  0  0  0  0  0  0  0  0  0  0  0
    3.7527   -4.4491    0.7935 H   0  0  0  0  0  0  0  0  0  0  0  0
    3.2500   -5.5122    2.1514 H   0  0  0  0  0  0  0  0  0  0  0  0
 23 25  2  0  0  0  0
 22 23  1  0  0  0  0
 24 26  1  0  0  0  0
 22 24  2  0  0  0  0
 25 27  1  0  0  0  0
 26 27  2  0  0  0  0
 21 22  1  0  0  0  0
 27 28  1  0  0  0  0
  1  3  1  0  0  0  0
  1  7  1  0  0  0  0
  1  2  2  0  0  0  0
 39 40  1  0  0  0  0
 40 48  1  0  0  0  0
 40 41  2  0  0  0  0
  8  9  1  0  0  0  0
  9 17  1  0  0  0  0
  9 10  2  0  0  0  0
 18 19  1  0  0  0  0
 19 38  1  0  0  0  0
 19 20  2  0  0  0  0
 39 42  1  0  0  0  0
  8 11  1  0  0  0  0
 48 49  1  0  0  0  0
 18 21  1  0  0  0  0
 38 39  1  0  0  0  0
  7  8  1  0  0  0  0
 17 18  1  0  0  0  0
 23 33  1  0  0  0  0
 24 34  1  0  0  0  0
 25 35  1  0  0  0  0
 26 36  1  0  0  0  0
  3  4  1  0  0  0  0
  3  5  1  0  0  0  0
  3  6  1  0  0  0  0
 42 45  1  0  0  0  0
 42 46  1  0  0  0  0
 42 47  1  0  0  0  0
 11 14  1  0  0  0  0
 11 15  1  0  0  0  0
 11 16  1  0  0  0  0
 49 51  1  0  0  0  0
 49 52  1  0  0  0  0
 49 53  1  0  0  0  0
 21 31  1  0  0  0  0
 21 32  1  0  0  0  0
 39 44  1  0  0  0  0
  8 13  1  0  0  0  0
 18 30  1  0  0  0  0
 48 50  1  0  0  0  0
  7 12  1  0  0  0  0
 38 43  1  0  0  0  0
 17 29  1  0  0  0  0
 28 37  1  0  0  0  0
M  END
$$$$

  -OEChem-05262214473D

 53 53  0     1  0  0  0  0  0999 V2000
   -1.9298    0.2574    3.9747 C   0  0  0  0  0  0  0  0  0  0  0  0
   -0.9825   -0.3573    3.4990 O   0  0  0  0  0  0  0  0  0  0  0  0
   -2.3617   -0.0250    5.3754 C   0  0  0  0  0  0  0  0  0  0  0  0
   -3.1214   -0.8213    5.4288 H   0  0  0  0  0  0  0  0  0  0  0  0
   -1.5305   -0.3726    6.0097 H   0  0  0  0  0  0  0  0  0  0  0  0
   -2.7997    0.8299    5.9150 H   0  0  0  0  0  0  0  0  0  0  0  0
   -2.6795    1.2298    3.3336 N   0  0  0  0  0  0  0  0  0  0  0  0
   -2.4327    1.6559    1.9812 C   0  0  2  0  0  0  0  0  0  0  0  0
   -1.0977    1.0705    1.5400 C   0  0  0  0  0  0  0  0  0  0  0  0
   -0.2256    0.7177    2.3313 O   0  0  0  0  0  0  0  0  0  0  0  0
   -2.4239    3.1726    1.8718 C   0  0  0  0  0  0  0  0  0  0  0  0
   -3.4446    1.6657    3.8454 H   0  0  0  0  0  0  0  0  0  0  0  0
   -3.2368    1.2374    1.3661 H   0  0  0  0  0  0  0  0  0  0  0  0
   -1.6248    3.6099    2.4815 H   0  0  0  0  0  0  0  0  0  0  0  0
   -2.2644    3.4949    0.8375 H   0  0  0  0  0  0  0  0  0  0  0  0
   -3.3741    3.5939    2.2175 H   0  0  0  0  0  0  0  0  0  0  0  0
   -0.9750    1.0274    0.1566 N   0  0  0  0  0  0  0  0  0  0  0  0
    0.2023    0.5266   -0.5070 C   0  0  2  0  0  0  0  0  0  0  0  0
    0.5979   -0.7687    0.1929 C   0  0  0  0  0  0  0  0  0  0  0  0
    1.3343   -0.7998    1.1766 O   0  0  0  0  0  0  0  0  0  0  0  0
    1.3608    1.5297   -0.4662 C   0  0  0  0  0  0  0  0  0  0  0  0
    1.0856    2.7724   -1.2772 C   0  0  0  0  0  0  0  0  0  0  0  0
    1.2724    2.7589   -2.6595 C   0  0  0  0  0  0  0  0  0  0  0  0
    0.6451    3.9348   -0.6443 C   0  0  0  0  0  0  0  0  0  0  0  0
    1.0185    3.9077   -3.4088 C   0  0  0  0  0  0  0  0  0  0  0  0
    0.3913    5.0836   -1.3936 C   0  0  0  0  0  0  0  0  0  0  0  0
    0.5780    5.0700   -2.7759 C   0  0  0  0  0  0  0  0  0  0  0  0
    0.3317    6.1912   -3.5071 O   0  0  0  0  0  0  0  0  0  0  0  0
   -1.7582    1.3241   -0.4207 H   0  0  0  0  0  0  0  0  0  0  0  0
   -0.0926    0.3015   -1.5387 H   0  0  0  0  0  0  0  0  0  0  0  0
    2.2869    1.0559   -0.8190 H   0  0  0  0  0  0  0  0  0  0  0  0
    1.5689    1.8334    0.5683 H   0  0  0  0  0  0  0  0  0  0  0  0
    1.6152    1.8578   -3.1609 H   0  0  0  0  0  0  0  0  0  0  0  0
    0.4967    3.9545    0.4323 H   0  0  0  0  0  0  0  0  0  0  0  0
    1.1662    3.8910   -4.4854 H   0  0  0  0  0  0  0  0  0  0  0  0
    0.0488    5.9858   -0.8948 H   0  0  0  0  0  0  0  0  0  0  0  0
    0.0340    6.9114   -2.9287 H   0  0  0  0  0  0  0  0  0  0  0  0
   -0.0093   -1.8764   -0.3822 N   0  0  0  0  0  0  0  0  0  0  0  0
    0.1774   -3.2250    0.1029 C   0  0  2  0  0  0  0  0  0  0  0  0
    1.6736   -3.4697    0.2479 C   0  0  0  0  0  0  0  0  0  0  0  0
    2.5214   -2.8245   -0.3654 O   0  0  0  0  0  0  0  0  0  0  0  0
   -0.4514   -4.2428   -0.8359 C   0  0  0  0  0  0  0  0  0  0  0  0
   -0.6154   -1.7320   -1.1844 H   0  0  0  0  0  0  0  0  0  0  0  0
   -0.2986   -3.2754    1.0882 H   0  0  0  0  0  0  0  0  0  0  0  0
    0.0127   -4.2071   -1.8283 H   0  0  0  0  0  0  0  0  0  0  0  0
   -0.3340   -5.2617   -0.4526 H   0  0  0  0  0  0  0  0  0  0  0  0
   -1.5217   -4.0472   -0.9623 H   0  0  0  0  0  0  0  0  0  0  0  0
    1.9492   -4.5220    1.1098 N   0  0  0  0  0  0  0  0  0  0  0  0
    3.2947   -4.9576    1.4031 C   0  0  0  0  0  0  0  0  0  0  0  0
    1.1849   -4.9883    1.5895 H   0  0  0  0  0  0  0  0  0  0  0  0
    3.5791   -5.7632    0.7102 H   0  0  0  0  0  0  0  0  0  0  0  0
    3.9877   -4.1115    1.2856 H   0  0  0  0  0  0  0  0  0  0  0  0
    3.3422   -5.3297    2.4372 H   0  0  0  0  0  0  0  0  0  0  0  0
 23 25  2  0  0  0  0
 22 23  1  0  0  0  0
 24 26  1  0  0  0  0
 22 24  2  0  0  0  0
 25 27  1  0  0  0  0
 26 27  2  0  0  0  0
 21 22  1  0  0  0  0
 27 28  1  0  0  0  0
  1  3  1  0  0  0  0
  1  7  1  0  0  0  0
  1  2  2  0  0  0  0
 39 40  1  0  0  0  0
 40 48  1  0  0  0  0
 40 41  2  0  0  0  0
  8  9  1  0  0  0  0
  9 17  1  0  0  0  0
  9 10  2  0  0  0  0
 18 19  1  0  0  0  0
 19 38  1  0  0  0  0
 19 20  2  0  0  0  0
 39 42  1  0  0  0  0
  8 11  1  0  0  0  0
 48 49  1  0  0  0  0
 18 21  1  0  0  0  0
 38 39  1  0  0  0  0
  7  8  1  0  0  0  0
 17 18  1  0  0  0  0
 23 33  1  0  0  0  0
 24 34  1  0  0  0  0
 25 35  1  0  0  0  0
 26 36  1  0  0  0  0
  3  4  1  0  0  0  0
  3  5  1  0  0  0  0
  3  6  1  0  0  0  0
 42 45  1  0  0  0  0
 42 46  1  0  0  0  0
 42 47  1  0  0  0  0
 11 14  1  0  0  0  0
 11 15  1  0  0  0  0
 11 16  1  0  0  0  0
 49 51  1  0  0  0  0
 49 52  1  0  0  0  0
 49 53  1  0  0  0  0
 21 31  1  0  0  0  0
 21 32  1  0  0  0  0
 39 44  1  0  0  0  0
  8 13  1  0  0  0  0
 18 30  1  0  0  0  0
 48 50  1  0  0  0  0
  7 12  1  0  0  0  0
 38 43  1  0  0  0  0
 17 29  1  0  0  0  0
 28 37  1  0  0  0  0
M  END
$$$$

  -OEChem-05262214473D

 53 53  0     1  0  0  0  0  0999 V2000
   -1.9298    0.2574    3.9747 C   0  0  0  0  0  0  0  0  0  0  0  0
   -0.9825   -0.3573    3.4990 O   0  0  0  0  0  0  0  0  0  0  0  0
   -2.3617   -0.0250    5.3754 C   0  0  0  0  0  0  0  0  0  0  0  0
   -3.1214   -0.8213    5.4288 H   0  0  0  0  0  0  0  0  0  0  0  0
   -1.5305   -0.3726    6.0097 H   0  0  0  0  0  0  0  0  0  0  0  0
   -2.7997    0.8299    5.9150 H   0  0  0  0  0  0  0  0  0  0  0  0
   -2.6795    1.2298    3.3336 N   0  0  0  0  0  0  0  0  0  0  0  0
   -2.4327    1.6559    1.9812 C   0  0  2  0  0  0  0  0  0  0  0  0
   -1.0977    1.0705    1.5400 C   0  0  0  0  0  0  0  0  0  0  0  0
   -0.2256    0.7177    2.3313 O   0  0  0  0  0  0  0  0  0  0  0  0
   -2.4239    3.1726    1.8718 C   0  0  0  0  0  0  0  0  0  0  0  0
   -3.4446    1.6657    3.8454 H   0  0  0  0  0  0  0  0  0  0  0  0
   -3.2368    1.2374    1.3661 H   0  0  0  0  0  0  0  0  0  0  0  0
   -1.6248    3.6099    2.4815 H   0  0  0  0  0  0  0  0  0  0  0  0
   -2.2644    3.4949    0.8375 H   0  0  0  0  0  0  0  0  0  0  0  0
   -3.3741    3.5939    2.2175 H   0  0  0  0  0  0  0  0  0  0  0  0
   -0.9750    1.0274    0.1566 N   0  0  0  0  0  0  0  0  0  0  0  0
    0.2023    0.5266   -0.5070 C   0  0  2  0  0  0  0  0  0  0  0  0
    0.5979   -0.7687    0.1929 C   0  0  0  0  0  0  0  0  0  0  0  0
    1.1025   -0.7967    1.3134 O   0  0  0  0  0  0  0  0  0  0  0  0
    1.3608    1.5297   -0.4662 C   0  0  0  0  0  0  0  0  0  0  0  0
    1.0856    2.7724   -1.2772 C   0  0  0  0  0  0  0  0  0  0  0  0
    1.2724    2.7589   -2.6595 C   0  0  0  0  0  0  0  0  0  0  0  0
    0.6451    3.9348   -0.6443 C   0  0  0  0  0  0  0  0  0  0  0  0
    1.0185    3.9077   -3.4088 C   0  0  0  0  0  0  0  0  0  0  0  0
    0.3913    5.0836   -1.3936 C   0  0  0  0  0  0  0  0  0  0  0  0
    0.5780    5.0700   -2.7759 C   0  0  0  0  0  0  0  0  0  0  0  0
    0.3317    6.1912   -3.5071 O   0  0  0  0  0  0  0  0  0  0  0  0
   -1.7582    1.3241   -0.4207 H   0  0  0  0  0  0  0  0  0  0  0  0
   -0.0926    0.3015   -1.5387 H   0  0  0  0  0  0  0  0  0  0  0  0
    2.2869    1.0559   -0.8190 H   0  0  0  0  0  0  0  0  0  0  0  0
    1.5689    1.8334    0.5683 H   0  0  0  0  0  0  0  0  0  0  0  0
    1.6152    1.8578   -3.1609 H   0  0  0  0  0  0  0  0  0  0  0  0
    0.4967    3.9545    0.4323 H   0  0  0  0  0  0  0  0  0  0  0  0
    1.1662    3.8910   -4.4854 H   0  0  0  0  0  0  0  0  0  0  0  0
    0.0488    5.9858   -0.8948 H   0  0  0  0  0  0  0  0  0  0  0  0
    0.0340    6.9114   -2.9287 H   0  0  0  0  0  0  0  0  0  0  0  0
    0.2741   -1.8872   -0.5624 N   0  0  0  0  0  0  0  0  0  0  0  0
    0.5205   -3.2413   -0.1212 C   0  0  2  0  0  0  0  0  0  0  0  0
    1.9688   -3.3288    0.3418 C   0  0  0  0  0  0  0  0  0  0  0  0
    2.8404   -2.5460   -0.0304 O   0  0  0  0  0  0  0  0  0  0  0  0
    0.2429   -4.2439   -1.2304 C   0  0  0  0  0  0  0  0  0  0  0  0
   -0.1579   -1.7471   -1.4710 H   0  0  0  0  0  0  0  0  0  0  0  0
   -0.1467   -3.4234    0.7283 H   0  0  0  0  0  0  0  0  0  0  0  0
    0.9019   -4.0771   -2.0902 H   0  0  0  0  0  0  0  0  0  0  0  0
    0.4026   -5.2710   -0.8860 H   0  0  0  0  0  0  0  0  0  0  0  0
   -0.7908   -4.1591   -1.5826 H   0  0  0  0  0  0  0  0  0  0  0  0
    2.1825   -4.4098    1.1855 N   0  0  0  0  0  0  0  0  0  0  0  0
    3.4769   -4.7151    1.7488 C   0  0  0  0  0  0  0  0  0  0  0  0
    1.3979   -4.9953    1.4560 H   0  0  0  0  0  0  0  0  0  0  0  0
    4.0036   -5.4257    1.0949 H   0  0  0  0  0  0  0  0  0  0  0  0
    4.0664   -3.7904    1.8353 H   0  0  0  0  0  0  0  0  0  0  0  0
    3.3468   -5.1616    2.7457 H   0  0  0  0  0  0  0  0  0  0  0  0
 23 25  2  0  0  0  0
 22 23  1  0  0  0  0
 24 26  1  0  0  0  0
 22 24  2  0  0  0  0
 25 27  1  0  0  0  0
 26 27  2  0  0  0  0
 21 22  1  0  0  0  0
 27 28  1  0  0  0  0
  1  3  1  0  0  0  0
  1  7  1  0  0  0  0
  1  2  2  0  0  0  0
 39 40  1  0  0  0  0
 40 48  1  0  0  0  0
 40 41  2  0  0  0  0
  8  9  1  0  0  0  0
  9 17  1  0  0  0  0
  9 10  2  0  0  0  0
 18 19  1  0  0  0  0
 19 38  1  0  0  0  0
 19 20  2  0  0  0  0
 39 42  1  0  0  0  0
  8 11  1  0  0  0  0
 48 49  1  0  0  0  0
 18 21  1  0  0  0  0
 38 39  1  0  0  0  0
  7  8  1  0  0  0  0
 17 18  1  0  0  0  0
 23 33  1  0  0  0  0
 24 34  1  0  0  0  0
 25 35  1  0  0  0  0
 26 36  1  0  0  0  0
  3  4  1  0  0  0  0
  3  5  1  0  0  0  0
  3  6  1  0  0  0  0
 42 45  1  0  0  0  0
 42 46  1  0  0  0  0
 42 47  1  0  0  0  0
 11 14  1  0  0  0  0
 11 15  1  0  0  0  0
 11 16  1  0  0  0  0
 49 51  1  0  0  0  0
 49 52  1  0  0  0  0
 49 53  1  0  0  0  0
 21 31  1  0  0  0  0
 21 32  1  0  0  0  0
 39 44  1  0  0  0  0
  8 13  1  0  0  0  0
 18 30  1  0  0  0  0
 48 50  1  0  0  0  0
  7 12  1  0  0  0  0
 38 43  1  0  0  0  0
 17 29  1  0  0  0  0
 28 37  1  0  0  0  0
M  END
$$$$

  -OEChem-05262214473D

 53 53  0     1  0  0  0  0  0999 V2000
   -1.9298    0.2574    3.9747 C   0  0  0  0  0  0  0  0  0  0  0  0
   -0.9825   -0.3573    3.4990 O   0  0  0  0  0  0  0  0  0  0  0  0
   -2.3617   -0.0250    5.3754 C   0  0  0  0  0  0  0  0  0  0  0  0
   -3.1214   -0.8213    5.4288 H   0  0  0  0  0  0  0  0  0  0  0  0
   -1.5305   -0.3726    6.0097 H   0  0  0  0  0  0  0  0  0  0  0  0
   -2.7997    0.8299    5.9150 H   0  0  0  0  0  0  0  0  0  0  0  0
   -2.6795    1.2298    3.3336 N   0  0  0  0  0  0  0  0  0  0  0  0
   -2.4327    1.6559    1.9812 C   0  0  2  0  0  0  0  0  0  0  0  0
   -1.0977    1.0705    1.5400 C   0  0  0  0  0  0  0  0  0  0  0  0
   -0.2256    0.7177    2.3313 O   0  0  0  0  0  0  0  0  0  0  0  0
   -2.4239    3.1726    1.8718 C   0  0  0  0  0  0  0  0  0  0  0  0
   -3.4446    1.6657    3.8454 H   0  0  0  0  0  0  0  0  0  0  0  0
   -3.2368    1.2374    1.3661 H   0  0  0  0  0  0  0  0  0  0  0  0
   -1.6248    3.6099    2.4815 H   0  0  0  0  0  0  0  0  0  0  0  0
   -2.2644    3.4949    0.8375 H   0  0  0  0  0  0  0  0  0  0  0  0
   -3.3741    3.5939    2.2175 H   0  0  0  0  0  0  0  0  0  0  0  0
   -0.9750    1.0274    0.1566 N   0  0  0  0  0  0  0  0  0  0  0  0
    0.2023    0.5266   -0.5070 C   0  0  2  0  0  0  0  0  0  0  0  0
    0.5979   -0.7687    0.1929 C   0  0  0  0  0  0  0  0  0  0  0  0
    0.8481   -0.8304    1.3947 O   0  0  0  0  0  0  0  0  0  0  0  0
    1.3608    1.5297   -0.4662 C   0  0  0  0  0  0  0  0  0  0  0  0
    1.0856    2.7724   -1.2772 C   0  0  0  0  0  0  0  0  0  0  0  0
    1.2724    2.7589   -2.6595 C   0  0  0  0  0  0  0  0  0  0  0  0
    0.6451    3.9348   -0.6443 C   0  0  0  0  0  0  0  0  0  0  0  0
    1.0185    3.9077   -3.4088 C   0  0  0  0  0  0  0  0  0  0  0  0
    0.3913    5.0836   -1.3936 C   0  0  0  0  0  0  0  0  0  0  0  0
    0.5780    5.0700   -2.7759 C   0  0  0  0  0  0  0  0  0  0  0  0
    0.3317    6.1912   -3.5071 O   0  0  0  0  0  0  0  0  0  0  0  0
   -1.7582    1.3241   -0.4207 H   0  0  0  0  0  0  0  0  0  0  0  0
   -0.0926    0.3015   -1.5387 H   0  0  0  0  0  0  0  0  0  0  0  0
    2.2869    1.0559   -0.8190 H   0  0  0  0  0  0  0  0  0  0  0  0
    1.5689    1.8334    0.5683 H   0  0  0  0  0  0  0  0  0  0  0  0
    1.6152    1.8578   -3.1609 H   0  0  0  0  0  0  0  0  0  0  0  0
    0.4967    3.9545    0.4323 H   0  0  0  0  0  0  0  0  0  0  0  0
    1.1662    3.8910   -4.4854 H   0  0  0  0  0  0  0  0  0  0  0  0
    0.0488    5.9858   -0.8948 H   0  0  0  0  0  0  0  0  0  0  0  0
    0.0340    6.9114   -2.9287 H   0  0  0  0  0  0  0  0  0  0  0  0
    0.5887   -1.8519   -0.6749 N   0  0  0  0  0  0  0  0  0  0  0  0
    0.9031   -3.2012   -0.2633 C   0  0  2  0  0  0  0  0  0  0  0  0
    2.2165   -3.1639    0.5068 C   0  0  0  0  0  0  0  0  0  0  0  0
    3.0419   -2.2616    0.3821 O   0  0  0  0  0  0  0  0  0  0  0  0
    1.0004   -4.1359   -1.4589 C   0  0  0  0  0  0  0  0  0  0  0  0
    0.3489   -1.6881   -1.6483 H   0  0  0  0  0  0  0  0  0  0  0  0
    0.0967   -3.5242    0.4041 H   0  0  0  0  0  0  0  0  0  0  0  0
    1.8030   -3.8282   -2.1390 H   0  0  0  0  0  0  0  0  0  0  0  0
    1.2104   -5.1632   -1.1433 H   0  0  0  0  0  0  0  0  0  0  0  0
    0.0649   -4.1387   -2.0286 H   0  0  0  0  0  0  0  0  0  0  0  0
    2.3779   -4.2788    1.3176 N   0  0  0  0  0  0  0  0  0  0  0  0
    3.5481   -4.4824    2.1391 C   0  0  0  0  0  0  0  0  0  0  0  0
    1.6338   -4.9679    1.3735 H   0  0  0  0  0  0  0  0  0  0  0  0
    4.2890   -5.0751    1.5824 H   0  0  0  0  0  0  0  0  0  0  0  0
    3.9834   -3.5079    2.4052 H   0  0  0  0  0  0  0  0  0  0  0  0
    3.2634   -5.0194    3.0560 H   0  0  0  0  0  0  0  0  0  0  0  0
 23 25  2  0  0  0  0
 22 23  1  0  0  0  0
 24 26  1  0  0  0  0
 22 24  2  0  0  0  0
 25 27  1  0  0  0  0
 26 27  2  0  0  0  0
 21 22  1  0  0  0  0
 27 28  1  0  0  0  0
  1  3  1  0  0  0  0
  1  7  1  0  0  0  0
  1  2  2  0  0  0  0
 39 40  1  0  0  0  0
 40 48  1  0  0  0  0
 40 41  2  0  0  0  0
  8  9  1  0  0  0  0
  9 17  1  0  0  0  0
  9 10  2  0  0  0  0
 18 19  1  0  0  0  0
 19 38  1  0  0  0  0
 19 20  2  0  0  0  0
 39 42  1  0  0  0  0
  8 11  1  0  0  0  0
 48 49  1  0  0  0  0
 18 21  1  0  0  0  0
 38 39  1  0  0  0  0
  7  8  1  0  0  0  0
 17 18  1  0  0  0  0
 23 33  1  0  0  0  0
 24 34  1  0  0  0  0
 25 35  1  0  0  0  0
 26 36  1  0  0  0  0
  3  4  1  0  0  0  0
  3  5  1  0  0  0  0
  3  6  1  0  0  0  0
 42 45  1  0  0  0  0
 42 46  1  0  0  0  0
 42 47  1  0  0  0  0
 11 14  1  0  0  0  0
 11 15  1  0  0  0  0
 11 16  1  0  0  0  0
 49 51  1  0  0  0  0
 49 52  1  0  0  0  0
 49 53  1  0  0  0  0
 21 31  1  0  0  0  0
 21 32  1  0  0  0  0
 39 44  1  0  0  0  0
  8 13  1  0  0  0  0
 18 30  1  0  0  0  0
 48 50  1  0  0  0  0
  7 12  1  0  0  0  0
 38 43  1  0  0  0  0
 17 29  1  0  0  0  0
 28 37  1  0  0  0  0
M  END
$$$$

  -OEChem-05262214473D

 53 53  0     1  0  0  0  0  0999 V2000
   -1.9298    0.2574    3.9747 C   0  0  0  0  0  0  0  0  0  0  0  0
   -0.9825   -0.3573    3.4990 O   0  0  0  0  0  0  0  0  0  0  0  0
   -2.3617   -0.0250    5.3754 C   0  0  0  0  0  0  0  0  0  0  0  0
   -3.1214   -0.8213    5.4288 H   0  0  0  0  0  0  0  0  0  0  0  0
   -1.5305   -0.3726    6.0097 H   0  0  0  0  0  0  0  0  0  0  0  0
   -2.7997    0.8299    5.9150 H   0  0  0  0  0  0  0  0  0  0  0  0
   -2.6795    1.2298    3.3336 N   0  0  0  0  0  0  0  0  0  0  0  0
   -2.4327    1.6559    1.9812 C   0  0  2  0  0  0  0  0  0  0  0  0
   -1.0977    1.0705    1.5400 C   0  0  0  0  0  0  0  0  0  0  0  0
   -0.2256    0.7177    2.3313 O   0  0  0  0  0  0  0  0  0  0  0  0
   -2.4239    3.1726    1.8718 C   0  0  0  0  0  0  0  0  0  0  0  0
   -3.4446    1.6657    3.8454 H   0  0  0  0  0  0  0  0  0  0  0  0
   -3.2368    1.2374    1.3661 H   0  0  0  0  0  0  0  0  0  0  0  0
   -1.6248    3.6099    2.4815 H   0  0  0  0  0  0  0  0  0  0  0  0
   -2.2644    3.4949    0.8375 H   0  0  0  0  0  0  0  0  0  0  0  0
   -3.3741    3.5939    2.2175 H   0  0  0  0  0  0  0  0  0  0  0  0
   -0.9750    1.0274    0.1566 N   0  0  0  0  0  0  0  0  0  0  0  0
    0.2023    0.5266   -0.5070 C   0  0  2  0  0  0  0  0  0  0  0  0
    0.5979   -0.7687    0.1929 C   0  0  0  0  0  0  0  0  0  0  0  0
    0.5886   -0.8987    1.4151 O   0  0  0  0  0  0  0  0  0  0  0  0
    1.3608    1.5297   -0.4662 C   0  0  0  0  0  0  0  0  0  0  0  0
    1.0856    2.7724   -1.2772 C   0  0  0  0  0  0  0  0  0  0  0  0
    1.2724    2.7589   -2.6595 C   0  0  0  0  0  0  0  0  0  0  0  0
    0.6451    3.9348   -0.6443 C   0  0  0  0  0  0  0  0  0  0  0  0
    1.0185    3.9077   -3.4088 C   0  0  0  0  0  0  0  0  0  0  0  0
    0.3913    5.0836   -1.3936 C   0  0  0  0  0  0  0  0  0  0  0  0
    0.5780    5.0700   -2.7759 C   0  0  0  0  0  0  0  0  0  0  0  0
    0.3317    6.1912   -3.5071 O   0  0  0  0  0  0  0  0  0  0  0  0
   -1.7582    1.3241   -0.4207 H   0  0  0  0  0  0  0  0  0  0  0  0
   -0.0926    0.3015   -1.5387 H   0  0  0  0  0  0  0  0  0  0  0  0
    2.2869    1.0559   -0.8190 H   0  0  0  0  0  0  0  0  0  0  0  0
    1.5689    1.8334    0.5683 H   0  0  0  0  0  0  0  0  0  0  0  0
    1.6152    1.8578   -3.1609 H   0  0  0  0  0  0  0  0  0  0  0  0
    0.4967    3.9545    0.4323 H   0  0  0  0  0  0  0  0  0  0  0  0
    1.1662    3.8910   -4.4854 H   0  0  0  0  0  0  0  0  0  0  0  0
    0.0488    5.9858   -0.8948 H   0  0  0  0  0  0  0  0  0  0  0  0
    0.0340    6.9114   -2.9287 H   0  0  0  0  0  0  0  0  0  0  0  0
    0.9131   -1.7729   -0.7120 N   0  0  0  0  0  0  0  0  0  0  0  0
    1.2992   -3.1075   -0.3137 C   0  0  2  0  0  0  0  0  0  0  0  0
    2.3999   -2.9863    0.7319 C   0  0  0  0  0  0  0  0  0  0  0  0
    3.1120   -1.9906    0.8439 O   0  0  0  0  0  0  0  0  0  0  0  0
    1.7695   -3.9263   -1.5058 C   0  0  0  0  0  0  0  0  0  0  0  0
    0.8703   -1.5590   -1.7041 H   0  0  0  0  0  0  0  0  0  0  0  0
    0.4152   -3.5709    0.1377 H   0  0  0  0  0  0  0  0  0  0  0  0
    2.6545   -3.4774   -1.9712 H   0  0  0  0  0  0  0  0  0  0  0  0
    2.0345   -4.9459   -1.2070 H   0  0  0  0  0  0  0  0  0  0  0  0
    0.9870   -3.9874   -2.2698 H   0  0  0  0  0  0  0  0  0  0  0  0
    2.5220   -4.1379    1.4968 N   0  0  0  0  0  0  0  0  0  0  0  0
    3.5035   -4.2755    2.5475 C   0  0  0  0  0  0  0  0  0  0  0  0
    1.8765   -4.9078    1.3475 H   0  0  0  0  0  0  0  0  0  0  0  0
    4.4158   -4.7352    2.1397 H   0  0  0  0  0  0  0  0  0  0  0  0
    3.7443   -3.2831    2.9563 H   0  0  0  0  0  0  0  0  0  0  0  0
    3.0977   -4.9128    3.3469 H   0  0  0  0  0  0  0  0  0  0  0  0
 23 25  2  0  0  0  0
 22 23  1  0  0  0  0
 24 26  1  0  0  0  0
 22 24  2  0  0  0  0
 25 27  1  0  0  0  0
 26 27  2  0  0  0  0
 21 22  1  0  0  0  0
 27 28  1  0  0  0  0
  1  3  1  0  0  0  0
  1  7  1  0  0  0  0
  1  2  2  0  0  0  0
 39 40  1  0  0  0  0
 40 48  1  0  0  0  0
 40 41  2  0  0  0  0
  8  9  1  0  0  0  0
  9 17  1  0  0  0  0
  9 10  2  0  0  0  0
 18 19  1  0  0  0  0
 19 38  1  0  0  0  0
 19 20  2  0  0  0  0
 39 42  1  0  0  0  0
  8 11  1  0  0  0  0
 48 49  1  0  0  0  0
 18 21  1  0  0  0  0
 38 39  1  0  0  0  0
  7  8  1  0  0  0  0
 17 18  1  0  0  0  0
 23 33  1  0  0  0  0
 24 34  1  0  0  0  0
 25 35  1  0  0  0  0
 26 36  1  0  0  0  0
  3  4  1  0  0  0  0
  3  5  1  0  0  0  0
  3  6  1  0  0  0  0
 42 45  1  0  0  0  0
 42 46  1  0  0  0  0
 42 47  1  0  0  0  0
 11 14  1  0  0  0  0
 11 15  1  0  0  0  0
 11 16  1  0  0  0  0
 49 51  1  0  0  0  0
 49 52  1  0  0  0  0
 49 53  1  0  0  0  0
 21 31  1  0  0  0  0
 21 32  1  0  0  0  0
 39 44  1  0  0  0  0
  8 13  1  0  0  0  0
 18 30  1  0  0  0  0
 48 50  1  0  0  0  0
  7 12  1  0  0  0  0
 38 43  1  0  0  0  0
 17 29  1  0  0  0  0
 28 37  1  0  0  0  0
M  END
$$$$

  -OEChem-05262214473D

 53 53  0     1  0  0  0  0  0999 V2000
   -1.9298    0.2574    3.9747 C   0  0  0  0  0  0  0  0  0  0  0  0
   -0.9825   -0.3573    3.4990 O   0  0  0  0  0  0  0  0  0  0  0  0
   -2.3617   -0.0250    5.3754 C   0  0  0  0  0  0  0  0  0  0  0  0
   -3.1214   -0.8213    5.4288 H   0  0  0  0  0  0  0  0  0  0  0  0
   -1.5305   -0.3726    6.0097 H   0  0  0  0  0  0  0  0  0  0  0  0
   -2.7997    0.8299    5.9150 H   0  0  0  0  0  0  0  0  0  0  0  0
   -2.6795    1.2298    3.3336 N   0  0  0  0  0  0  0  0  0  0  0  0
   -2.4327    1.6559    1.9812 C   0  0  2  0  0  0  0  0  0  0  0  0
   -1.0977    1.0705    1.5400 C   0  0  0  0  0  0  0  0  0  0  0  0
   -0.2256    0.7177    2.3313 O   0  0  0  0  0  0  0  0  0  0  0  0
   -2.4239    3.1726    1.8718 C   0  0  0  0  0  0  0  0  0  0  0  0
   -3.4446    1.6657    3.8454 H   0  0  0  0  0  0  0  0  0  0  0  0
   -3.2368    1.2374    1.3661 H   0  0  0  0  0  0  0  0  0  0  0  0
   -1.6248    3.6099    2.4815 H   0  0  0  0  0  0  0  0  0  0  0  0
   -2.2644    3.4949    0.8375 H   0  0  0  0  0  0  0  0  0  0  0  0
   -3.3741    3.5939    2.2175 H   0  0  0  0  0  0  0  0  0  0  0  0
   -0.9750    1.0274    0.1566 N   0  0  0  0  0  0  0  0  0  0  0  0
    0.2023    0.5266   -0.5070 C   0  0  2  0  0  0  0  0  0  0  0  0
    0.5979   -0.7687    0.1929 C   0  0  0  0  0  0  0  0  0  0  0  0
    0.3415   -0.9968    1.3731 O   0  0  0  0  0  0  0  0  0  0  0  0
    1.3608    1.5297   -0.4662 C   0  0  0  0  0  0  0  0  0  0  0  0
    1.0856    2.7724   -1.2772 C   0  0  0  0  0  0  0  0  0  0  0  0
    1.2724    2.7589   -2.6595 C   0  0  0  0  0  0  0  0  0  0  0  0
    0.6451    3.9348   -0.6443 C   0  0  0  0  0  0  0  0  0  0  0  0
    1.0185    3.9077   -3.4088 C   0  0  0  0  0  0  0  0  0  0  0  0
    0.3913    5.0836   -1.3936 C   0  0  0  0  0  0  0  0  0  0  0  0
    0.5780    5.0700   -2.7759 C   0  0  0  0  0  0  0  0  0  0  0  0
    0.3317    6.1912   -3.5071 O   0  0  0  0  0  0  0  0  0  0  0  0
   -1.7582    1.3241   -0.4207 H   0  0  0  0  0  0  0  0  0  0  0  0
   -0.0926    0.3015   -1.5387 H   0  0  0  0  0  0  0  0  0  0  0  0
    2.2869    1.0559   -0.8190 H   0  0  0  0  0  0  0  0  0  0  0  0
    1.5689    1.8334    0.5683 H   0  0  0  0  0  0  0  0  0  0  0  0
    1.6152    1.8578   -3.1609 H   0  0  0  0  0  0  0  0  0  0  0  0
    0.4967    3.9545    0.4323 H   0  0  0  0  0  0  0  0  0  0  0  0
    1.1662    3.8910   -4.4854 H   0  0  0  0  0  0  0  0  0  0  0  0
    0.0488    5.9858   -0.8948 H   0  0  0  0  0  0  0  0  0  0  0  0
    0.0340    6.9114   -2.9287 H   0  0  0  0  0  0  0  0  0  0  0  0
    1.2253   -1.6555   -0.6712 N   0  0  0  0  0  0  0  0  0  0  0  0
    1.6817   -2.9665   -0.2691 C   0  0  2  0  0  0  0  0  0  0  0  0
    2.5064   -2.8081    1.0014 C   0  0  0  0  0  0  0  0  0  0  0  0
    3.0459   -1.7516    1.3236 O   0  0  0  0  0  0  0  0  0  0  0  0
    2.4978   -3.6293   -1.3678 C   0  0  0  0  0  0  0  0  0  0  0  0
    1.3710   -1.3685   -1.6346 H   0  0  0  0  0  0  0  0  0  0  0  0
    0.7869   -3.5603   -0.0527 H   0  0  0  0  0  0  0  0  0  0  0  0
    3.3985   -3.0487   -1.5984 H   0  0  0  0  0  0  0  0  0  0  0  0
    2.8187   -4.6338   -1.0726 H   0  0  0  0  0  0  0  0  0  0  0  0
    1.9128   -3.7154   -2.2899 H   0  0  0  0  0  0  0  0  0  0  0  0
    2.6050   -3.9967    1.7112 N   0  0  0  0  0  0  0  0  0  0  0  0
    3.3459   -4.1083    2.9459 C   0  0  0  0  0  0  0  0  0  0  0  0
    2.1095   -4.8192    1.3798 H   0  0  0  0  0  0  0  0  0  0  0  0
    4.3753   -4.4293    2.7287 H   0  0  0  0  0  0  0  0  0  0  0  0
    3.3655   -3.1314    3.4512 H   0  0  0  0  0  0  0  0  0  0  0  0
    2.8610   -4.8491    3.5987 H   0  0  0  0  0  0  0  0  0  0  0  0
 23 25  2  0  0  0  0
 22 23  1  0  0  0  0
 24 26  1  0  0  0  0
 22 24  2  0  0  0  0
 25 27  1  0  0  0  0
 26 27  2  0  0  0  0
 21 22  1  0  0  0  0
 27 28  1  0  0  0  0
  1  3  1  0  0  0  0
  1  7  1  0  0  0  0
  1  2  2  0  0  0  0
 39 40  1  0  0  0  0
 40 48  1  0  0  0  0
 40 41  2  0  0  0  0
  8  9  1  0  0  0  0
  9 17  1  0  0  0  0
  9 10  2  0  0  0  0
 18 19  1  0  0  0  0
 19 38  1  0  0  0  0
 19 20  2  0  0  0  0
 39 42  1  0  0  0  0
  8 11  1  0  0  0  0
 48 49  1  0  0  0  0
 18 21  1  0  0  0  0
 38 39  1  0  0  0  0
  7  8  1  0  0  0  0
 17 18  1  0  0  0  0
 23 33  1  0  0  0  0
 24 34  1  0  0  0  0
 25 35  1  0  0  0  0
 26 36  1  0  0  0  0
  3  4  1  0  0  0  0
  3  5  1  0  0  0  0
  3  6  1  0  0  0  0
 42 45  1  0  0  0  0
 42 46  1  0  0  0  0
 42 47  1  0  0  0  0
 11 14  1  0  0  0  0
 11 15  1  0  0  0  0
 11 16  1  0  0  0  0
 49 51  1  0  0  0  0
 49 52  1  0  0  0  0
 49 53  1  0  0  0  0
 21 31  1  0  0  0  0
 21 32  1  0  0  0  0
 39 44  1  0  0  0  0
  8 13  1  0  0  0  0
 18 30  1  0  0  0  0
 48 50  1  0  0  0  0
  7 12  1  0  0  0  0
 38 43  1  0  0  0  0
 17 29  1  0  0  0  0
 28 37  1  0  0  0  0
M  END
$$$$

  -OEChem-05262214473D

 53 53  0     1  0  0  0  0  0999 V2000
   -1.9298    0.2574    3.9747 C   0  0  0  0  0  0  0  0  0  0  0  0
   -0.9825   -0.3573    3.4990 O   0  0  0  0  0  0  0  0  0  0  0  0
   -2.3617   -0.0250    5.3754 C   0  0  0  0  0  0  0  0  0  0  0  0
   -3.1214   -0.8213    5.4288 H   0  0  0  0  0  0  0  0  0  0  0  0
   -1.5305   -0.3726    6.0097 H   0  0  0  0  0  0  0  0  0  0  0  0
   -2.7997    0.8299    5.9150 H   0  0  0  0  0  0  0  0  0  0  0  0
   -2.6795    1.2298    3.3336 N   0  0  0  0  0  0  0  0  0  0  0  0
   -2.4327    1.6559    1.9812 C   0  0  2  0  0  0  0  0  0  0  0  0
   -1.0977    1.0705    1.5400 C   0  0  0  0  0  0  0  0  0  0  0  0
   -0.2256    0.7177    2.3313 O   0  0  0  0  0  0  0  0  0  0  0  0
   -2.4239    3.1726    1.8718 C   0  0  0  0  0  0  0  0  0  0  0  0
   -3.4446    1.6657    3.8454 H   0  0  0  0  0  0  0  0  0  0  0  0
   -3.2368    1.2374    1.3661 H   0  0  0  0  0  0  0  0  0  0  0  0
   -1.6248    3.6099    2.4815 H   0  0  0  0  0  0  0  0  0  0  0  0
   -2.2644    3.4949    0.8375 H   0  0  0  0  0  0  0  0  0  0  0  0
   -3.3741    3.5939    2.2175 H   0  0  0  0  0  0  0  0  0  0  0  0
   -0.9750    1.0274    0.1566 N   0  0  0  0  0  0  0  0  0  0  0  0
    0.2023    0.5266   -0.5070 C   0  0  2  0  0  0  0  0  0  0  0  0
    0.5979   -0.7687    0.1929 C   0  0  0  0  0  0  0  0  0  0  0  0
    0.1237   -1.1182    1.2717 O   0  0  0  0  0  0  0  0  0  0  0  0
    1.3608    1.5297   -0.4662 C   0  0  0  0  0  0  0  0  0  0  0  0
    1.0856    2.7724   -1.2772 C   0  0  0  0  0  0  0  0  0  0  0  0
    1.2724    2.7589   -2.6595 C   0  0  0  0  0  0  0  0  0  0  0  0
    0.6451    3.9348   -0.6443 C   0  0  0  0  0  0  0  0  0  0  0  0
    1.0185    3.9077   -3.4088 C   0  0  0  0  0  0  0  0  0  0  0  0
    0.3913    5.0836   -1.3936 C   0  0  0  0  0  0  0  0  0  0  0  0
    0.5780    5.0700   -2.7759 C   0  0  0  0  0  0  0  0  0  0  0  0
    0.3317    6.1912   -3.5071 O   0  0  0  0  0  0  0  0  0  0  0  0
   -1.7582    1.3241   -0.4207 H   0  0  0  0  0  0  0  0  0  0  0  0
   -0.0926    0.3015   -1.5387 H   0  0  0  0  0  0  0  0  0  0  0  0
    2.2869    1.0559   -0.8190 H   0  0  0  0  0  0  0  0  0  0  0  0
    1.5689    1.8334    0.5683 H   0  0  0  0  0  0  0  0  0  0  0  0
    1.6152    1.8578   -3.1609 H   0  0  0  0  0  0  0  0  0  0  0  0
    0.4967    3.9545    0.4323 H   0  0  0  0  0  0  0  0  0  0  0  0
    1.1662    3.8910   -4.4854 H   0  0  0  0  0  0  0  0  0  0  0  0
    0.0488    5.9858   -0.8948 H   0  0  0  0  0  0  0  0  0  0  0  0
    0.0340    6.9114   -2.9287 H   0  0  0  0  0  0  0  0  0  0  0  0
    1.5039   -1.5077   -0.5552 N   0  0  0  0  0  0  0  0  0  0  0  0
    2.0246   -2.7879   -0.1323 C   0  0  2  0  0  0  0  0  0  0  0  0
    2.5289   -2.6414    1.2973 C   0  0  0  0  0  0  0  0  0  0  0  0
    2.8482   -1.5608    1.7885 O   0  0  0  0  0  0  0  0  0  0  0  0
    3.1357   -3.2652   -1.0545 C   0  0  0  0  0  0  0  0  0  0  0  0
    1.8166   -1.1298   -1.4447 H   0  0  0  0  0  0  0  0  0  0  0  0
    1.1865   -3.4930   -0.1542 H   0  0  0  0  0  0  0  0  0  0  0  0
    3.9841   -2.5713   -1.0458 H   0  0  0  0  0  0  0  0  0  0  0  0
    3.5096   -4.2482   -0.7495 H   0  0  0  0  0  0  0  0  0  0  0  0
    2.7792   -3.3414   -2.0874 H   0  0  0  0  0  0  0  0  0  0  0  0
    2.6213   -3.8649    1.9459 N   0  0  0  0  0  0  0  0  0  0  0  0
    3.0862   -3.9923    3.3074 C   0  0  0  0  0  0  0  0  0  0  0  0
    2.3170   -4.7080    1.4682 H   0  0  0  0  0  0  0  0  0  0  0  0
    4.1704   -4.1783    3.3093 H   0  0  0  0  0  0  0  0  0  0  0  0
    2.8728   -3.0631    3.8561 H   0  0  0  0  0  0  0  0  0  0  0  0
    2.5694   -4.8325    3.7941 H   0  0  0  0  0  0  0  0  0  0  0  0
 23 25  2  0  0  0  0
 22 23  1  0  0  0  0
 24 26  1  0  0  0  0
 22 24  2  0  0  0  0
 25 27  1  0  0  0  0
 26 27  2  0  0  0  0
 21 22  1  0  0  0  0
 27 28  1  0  0  0  0
  1  3  1  0  0  0  0
  1  7  1  0  0  0  0
  1  2  2  0  0  0  0
 39 40  1  0  0  0  0
 40 48  1  0  0  0  0
 40 41  2  0  0  0  0
  8  9  1  0  0  0  0
  9 17  1  0  0  0  0
  9 10  2  0  0  0  0
 18 19  1  0  0  0  0
 19 38  1  0  0  0  0
 19 20  2  0  0  0  0
 39 42  1  0  0  0  0
  8 11  1  0  0  0  0
 48 49  1  0  0  0  0
 18 21  1  0  0  0  0
 38 39  1  0  0  0  0
  7  8  1  0  0  0  0
 17 18  1  0  0  0  0
 23 33  1  0  0  0  0
 24 34  1  0  0  0  0
 25 35  1  0  0  0  0
 26 36  1  0  0  0  0
  3  4  1  0  0  0  0
  3  5  1  0  0  0  0
  3  6  1  0  0  0  0
 42 45  1  0  0  0  0
 42 46  1  0  0  0  0
 42 47  1  0  0  0  0
 11 14  1  0  0  0  0
 11 15  1  0  0  0  0
 11 16  1  0  0  0  0
 49 51  1  0  0  0  0
 49 52  1  0  0  0  0
 49 53  1  0  0  0  0
 21 31  1  0  0  0  0
 21 32  1  0  0  0  0
 39 44  1  0  0  0  0
  8 13  1  0  0  0  0
 18 30  1  0  0  0  0
 48 50  1  0  0  0  0
  7 12  1  0  0  0  0
 38 43  1  0  0  0  0
 17 29  1  0  0  0  0
 28 37  1  0  0  0  0
M  END
$$$$

  -OEChem-05262214473D

 53 53  0     1  0  0  0  0  0999 V2000
   -1.9298    0.2574    3.9747 C   0  0  0  0  0  0  0  0  0  0  0  0
   -0.9825   -0.3573    3.4990 O   0  0  0  0  0  0  0  0  0  0  0  0
   -2.3617   -0.0250    5.3754 C   0  0  0  0  0  0  0  0  0  0  0  0
   -3.1214   -0.8213    5.4288 H   0  0  0  0  0  0  0  0  0  0  0  0
   -1.5305   -0.3726    6.0097 H   0  0  0  0  0  0  0  0  0  0  0  0
   -2.7997    0.8299    5.9150 H   0  0  0  0  0  0  0  0  0  0  0  0
   -2.6795    1.2298    3.3336 N   0  0  0  0  0  0  0  0  0  0  0  0
   -2.4327    1.6559    1.9812 C   0  0  2  0  0  0  0  0  0  0  0  0
   -1.0977    1.0705    1.5400 C   0  0  0  0  0  0  0  0  0  0  0  0
   -0.2256    0.7177    2.3313 O   0  0  0  0  0  0  0  0  0  0  0  0
   -2.4239    3.1726    1.8718 C   0  0  0  0  0  0  0  0  0  0  0  0
   -3.4446    1.6657    3.8454 H   0  0  0  0  0  0  0  0  0  0  0  0
   -3.2368    1.2374    1.3661 H   0  0  0  0  0  0  0  0  0  0  0  0
   -1.6248    3.6099    2.4815 H   0  0  0  0  0  0  0  0  0  0  0  0
   -2.2644    3.4949    0.8375 H   0  0  0  0  0  0  0  0  0  0  0  0
   -3.3741    3.5939    2.2175 H   0  0  0  0  0  0  0  0  0  0  0  0
   -0.9750    1.0274    0.1566 N   0  0  0  0  0  0  0  0  0  0  0  0
    0.2023    0.5266   -0.5070 C   0  0  2  0  0  0  0  0  0  0  0  0
    0.3797   -0.9250   -0.0763 C   0  0  0  0  0  0  0  0  0  0  0  0
   -0.4091   -1.5032    0.6683 O   0  0  0  0  0  0  0  0  0  0  0  0
    1.4533    1.3420   -0.1604 C   0  0  0  0  0  0  0  0  0  0  0  0
    1.4007    2.7499   -0.7014 C   0  0  0  0  0  0  0  0  0  0  0  0
    1.7259    2.9975   -2.0351 C   0  0  0  0  0  0  0  0  0  0  0  0
    1.0274    3.8039    0.1326 C   0  0  0  0  0  0  0  0  0  0  0  0
    1.6777    4.2988   -2.5347 C   0  0  0  0  0  0  0  0  0  0  0  0
    0.9793    5.1053   -0.3670 C   0  0  0  0  0  0  0  0  0  0  0  0
    1.3044    5.3528   -1.7007 C   0  0  0  0  0  0  0  0  0  0  0  0
    1.2588    6.6227   -2.1881 O   0  0  0  0  0  0  0  0  0  0  0  0
   -1.7582    1.3241   -0.4207 H   0  0  0  0  0  0  0  0  0  0  0  0
   -0.0079    0.5587   -1.5826 H   0  0  0  0  0  0  0  0  0  0  0  0
    2.3532    0.8357   -0.5351 H   0  0  0  0  0  0  0  0  0  0  0  0
    1.5860    1.3967    0.9282 H   0  0  0  0  0  0  0  0  0  0  0  0
    2.0176    2.1825   -2.6920 H   0  0  0  0  0  0  0  0  0  0  0  0
    0.7723    3.6203    1.1732 H   0  0  0  0  0  0  0  0  0  0  0  0
    1.9324    4.4854   -3.5746 H   0  0  0  0  0  0  0  0  0  0  0  0
    0.6882    5.9218    0.2877 H   0  0  0  0  0  0  0  0  0  0  0  0
    0.9839    7.2405   -1.4920 H   0  0  0  0  0  0  0  0  0  0  0  0
    1.4943   -1.5084   -0.6626 N   0  0  0  0  0  0  0  0  0  0  0  0
    1.8790   -2.8838   -0.4412 C   0  0  2  0  0  0  0  0  0  0  0  0
    1.8925   -3.1325    1.0613 C   0  0  0  0  0  0  0  0  0  0  0  0
    2.0127   -2.2318    1.8892 O   0  0  0  0  0  0  0  0  0  0  0  0
    3.2382   -3.1837   -1.0540 C   0  0  0  0  0  0  0  0  0  0  0  0
    2.0686   -0.9400   -1.2781 H   0  0  0  0  0  0  0  0  0  0  0  0
    1.1084   -3.5068   -0.9082 H   0  0  0  0  0  0  0  0  0  0  0  0
    4.0231   -2.5689   -0.5987 H   0  0  0  0  0  0  0  0  0  0  0  0
    3.5154   -4.2333   -0.9103 H   0  0  0  0  0  0  0  0  0  0  0  0
    3.2352   -2.9760   -2.1295 H   0  0  0  0  0  0  0  0  0  0  0  0
    1.7978   -4.4828    1.3677 N   0  0  0  0  0  0  0  0  0  0  0  0
    1.8020   -4.9764    2.7250 C   0  0  0  0  0  0  0  0  0  0  0  0
    1.6823   -5.1584    0.6180 H   0  0  0  0  0  0  0  0  0  0  0  0
    2.8315   -5.2247    3.0222 H   0  0  0  0  0  0  0  0  0  0  0  0
    1.4027   -4.2029    3.3975 H   0  0  0  0  0  0  0  0  0  0  0  0
    1.1745   -5.8775    2.7892 H   0  0  0  0  0  0  0  0  0  0  0  0
 23 25  2  0  0  0  0
 22 23  1  0  0  0  0
 24 26  1  0  0  0  0
 22 24  2  0  0  0  0
 25 27  1  0  0  0  0
 26 27  2  0  0  0  0
 21 22  1  0  0  0  0
 27 28  1  0  0  0  0
  1  3  1  0  0  0  0
  1  7  1  0  0  0  0
  1  2  2  0  0  0  0
 39 40  1  0  0  0  0
 40 48  1  0  0  0  0
 40 41  2  0  0  0  0
  8  9  1  0  0  0  0
  9 17  1  0  0  0  0
  9 10  2  0  0  0  0
 18 19  1  0  0  0  0
 19 38  1  0  0  0  0
 19 20  2  0  0  0  0
 39 42  1  0  0  0  0
  8 11  1  0  0  0  0
 48 49  1  0  0  0  0
 18 21  1  0  0  0  0
 38 39  1  0  0  0  0
  7  8  1  0  0  0  0
 17 18  1  0  0  0  0
 23 33  1  0  0  0  0
 24 34  1  0  0  0  0
 25 35  1  0  0  0  0
 26 36  1  0  0  0  0
  3  4  1  0  0  0  0
  3  5  1  0  0  0  0
  3  6  1  0  0  0  0
 42 45  1  0  0  0  0
 42 46  1  0  0  0  0
 42 47  1  0  0  0  0
 11 14  1  0  0  0  0
 11 15  1  0  0  0  0
 11 16  1  0  0  0  0
 49 51  1  0  0  0  0
 49 52  1  0  0  0  0
 49 53  1  0  0  0  0
 21 31  1  0  0  0  0
 21 32  1  0  0  0  0
 39 44  1  0  0  0  0
  8 13  1  0  0  0  0
 18 30  1  0  0  0  0
 48 50  1  0  0  0  0
  7 12  1  0  0  0  0
 38 43  1  0  0  0  0
 17 29  1  0  0  0  0
 28 37  1  0  0  0  0
M  END
$$$$

  -OEChem-05262214473D

 53 53  0     1  0  0  0  0  0999 V2000
   -1.9298    0.2574    3.9747 C   0  0  0  0  0  0  0  0  0  0  0  0
   -0.9825   -0.3573    3.4990 O   0  0  0  0  0  0  0  0  0  0  0  0
   -2.3617   -0.0250    5.3754 C   0  0  0  0  0  0  0  0  0  0  0  0
   -3.1214   -0.8213    5.4288 H   0  0  0  0  0  0  0  0  0  0  0  0
   -1.5305   -0.3726    6.0097 H   0  0  0  0  0  0  0  0  0  0  0  0
   -2.7997    0.8299    5.9150 H   0  0  0  0  0  0  0  0  0  0  0  0
   -2.6795    1.2298    3.3336 N   0  0  0  0  0  0  0  0  0  0  0  0
   -2.4327    1.6559    1.9812 C   0  0  2  0  0  0  0  0  0  0  0  0
   -1.0977    1.0705    1.5400 C   0  0  0  0  0  0  0  0  0  0  0  0
   -0.2256    0.7177    2.3313 O   0  0  0  0  0  0  0  0  0  0  0  0
   -2.4239    3.1726    1.8718 C   0  0  0  0  0  0  0  0  0  0  0  0
   -3.4446    1.6657    3.8454 H   0  0  0  0  0  0  0  0  0  0  0  0
   -3.2368    1.2374    1.3661 H   0  0  0  0  0  0  0  0  0  0  0  0
   -1.6248    3.6099    2.4815 H   0  0  0  0  0  0  0  0  0  0  0  0
   -2.2644    3.4949    0.8375 H   0  0  0  0  0  0  0  0  0  0  0  0
   -3.3741    3.5939    2.2175 H   0  0  0  0  0  0  0  0  0  0  0  0
   -0.9750    1.0274    0.1566 N   0  0  0  0  0  0  0  0  0  0  0  0
    0.2023    0.5266   -0.5070 C   0  0  2  0  0  0  0  0  0  0  0  0
    0.3797   -0.9250   -0.0763 C   0  0  0  0  0  0  0  0  0  0  0  0
   -0.5208   -1.5853    0.4376 O   0  0  0  0  0  0  0  0  0  0  0  0
    1.4533    1.3420   -0.1604 C   0  0  0  0  0  0  0  0  0  0  0  0
    1.4007    2.7499   -0.7014 C   0  0  0  0  0  0  0  0  0  0  0  0
    1.7259    2.9975   -2.0351 C   0  0  0  0  0  0  0  0  0  0  0  0
    1.0274    3.8039    0.1326 C   0  0  0  0  0  0  0  0  0  0  0  0
    1.6777    4.2988   -2.5347 C   0  0  0  0  0  0  0  0  0  0  0  0
    0.9793    5.1053   -0.3670 C   0  0  0  0  0  0  0  0  0  0  0  0
    1.3044    5.3528   -1.7007 C   0  0  0  0  0  0  0  0  0  0  0  0
    1.2588    6.6227   -2.1881 O   0  0  0  0  0  0  0  0  0  0  0  0
   -1.7582    1.3241   -0.4207 H   0  0  0  0  0  0  0  0  0  0  0  0
   -0.0079    0.5587   -1.5826 H   0  0  0  0  0  0  0  0  0  0  0  0
    2.3532    0.8357   -0.5351 H   0  0  0  0  0  0  0  0  0  0  0  0
    1.5860    1.3967    0.9282 H   0  0  0  0  0  0  0  0  0  0  0  0
    2.0176    2.1825   -2.6920 H   0  0  0  0  0  0  0  0  0  0  0  0
    0.7723    3.6203    1.1732 H   0  0  0  0  0  0  0  0  0  0  0  0
    1.9324    4.4854   -3.5746 H   0  0  0  0  0  0  0  0  0  0  0  0
    0.6882    5.9218    0.2877 H   0  0  0  0  0  0  0  0  0  0  0  0
    0.9839    7.2405   -1.4920 H   0  0  0  0  0  0  0  0  0  0  0  0
    1.6455   -1.4062   -0.3805 N   0  0  0  0  0  0  0  0  0  0  0  0
    2.0688   -2.7593   -0.0997 C   0  0  2  0  0  0  0  0  0  0  0  0
    1.7323   -3.0652    1.3539 C   0  0  0  0  0  0  0  0  0  0  0  0
    1.5761   -2.1916    2.2044 O   0  0  0  0  0  0  0  0  0  0  0  0
    3.5556   -2.9399   -0.3630 C   0  0  0  0  0  0  0  0  0  0  0  0
    2.3078   -0.7757   -0.8227 H   0  0  0  0  0  0  0  0  0  0  0  0
    1.4865   -3.4154   -0.7558 H   0  0  0  0  0  0  0  0  0  0  0  0
    4.1552   -2.2905    0.2853 H   0  0  0  0  0  0  0  0  0  0  0  0
    3.8689   -3.9725   -0.1772 H   0  0  0  0  0  0  0  0  0  0  0  0
    3.8006   -2.6908   -1.4011 H   0  0  0  0  0  0  0  0  0  0  0  0
    1.6695   -4.4298    1.5989 N   0  0  0  0  0  0  0  0  0  0  0  0
    1.3785   -4.9749    2.9044 C   0  0  0  0  0  0  0  0  0  0  0  0
    1.7937   -5.0818    0.8300 H   0  0  0  0  0  0  0  0  0  0  0  0
    2.3196   -5.1627    3.4420 H   0  0  0  0  0  0  0  0  0  0  0  0
    0.7682   -4.2580    3.4732 H   0  0  0  0  0  0  0  0  0  0  0  0
    0.8256   -5.9193    2.7924 H   0  0  0  0  0  0  0  0  0  0  0  0
 23 25  2  0  0  0  0
 22 23  1  0  0  0  0
 24 26  1  0  0  0  0
 22 24  2  0  0  0  0
 25 27  1  0  0  0  0
 26 27  2  0  0  0  0
 21 22  1  0  0  0  0
 27 28  1  0  0  0  0
  1  3  1  0  0  0  0
  1  7  1  0  0  0  0
  1  2  2  0  0  0  0
 39 40  1  0  0  0  0
 40 48  1  0  0  0  0
 40 41  2  0  0  0  0
  8  9  1  0  0  0  0
  9 17  1  0  0  0  0
  9 10  2  0  0  0  0
 18 19  1  0  0  0  0
 19 38  1  0  0  0  0
 19 20  2  0  0  0  0
 39 42  1  0  0  0  0
  8 11  1  0  0  0  0
 48 49  1  0  0  0  0
 18 21  1  0  0  0  0
 38 39  1  0  0  0  0
  7  8  1  0  0  0  0
 17 18  1  0  0  0  0
 23 33  1  0  0  0  0
 24 34  1  0  0  0  0
 25 35  1  0  0  0  0
 26 36  1  0  0  0  0
  3  4  1  0  0  0  0
  3  5  1  0  0  0  0
  3  6  1  0  0  0  0
 42 45  1  0  0  0  0
 42 46  1  0  0  0  0
 42 47  1  0  0  0  0
 11 14  1  0  0  0  0
 11 15  1  0  0  0  0
 11 16  1  0  0  0  0
 49 51  1  0  0  0  0
 49 52  1  0  0  0  0
 49 53  1  0  0  0  0
 21 31  1  0  0  0  0
 21 32  1  0  0  0  0
 39 44  1  0  0  0  0
  8 13  1  0  0  0  0
 18 30  1  0  0  0  0
 48 50  1  0  0  0  0
  7 12  1  0  0  0  0
 38 43  1  0  0  0  0
 17 29  1  0  0  0  0
 28 37  1  0  0  0  0
M  END
$$$$

  -OEChem-05262214473D

 53 53  0     1  0  0  0  0  0999 V2000
   -1.9298    0.2574    3.9747 C   0  0  0  0  0  0  0  0  0  0  0  0
   -0.9825   -0.3573    3.4990 O   0  0  0  0  0  0  0  0  0  0  0  0
   -2.3617   -0.0250    5.3754 C   0  0  0  0  0  0  0  0  0  0  0  0
   -3.1214   -0.8213    5.4288 H   0  0  0  0  0  0  0  0  0  0  0  0
   -1.5305   -0.3726    6.0097 H   0  0  0  0  0  0  0  0  0  0  0  0
   -2.7997    0.8299    5.9150 H   0  0  0  0  0  0  0  0  0  0  0  0
   -2.6795    1.2298    3.3336 N   0  0  0  0  0  0  0  0  0  0  0  0
   -2.4327    1.6559    1.9812 C   0  0  2  0  0  0  0  0  0  0  0  0
   -1.0977    1.0705    1.5400 C   0  0  0  0  0  0  0  0  0  0  0  0
   -0.2256    0.7177    2.3313 O   0  0  0  0  0  0  0  0  0  0  0  0
   -2.4239    3.1726    1.8718 C   0  0  0  0  0  0  0  0  0  0  0  0
   -3.4446    1.6657    3.8454 H   0  0  0  0  0  0  0  0  0  0  0  0
   -3.2368    1.2374    1.3661 H   0  0  0  0  0  0  0  0  0  0  0  0
   -1.6248    3.6099    2.4815 H   0  0  0  0  0  0  0  0  0  0  0  0
   -2.2644    3.4949    0.8375 H   0  0  0  0  0  0  0  0  0  0  0  0
   -3.3741    3.5939    2.2175 H   0  0  0  0  0  0  0  0  0  0  0  0
   -0.9750    1.0274    0.1566 N   0  0  0  0  0  0  0  0  0  0  0  0
    0.2023    0.5266   -0.5070 C   0  0  2  0  0  0  0  0  0  0  0  0
    0.3797   -0.9250   -0.0763 C   0  0  0  0  0  0  0  0  0  0  0  0
   -0.5658   -1.6659    0.1847 O   0  0  0  0  0  0  0  0  0  0  0  0
    1.4533    1.3420   -0.1604 C   0  0  0  0  0  0  0  0  0  0  0  0
    1.4007    2.7499   -0.7014 C   0  0  0  0  0  0  0  0  0  0  0  0
    1.7259    2.9975   -2.0351 C   0  0  0  0  0  0  0  0  0  0  0  0
    1.0274    3.8039    0.1326 C   0  0  0  0  0  0  0  0  0  0  0  0
    1.6777    4.2988   -2.5347 C   0  0  0  0  0  0  0  0  0  0  0  0
    0.9793    5.1053   -0.3670 C   0  0  0  0  0  0  0  0  0  0  0  0
    1.3044    5.3528   -1.7007 C   0  0  0  0  0  0  0  0  0  0  0  0
    1.2588    6.6227   -2.1881 O   0  0  0  0  0  0  0  0  0  0  0  0
   -1.7582    1.3241   -0.4207 H   0  0  0  0  0  0  0  0  0  0  0  0
   -0.0079    0.5587   -1.5826 H   0  0  0  0  0  0  0  0  0  0  0  0
    2.3532    0.8357   -0.5351 H   0  0  0  0  0  0  0  0  0  0  0  0
    1.5860    1.3967    0.9282 H   0  0  0  0  0  0  0  0  0  0  0  0
    2.0176    2.1825   -2.6920 H   0  0  0  0  0  0  0  0  0  0  0  0
    0.7723    3.6203    1.1732 H   0  0  0  0  0  0  0  0  0  0  0  0
    1.9324    4.4854   -3.5746 H   0  0  0  0  0  0  0  0  0  0  0  0
    0.6882    5.9218    0.2877 H   0  0  0  0  0  0  0  0  0  0  0  0
    0.9839    7.2405   -1.4920 H   0  0  0  0  0  0  0  0  0  0  0  0
    1.7146   -1.3050   -0.0676 N   0  0  0  0  0  0  0  0  0  0  0  0
    2.1588   -2.6354    0.2808 C   0  0  2  0  0  0  0  0  0  0  0  0
    1.5005   -3.0208    1.5990 C   0  0  0  0  0  0  0  0  0  0  0  0
    1.0738   -2.1942    2.4026 O   0  0  0  0  0  0  0  0  0  0  0  0
    3.6741   -2.7020    0.3900 C   0  0  0  0  0  0  0  0  0  0  0  0
    2.4146   -0.6131   -0.3188 H   0  0  0  0  0  0  0  0  0  0  0  0
    1.8075   -3.3040   -0.5127 H   0  0  0  0  0  0  0  0  0  0  0  0
    4.0446   -2.0386    1.1800 H   0  0  0  0  0  0  0  0  0  0  0  0
    4.0107   -3.7169    0.6259 H   0  0  0  0  0  0  0  0  0  0  0  0
    4.1464   -2.3959   -0.5497 H   0  0  0  0  0  0  0  0  0  0  0  0
    1.4846   -4.3951    1.7923 N   0  0  0  0  0  0  0  0  0  0  0  0
    0.9251   -5.0099    2.9733 C   0  0  0  0  0  0  0  0  0  0  0  0
    1.8434   -5.0062    1.0646 H   0  0  0  0  0  0  0  0  0  0  0  0
    1.7171   -5.1529    3.7231 H   0  0  0  0  0  0  0  0  0  0  0  0
    0.1406   -4.3599    3.3883 H   0  0  0  0  0  0  0  0  0  0  0  0
    0.4909   -5.9851    2.7082 H   0  0  0  0  0  0  0  0  0  0  0  0
 23 25  2  0  0  0  0
 22 23  1  0  0  0  0
 24 26  1  0  0  0  0
 22 24  2  0  0  0  0
 25 27  1  0  0  0  0
 26 27  2  0  0  0  0
 21 22  1  0  0  0  0
 27 28  1  0  0  0  0
  1  3  1  0  0  0  0
  1  7  1  0  0  0  0
  1  2  2  0  0  0  0
 39 40  1  0  0  0  0
 40 48  1  0  0  0  0
 40 41  2  0  0  0  0
  8  9  1  0  0  0  0
  9 17  1  0  0  0  0
  9 10  2  0  0  0  0
 18 19  1  0  0  0  0
 19 38  1  0  0  0  0
 19 20  2  0  0  0  0
 39 42  1  0  0  0  0
  8 11  1  0  0  0  0
 48 49  1  0  0  0  0
 18 21  1  0  0  0  0
 38 39  1  0  0  0  0
  7  8  1  0  0  0  0
 17 18  1  0  0  0  0
 23 33  1  0  0  0  0
 24 34  1  0  0  0  0
 25 35  1  0  0  0  0
 26 36  1  0  0  0  0
  3  4  1  0  0  0  0
  3  5  1  0  0  0  0
  3  6  1  0  0  0  0
 42 45  1  0  0  0  0
 42 46  1  0  0  0  0
 42 47  1  0  0  0  0
 11 14  1  0  0  0  0
 11 15  1  0  0  0  0
 11 16  1  0  0  0  0
 49 51  1  0  0  0  0
 49 52  1  0  0  0  0
 49 53  1  0  0  0  0
 21 31  1  0  0  0  0
 21 32  1  0  0  0  0
 39 44  1  0  0  0  0
  8 13  1  0  0  0  0
 18 30  1  0  0  0  0
 48 50  1  0  0  0  0
  7 12  1  0  0  0  0
 38 43  1  0  0  0  0
 17 29  1  0  0  0  0
 28 37  1  0  0  0  0
M  END
$$$$

  -OEChem-05262214473D

 53 53  0     1  0  0  0  0  0999 V2000
   -1.9298    0.2574    3.9747 C   0  0  0  0  0  0  0  0  0  0  0  0
   -0.9825   -0.3573    3.4990 O   0  0  0  0  0  0  0  0  0  0  0  0
   -2.3617   -0.0250    5.3754 C   0  0  0  0  0  0  0  0  0  0  0  0
   -3.1214   -0.8213    5.4288 H   0  0  0  0  0  0  0  0  0  0  0  0
   -1.5305   -0.3726    6.0097 H   0  0  0  0  0  0  0  0  0  0  0  0
   -2.7997    0.8299    5.9150 H   0  0  0  0  0  0  0  0  0  0  0  0
   -2.6795    1.2298    3.3336 N   0  0  0  0  0  0  0  0  0  0  0  0
   -2.4327    1.6559    1.9812 C   0  0  2  0  0  0  0  0  0  0  0  0
   -1.0977    1.0705    1.5400 C   0  0  0  0  0  0  0  0  0  0  0  0
   -0.2256    0.7177    2.3313 O   0  0  0  0  0  0  0  0  0  0  0  0
   -2.4239    3.1726    1.8718 C   0  0  0  0  0  0  0  0  0  0  0  0
   -3.4446    1.6657    3.8454 H   0  0  0  0  0  0  0  0  0  0  0  0
   -3.2368    1.2374    1.3661 H   0  0  0  0  0  0  0  0  0  0  0  0
   -1.6248    3.6099    2.4815 H   0  0  0  0  0  0  0  0  0  0  0  0
   -2.2644    3.4949    0.8375 H   0  0  0  0  0  0  0  0  0  0  0  0
   -3.3741    3.5939    2.2175 H   0  0  0  0  0  0  0  0  0  0  0  0
   -0.9750    1.0274    0.1566 N   0  0  0  0  0  0  0  0  0  0  0  0
    0.2023    0.5266   -0.5070 C   0  0  2  0  0  0  0  0  0  0  0  0
    0.3797   -0.9250   -0.0763 C   0  0  0  0  0  0  0  0  0  0  0  0
   -0.5411   -1.7393   -0.0731 O   0  0  0  0  0  0  0  0  0  0  0  0
    1.4533    1.3420   -0.1604 C   0  0  0  0  0  0  0  0  0  0  0  0
    1.4007    2.7499   -0.7014 C   0  0  0  0  0  0  0  0  0  0  0  0
    1.7259    2.9975   -2.0351 C   0  0  0  0  0  0  0  0  0  0  0  0
    1.0274    3.8039    0.1326 C   0  0  0  0  0  0  0  0  0  0  0  0
    1.6777    4.2988   -2.5347 C   0  0  0  0  0  0  0  0  0  0  0  0
    0.9793    5.1053   -0.3670 C   0  0  0  0  0  0  0  0  0  0  0  0
    1.3044    5.3528   -1.7007 C   0  0  0  0  0  0  0  0  0  0  0  0
    1.2588    6.6227   -2.1881 O   0  0  0  0  0  0  0  0  0  0  0  0
   -1.7582    1.3241   -0.4207 H   0  0  0  0  0  0  0  0  0  0  0  0
   -0.0079    0.5587   -1.5826 H   0  0  0  0  0  0  0  0  0  0  0  0
    2.3532    0.8357   -0.5351 H   0  0  0  0  0  0  0  0  0  0  0  0
    1.5860    1.3967    0.9282 H   0  0  0  0  0  0  0  0  0  0  0  0
    2.0176    2.1825   -2.6920 H   0  0  0  0  0  0  0  0  0  0  0  0
    0.7723    3.6203    1.1732 H   0  0  0  0  0  0  0  0  0  0  0  0
    1.9324    4.4854   -3.5746 H   0  0  0  0  0  0  0  0  0  0  0  0
    0.6882    5.9218    0.2877 H   0  0  0  0  0  0  0  0  0  0  0  0
    0.9839    7.2405   -1.4920 H   0  0  0  0  0  0  0  0  0  0  0  0
    1.6968   -1.2115    0.2546 N   0  0  0  0  0  0  0  0  0  0  0  0
    2.1429   -2.5206    0.6742 C   0  0  2  0  0  0  0  0  0  0  0  0
    1.2130   -3.0022    1.7801 C   0  0  0  0  0  0  0  0  0  0  0  0
    0.5399   -2.2394    2.4701 O   0  0  0  0  0  0  0  0  0  0  0  0
    3.5856   -2.4862    1.1537 C   0  0  0  0  0  0  0  0  0  0  0  0
    2.3817   -0.4635    0.1991 H   0  0  0  0  0  0  0  0  0  0  0  0
    2.0495   -3.1803   -0.1954 H   0  0  0  0  0  0  0  0  0  0  0  0
    3.6988   -1.8303    2.0246 H   0  0  0  0  0  0  0  0  0  0  0  0
    3.9310   -3.4839    1.4443 H   0  0  0  0  0  0  0  0  0  0  0  0
    4.2490   -2.1114    0.3668 H   0  0  0  0  0  0  0  0  0  0  0  0
    1.2559   -4.3808    1.9345 N   0  0  0  0  0  0  0  0  0  0  0  0
    0.4727   -5.0789    2.9271 C   0  0  0  0  0  0  0  0  0  0  0  0
    1.8282   -4.9365    1.3057 H   0  0  0  0  0  0  0  0  0  0  0  0
    1.0652   -5.1960    3.8465 H   0  0  0  0  0  0  0  0  0  0  0  0
   -0.4372   -4.5016    3.1485 H   0  0  0  0  0  0  0  0  0  0  0  0
    0.1931   -6.0707    2.5424 H   0  0  0  0  0  0  0  0  0  0  0  0
 23 25  2  0  0  0  0
 22 23  1  0  0  0  0
 24 26  1  0  0  0  0
 22 24  2  0  0  0  0
 25 27  1  0  0  0  0
 26 27  2  0  0  0  0
 21 22  1  0  0  0  0
 27 28  1  0  0  0  0
  1  3  1  0  0  0  0
  1  7  1  0  0  0  0
  1  2  2  0  0  0  0
 39 40  1  0  0  0  0
 40 48  1  0  0  0  0
 40 41  2  0  0  0  0
  8  9  1  0  0  0  0
  9 17  1  0  0  0  0
  9 10  2  0  0  0  0
 18 19  1  0  0  0  0
 19 38  1  0  0  0  0
 19 20  2  0  0  0  0
 39 42  1  0  0  0  0
  8 11  1  0  0  0  0
 48 49  1  0  0  0  0
 18 21  1  0  0  0  0
 38 39  1  0  0  0  0
  7  8  1  0  0  0  0
 17 18  1  0  0  0  0
 23 33  1  0  0  0  0
 24 34  1  0  0  0  0
 25 35  1  0  0  0  0
 26 36  1  0  0  0  0
  3  4  1  0  0  0  0
  3  5  1  0  0  0  0
  3  6  1  0  0  0  0
 42 45  1  0  0  0  0
 42 46  1  0  0  0  0
 42 47  1  0  0  0  0
 11 14  1  0  0  0  0
 11 15  1  0  0  0  0
 11 16  1  0  0  0  0
 49 51  1  0  0  0  0
 49 52  1  0  0  0  0
 49 53  1  0  0  0  0
 21 31  1  0  0  0  0
 21 32  1  0  0  0  0
 39 44  1  0  0  0  0
  8 13  1  0  0  0  0
 18 30  1  0  0  0  0
 48 50  1  0  0  0  0
  7 12  1  0  0  0  0
 38 43  1  0  0  0  0
 17 29  1  0  0  0  0
 28 37  1  0  0  0  0
M  END
$$$$

  -OEChem-05262214473D

 53 53  0     1  0  0  0  0  0999 V2000
   -1.9298    0.2574    3.9747 C   0  0  0  0  0  0  0  0  0  0  0  0
   -0.9825   -0.3573    3.4990 O   0  0  0  0  0  0  0  0  0  0  0  0
   -2.3617   -0.0250    5.3754 C   0  0  0  0  0  0  0  0  0  0  0  0
   -3.1214   -0.8213    5.4288 H   0  0  0  0  0  0  0  0  0  0  0  0
   -1.5305   -0.3726    6.0097 H   0  0  0  0  0  0  0  0  0  0  0  0
   -2.7997    0.8299    5.9150 H   0  0  0  0  0  0  0  0  0  0  0  0
   -2.6795    1.2298    3.3336 N   0  0  0  0  0  0  0  0  0  0  0  0
   -2.4327    1.6559    1.9812 C   0  0  2  0  0  0  0  0  0  0  0  0
   -1.0977    1.0705    1.5400 C   0  0  0  0  0  0  0  0  0  0  0  0
   -0.2256    0.7177    2.3313 O   0  0  0  0  0  0  0  0  0  0  0  0
   -2.4239    3.1726    1.8718 C   0  0  0  0  0  0  0  0  0  0  0  0
   -3.4446    1.6657    3.8454 H   0  0  0  0  0  0  0  0  0  0  0  0
   -3.2368    1.2374    1.3661 H   0  0  0  0  0  0  0  0  0  0  0  0
   -1.6248    3.6099    2.4815 H   0  0  0  0  0  0  0  0  0  0  0  0
   -2.2644    3.4949    0.8375 H   0  0  0  0  0  0  0  0  0  0  0  0
   -3.3741    3.5939    2.2175 H   0  0  0  0  0  0  0  0  0  0  0  0
   -0.9750    1.0274    0.1566 N   0  0  0  0  0  0  0  0  0  0  0  0
    0.2023    0.5266   -0.5070 C   0  0  2  0  0  0  0  0  0  0  0  0
    0.3797   -0.9250   -0.0763 C   0  0  0  0  0  0  0  0  0  0  0  0
   -0.4483   -1.8007   -0.3182 O   0  0  0  0  0  0  0  0  0  0  0  0
    1.4533    1.3420   -0.1604 C   0  0  0  0  0  0  0  0  0  0  0  0
    1.4007    2.7499   -0.7014 C   0  0  0  0  0  0  0  0  0  0  0  0
    1.7259    2.9975   -2.0351 C   0  0  0  0  0  0  0  0  0  0  0  0
    1.0274    3.8039    0.1326 C   0  0  0  0  0  0  0  0  0  0  0  0
    1.6777    4.2988   -2.5347 C   0  0  0  0  0  0  0  0  0  0  0  0
    0.9793    5.1053   -0.3670 C   0  0  0  0  0  0  0  0  0  0  0  0
    1.3044    5.3528   -1.7007 C   0  0  0  0  0  0  0  0  0  0  0  0
    1.2588    6.6227   -2.1881 O   0  0  0  0  0  0  0  0  0  0  0  0
   -1.7582    1.3241   -0.4207 H   0  0  0  0  0  0  0  0  0  0  0  0
   -0.0079    0.5587   -1.5826 H   0  0  0  0  0  0  0  0  0  0  0  0
    2.3532    0.8357   -0.5351 H   0  0  0  0  0  0  0  0  0  0  0  0
    1.5860    1.3967    0.9282 H   0  0  0  0  0  0  0  0  0  0  0  0
    2.0176    2.1825   -2.6920 H   0  0  0  0  0  0  0  0  0  0  0  0
    0.7723    3.6203    1.1732 H   0  0  0  0  0  0  0  0  0  0  0  0
    1.9324    4.4854   -3.5746 H   0  0  0  0  0  0  0  0  0  0  0  0
    0.6882    5.9218    0.2877 H   0  0  0  0  0  0  0  0  0  0  0  0
    0.9839    7.2405   -1.4920 H   0  0  0  0  0  0  0  0  0  0  0  0
    1.5934   -1.1323    0.5643 N   0  0  0  0  0  0  0  0  0  0  0  0
    2.0222   -2.4228    1.0537 C   0  0  2  0  0  0  0  0  0  0  0  0
    0.8893   -3.0108    1.8846 C   0  0  0  0  0  0  0  0  0  0  0  0
    0.0109   -2.3242    2.4024 O   0  0  0  0  0  0  0  0  0  0  0  0
    3.2961   -2.3073    1.8761 C   0  0  0  0  0  0  0  0  0  0  0  0
    2.2113   -0.3369    0.6958 H   0  0  0  0  0  0  0  0  0  0  0  0
    2.1960   -3.0527    0.1745 H   0  0  0  0  0  0  0  0  0  0  0  0
    3.1415   -1.6797    2.7614 H   0  0  0  0  0  0  0  0  0  0  0  0
    3.6354   -3.2892    2.2222 H   0  0  0  0  0  0  0  0  0  0  0  0
    4.1015   -1.8568    1.2860 H   0  0  0  0  0  0  0  0  0  0  0  0
    0.9989   -4.3880    2.0160 N   0  0  0  0  0  0  0  0  0  0  0  0
    0.0521   -5.1772    2.7690 C   0  0  0  0  0  0  0  0  0  0  0  0
    1.7489   -4.8776    1.5369 H   0  0  0  0  0  0  0  0  0  0  0  0
    0.4082   -5.2890    3.8037 H   0  0  0  0  0  0  0  0  0  0  0  0
   -0.9258   -4.6736    2.7702 H   0  0  0  0  0  0  0  0  0  0  0  0
   -0.0474   -6.1702    2.3062 H   0  0  0  0  0  0  0  0  0  0  0  0
 23 25  2  0  0  0  0
 22 23  1  0  0  0  0
 24 26  1  0  0  0  0
 22 24  2  0  0  0  0
 25 27  1  0  0  0  0
 26 27  2  0  0  0  0
 21 22  1  0  0  0  0
 27 28  1  0  0  0  0
  1  3  1  0  0  0  0
  1  7  1  0  0  0  0
  1  2  2  0  0  0  0
 39 40  1  0  0  0  0
 40 48  1  0  0  0  0
 40 41  2  0  0  0  0
  8  9  1  0  0  0  0
  9 17  1  0  0  0  0
  9 10  2  0  0  0  0
 18 19  1  0  0  0  0
 19 38  1  0  0  0  0
 19 20  2  0  0  0  0
 39 42  1  0  0  0  0
  8 11  1  0  0  0  0
 48 49  1  0  0  0  0
 18 21  1  0  0  0  0
 38 39  1  0  0  0  0
  7  8  1  0  0  0  0
 17 18  1  0  0  0  0
 23 33  1  0  0  0  0
 24 34  1  0  0  0  0
 25 35  1  0  0  0  0
 26 36  1  0  0  0  0
  3  4  1  0  0  0  0
  3  5  1  0  0  0  0
  3  6  1  0  0  0  0
 42 45  1  0  0  0  0
 42 46  1  0  0  0  0
 42 47  1  0  0  0  0
 11 14  1  0  0  0  0
 11 15  1  0  0  0  0
 11 16  1  0  0  0  0
 49 51  1  0  0  0  0
 49 52  1  0  0  0  0
 49 53  1  0  0  0  0
 21 31  1  0  0  0  0
 21 32  1  0  0  0  0
 39 44  1  0  0  0  0
  8 13  1  0  0  0  0
 18 30  1  0  0  0  0
 48 50  1  0  0  0  0
  7 12  1  0  0  0  0
 38 43  1  0  0  0  0
 17 29  1  0  0  0  0
 28 37  1  0  0  0  0
M  END
$$$$

  -OEChem-05262214473D

 53 53  0     1  0  0  0  0  0999 V2000
   -1.9298    0.2574    3.9747 C   0  0  0  0  0  0  0  0  0  0  0  0
   -0.9825   -0.3573    3.4990 O   0  0  0  0  0  0  0  0  0  0  0  0
   -2.3617   -0.0250    5.3754 C   0  0  0  0  0  0  0  0  0  0  0  0
   -3.1214   -0.8213    5.4288 H   0  0  0  0  0  0  0  0  0  0  0  0
   -1.5305   -0.3726    6.0097 H   0  0  0  0  0  0  0  0  0  0  0  0
   -2.7997    0.8299    5.9150 H   0  0  0  0  0  0  0  0  0  0  0  0
   -2.6795    1.2298    3.3336 N   0  0  0  0  0  0  0  0  0  0  0  0
   -2.4327    1.6559    1.9812 C   0  0  2  0  0  0  0  0  0  0  0  0
   -1.0977    1.0705    1.5400 C   0  0  0  0  0  0  0  0  0  0  0  0
   -0.2256    0.7177    2.3313 O   0  0  0  0  0  0  0  0  0  0  0  0
   -2.4239    3.1726    1.8718 C   0  0  0  0  0  0  0  0  0  0  0  0
   -3.4446    1.6657    3.8454 H   0  0  0  0  0  0  0  0  0  0  0  0
   -3.2368    1.2374    1.3661 H   0  0  0  0  0  0  0  0  0  0  0  0
   -1.6248    3.6099    2.4815 H   0  0  0  0  0  0  0  0  0  0  0  0
   -2.2644    3.4949    0.8375 H   0  0  0  0  0  0  0  0  0  0  0  0
   -3.3741    3.5939    2.2175 H   0  0  0  0  0  0  0  0  0  0  0  0
   -0.9750    1.0274    0.1566 N   0  0  0  0  0  0  0  0  0  0  0  0
    0.2023    0.5266   -0.5070 C   0  0  2  0  0  0  0  0  0  0  0  0
    0.3797   -0.9250   -0.0763 C   0  0  0  0  0  0  0  0  0  0  0  0
   -0.2938   -1.8458   -0.5339 O   0  0  0  0  0  0  0  0  0  0  0  0
    1.4533    1.3420   -0.1604 C   0  0  0  0  0  0  0  0  0  0  0  0
    1.4007    2.7499   -0.7014 C   0  0  0  0  0  0  0  0  0  0  0  0
    1.7259    2.9975   -2.0351 C   0  0  0  0  0  0  0  0  0  0  0  0
    1.0274    3.8039    0.1326 C   0  0  0  0  0  0  0  0  0  0  0  0
    1.6777    4.2988   -2.5347 C   0  0  0  0  0  0  0  0  0  0  0  0
    0.9793    5.1053   -0.3670 C   0  0  0  0  0  0  0  0  0  0  0  0
    1.3044    5.3528   -1.7007 C   0  0  0  0  0  0  0  0  0  0  0  0
    1.2588    6.6227   -2.1881 O   0  0  0  0  0  0  0  0  0  0  0  0
   -1.7582    1.3241   -0.4207 H   0  0  0  0  0  0  0  0  0  0  0  0
   -0.0079    0.5587   -1.5826 H   0  0  0  0  0  0  0  0  0  0  0  0
    2.3532    0.8357   -0.5351 H   0  0  0  0  0  0  0  0  0  0  0  0
    1.5860    1.3967    0.9282 H   0  0  0  0  0  0  0  0  0  0  0  0
    2.0176    2.1825   -2.6920 H   0  0  0  0  0  0  0  0  0  0  0  0
    0.7723    3.6203    1.1732 H   0  0  0  0  0  0  0  0  0  0  0  0
    1.9324    4.4854   -3.5746 H   0  0  0  0  0  0  0  0  0  0  0  0
    0.6882    5.9218    0.2877 H   0  0  0  0  0  0  0  0  0  0  0  0
    0.9839    7.2405   -1.4920 H   0  0  0  0  0  0  0  0  0  0  0  0
    1.4113   -1.0726    0.8403 N   0  0  0  0  0  0  0  0  0  0  0  0
    1.8049   -2.3485    1.3935 C   0  0  2  0  0  0  0  0  0  0  0  0
    0.5515   -3.0458    1.9056 C   0  0  0  0  0  0  0  0  0  0  0  0
   -0.4772   -2.4427    2.2040 O   0  0  0  0  0  0  0  0  0  0  0  0
    2.8254   -2.1774    2.5080 C   0  0  0  0  0  0  0  0  0  0  0  0
    1.9151   -0.2421    1.1374 H   0  0  0  0  0  0  0  0  0  0  0  0
    2.2370   -2.9298    0.5717 H   0  0  0  0  0  0  0  0  0  0  0  0
    2.4105   -1.5973    3.3404 H   0  0  0  0  0  0  0  0  0  0  0  0
    3.1438   -3.1462    2.9066 H   0  0  0  0  0  0  0  0  0  0  0  0
    3.7138   -1.6492    2.1451 H   0  0  0  0  0  0  0  0  0  0  0  0
    0.7310   -4.4163    2.0311 N   0  0  0  0  0  0  0  0  0  0  0  0
   -0.3079   -5.2981    2.5096 C   0  0  0  0  0  0  0  0  0  0  0  0
    1.6110   -4.8335    1.7424 H   0  0  0  0  0  0  0  0  0  0  0  0
   -0.2091   -5.4256    3.5977 H   0  0  0  0  0  0  0  0  0  0  0  0
   -1.2920   -4.8640    2.2792 H   0  0  0  0  0  0  0  0  0  0  0  0
   -0.2142   -6.2767    2.0159 H   0  0  0  0  0  0  0  0  0  0  0  0
 23 25  2  0  0  0  0
 22 23  1  0  0  0  0
 24 26  1  0  0  0  0
 22 24  2  0  0  0  0
 25 27  1  0  0  0  0
 26 27  2  0  0  0  0
 21 22  1  0  0  0  0
 27 28  1  0  0  0  0
  1  3  1  0  0  0  0
  1  7  1  0  0  0  0
  1  2  2  0  0  0  0
 39 40  1  0  0  0  0
 40 48  1  0  0  0  0
 40 41  2  0  0  0  0
  8  9  1  0  0  0  0
  9 17  1  0  0  0  0
  9 10  2  0  0  0  0
 18 19  1  0  0  0  0
 19 38  1  0  0  0  0
 19 20  2  0  0  0  0
 39 42  1  0  0  0  0
  8 11  1  0  0  0  0
 48 49  1  0  0  0  0
 18 21  1  0  0  0  0
 38 39  1  0  0  0  0
  7  8  1  0  0  0  0
 17 18  1  0  0  0  0
 23 33  1  0  0  0  0
 24 34  1  0  0  0  0
 25 35  1  0  0  0  0
 26 36  1  0  0  0  0
  3  4  1  0  0  0  0
  3  5  1  0  0  0  0
  3  6  1  0  0  0  0
 42 45  1  0  0  0  0
 42 46  1  0  0  0  0
 42 47  1  0  0  0  0
 11 14  1  0  0  0  0
 11 15  1  0  0  0  0
 11 16  1  0  0  0  0
 49 51  1  0  0  0  0
 49 52  1  0  0  0  0
 49 53  1  0  0  0  0
 21 31  1  0  0  0  0
 21 32  1  0  0  0  0
 39 44  1  0  0  0  0
  8 13  1  0  0  0  0
 18 30  1  0  0  0  0
 48 50  1  0  0  0  0
  7 12  1  0  0  0  0
 38 43  1  0  0  0  0
 17 29  1  0  0  0  0
 28 37  1  0  0  0  0
M  END
$$$$

  -OEChem-05262214473D

 53 53  0     1  0  0  0  0  0999 V2000
   -1.9298    0.2574    3.9747 C   0  0  0  0  0  0  0  0  0  0  0  0
   -0.9825   -0.3573    3.4990 O   0  0  0  0  0  0  0  0  0  0  0  0
   -2.3617   -0.0250    5.3754 C   0  0  0  0  0  0  0  0  0  0  0  0
   -3.1214   -0.8213    5.4288 H   0  0  0  0  0  0  0  0  0  0  0  0
   -1.5305   -0.3726    6.0097 H   0  0  0  0  0  0  0  0  0  0  0  0
   -2.7997    0.8299    5.9150 H   0  0  0  0  0  0  0  0  0  0  0  0
   -2.6795    1.2298    3.3336 N   0  0  0  0  0  0  0  0  0  0  0  0
   -2.4327    1.6559    1.9812 C   0  0  2  0  0  0  0  0  0  0  0  0
   -1.0977    1.0705    1.5400 C   0  0  0  0  0  0  0  0  0  0  0  0
   -0.2256    0.7177    2.3313 O   0  0  0  0  0  0  0  0  0  0  0  0
   -2.4239    3.1726    1.8718 C   0  0  0  0  0  0  0  0  0  0  0  0
   -3.4446    1.6657    3.8454 H   0  0  0  0  0  0  0  0  0  0  0  0
   -3.2368    1.2374    1.3661 H   0  0  0  0  0  0  0  0  0  0  0  0
   -1.6248    3.6099    2.4815 H   0  0  0  0  0  0  0  0  0  0  0  0
   -2.2644    3.4949    0.8375 H   0  0  0  0  0  0  0  0  0  0  0  0
   -3.3741    3.5939    2.2175 H   0  0  0  0  0  0  0  0  0  0  0  0
   -0.9750    1.0274    0.1566 N   0  0  0  0  0  0  0  0  0  0  0  0
    0.2023    0.5266   -0.5070 C   0  0  2  0  0  0  0  0  0  0  0  0
    0.3797   -0.9250   -0.0763 C   0  0  0  0  0  0  0  0  0  0  0  0
   -0.0881   -1.8716   -0.7056 O   0  0  0  0  0  0  0  0  0  0  0  0
    1.4533    1.3420   -0.1604 C   0  0  0  0  0  0  0  0  0  0  0  0
    1.4007    2.7499   -0.7014 C   0  0  0  0  0  0  0  0  0  0  0  0
    1.7259    2.9975   -2.0351 C   0  0  0  0  0  0  0  0  0  0  0  0
    1.0274    3.8039    0.1326 C   0  0  0  0  0  0  0  0  0  0  0  0
    1.6777    4.2988   -2.5347 C   0  0  0  0  0  0  0  0  0  0  0  0
    0.9793    5.1053   -0.3670 C   0  0  0  0  0  0  0  0  0  0  0  0
    1.3044    5.3528   -1.7007 C   0  0  0  0  0  0  0  0  0  0  0  0
    1.2588    6.6227   -2.1881 O   0  0  0  0  0  0  0  0  0  0  0  0
   -1.7582    1.3241   -0.4207 H   0  0  0  0  0  0  0  0  0  0  0  0
   -0.0079    0.5587   -1.5826 H   0  0  0  0  0  0  0  0  0  0  0  0
    2.3532    0.8357   -0.5351 H   0  0  0  0  0  0  0  0  0  0  0  0
    1.5860    1.3967    0.9282 H   0  0  0  0  0  0  0  0  0  0  0  0
    2.0176    2.1825   -2.6920 H   0  0  0  0  0  0  0  0  0  0  0  0
    0.7723    3.6203    1.1732 H   0  0  0  0  0  0  0  0  0  0  0  0
    1.9324    4.4854   -3.5746 H   0  0  0  0  0  0  0  0  0  0  0  0
    0.6882    5.9218    0.2877 H   0  0  0  0  0  0  0  0  0  0  0  0
    0.9839    7.2405   -1.4920 H   0  0  0  0  0  0  0  0  0  0  0  0
    1.1631   -1.0366    1.0639 N   0  0  0  0  0  0  0  0  0  0  0  0
    1.5058   -2.3029    1.6704 C   0  0  2  0  0  0  0  0  0  0  0  0
    0.2226   -3.1050    1.8416 C   0  0  0  0  0  0  0  0  0  0  0  0
   -0.8911   -2.5868    1.8886 O   0  0  0  0  0  0  0  0  0  0  0  0
    2.2055   -2.1053    3.0062 C   0  0  0  0  0  0  0  0  0  0  0  0
    1.5133   -0.1855    1.4937 H   0  0  0  0  0  0  0  0  0  0  0  0
    2.1697   -2.8201    0.9692 H   0  0  0  0  0  0  0  0  0  0  0  0
    1.5557   -1.5886    3.7219 H   0  0  0  0  0  0  0  0  0  0  0  0
    2.4899   -3.0647    3.4508 H   0  0  0  0  0  0  0  0  0  0  0  0
    3.1124   -1.5030    2.8857 H   0  0  0  0  0  0  0  0  0  0  0  0
    0.4707   -4.4636    1.9789 N   0  0  0  0  0  0  0  0  0  0  0  0
   -0.5829   -5.4335    2.1666 C   0  0  0  0  0  0  0  0  0  0  0  0
    1.4240   -4.8071    1.9083 H   0  0  0  0  0  0  0  0  0  0  0  0
   -0.7446   -5.5964    3.2424 H   0  0  0  0  0  0  0  0  0  0  0  0
   -1.5108   -5.0599    1.7090 H   0  0  0  0  0  0  0  0  0  0  0  0
   -0.2960   -6.3830    1.6912 H   0  0  0  0  0  0  0  0  0  0  0  0
 23 25  2  0  0  0  0
 22 23  1  0  0  0  0
 24 26  1  0  0  0  0
 22 24  2  0  0  0  0
 25 27  1  0  0  0  0
 26 27  2  0  0  0  0
 21 22  1  0  0  0  0
 27 28  1  0  0  0  0
  1  3  1  0  0  0  0
  1  7  1  0  0  0  0
  1  2  2  0  0  0  0
 39 40  1  0  0  0  0
 40 48  1  0  0  0  0
 40 41  2  0  0  0  0
  8  9  1  0  0  0  0
  9 17  1  0  0  0  0
  9 10  2  0  0  0  0
 18 19  1  0  0  0  0
 19 38  1  0  0  0  0
 19 20  2  0  0  0  0
 39 42  1  0  0  0  0
  8 11  1  0  0  0  0
 48 49  1  0  0  0  0
 18 21  1  0  0  0  0
 38 39  1  0  0  0  0
  7  8  1  0  0  0  0
 17 18  1  0  0  0  0
 23 33  1  0  0  0  0
 24 34  1  0  0  0  0
 25 35  1  0  0  0  0
 26 36  1  0  0  0  0
  3  4  1  0  0  0  0
  3  5  1  0  0  0  0
  3  6  1  0  0  0  0
 42 45  1  0  0  0  0
 42 46  1  0  0  0  0
 42 47  1  0  0  0  0
 11 14  1  0  0  0  0
 11 15  1  0  0  0  0
 11 16  1  0  0  0  0
 49 51  1  0  0  0  0
 49 52  1  0  0  0  0
 49 53  1  0  0  0  0
 21 31  1  0  0  0  0
 21 32  1  0  0  0  0
 39 44  1  0  0  0  0
  8 13  1  0  0  0  0
 18 30  1  0  0  0  0
 48 50  1  0  0  0  0
  7 12  1  0  0  0  0
 38 43  1  0  0  0  0
 17 29  1  0  0  0  0
 28 37  1  0  0  0  0
M  END
$$$$

  -OEChem-05262214473D

 53 53  0     1  0  0  0  0  0999 V2000
   -1.9298    0.2574    3.9747 C   0  0  0  0  0  0  0  0  0  0  0  0
   -0.9825   -0.3573    3.4990 O   0  0  0  0  0  0  0  0  0  0  0  0
   -2.3617   -0.0250    5.3754 C   0  0  0  0  0  0  0  0  0  0  0  0
   -3.1214   -0.8213    5.4288 H   0  0  0  0  0  0  0  0  0  0  0  0
   -1.5305   -0.3726    6.0097 H   0  0  0  0  0  0  0  0  0  0  0  0
   -2.7997    0.8299    5.9150 H   0  0  0  0  0  0  0  0  0  0  0  0
   -2.6795    1.2298    3.3336 N   0  0  0  0  0  0  0  0  0  0  0  0
   -2.4327    1.6559    1.9812 C   0  0  2  0  0  0  0  0  0  0  0  0
   -1.0977    1.0705    1.5400 C   0  0  0  0  0  0  0  0  0  0  0  0
   -0.2256    0.7177    2.3313 O   0  0  0  0  0  0  0  0  0  0  0  0
   -2.4239    3.1726    1.8718 C   0  0  0  0  0  0  0  0  0  0  0  0
   -3.4446    1.6657    3.8454 H   0  0  0  0  0  0  0  0  0  0  0  0
   -3.2368    1.2374    1.3661 H   0  0  0  0  0  0  0  0  0  0  0  0
   -1.6248    3.6099    2.4815 H   0  0  0  0  0  0  0  0  0  0  0  0
   -2.2644    3.4949    0.8375 H   0  0  0  0  0  0  0  0  0  0  0  0
   -3.3741    3.5939    2.2175 H   0  0  0  0  0  0  0  0  0  0  0  0
   -0.9750    1.0274    0.1566 N   0  0  0  0  0  0  0  0  0  0  0  0
    0.2023    0.5266   -0.5070 C   0  0  2  0  0  0  0  0  0  0  0  0
    0.3797   -0.9250   -0.0763 C   0  0  0  0  0  0  0  0  0  0  0  0
    0.1547   -1.8763   -0.8215 O   0  0  0  0  0  0  0  0  0  0  0  0
    1.4533    1.3420   -0.1604 C   0  0  0  0  0  0  0  0  0  0  0  0
    1.4007    2.7499   -0.7014 C   0  0  0  0  0  0  0  0  0  0  0  0
    1.7259    2.9975   -2.0351 C   0  0  0  0  0  0  0  0  0  0  0  0
    1.0274    3.8039    0.1326 C   0  0  0  0  0  0  0  0  0  0  0  0
    1.6777    4.2988   -2.5347 C   0  0  0  0  0  0  0  0  0  0  0  0
    0.9793    5.1053   -0.3670 C   0  0  0  0  0  0  0  0  0  0  0  0
    1.3044    5.3528   -1.7007 C   0  0  0  0  0  0  0  0  0  0  0  0
    1.2588    6.6227   -2.1881 O   0  0  0  0  0  0  0  0  0  0  0  0
   -1.7582    1.3241   -0.4207 H   0  0  0  0  0  0  0  0  0  0  0  0
   -0.0079    0.5587   -1.5826 H   0  0  0  0  0  0  0  0  0  0  0  0
    2.3532    0.8357   -0.5351 H   0  0  0  0  0  0  0  0  0  0  0  0
    1.5860    1.3967    0.9282 H   0  0  0  0  0  0  0  0  0  0  0  0
    2.0176    2.1825   -2.6920 H   0  0  0  0  0  0  0  0  0  0  0  0
    0.7723    3.6203    1.1732 H   0  0  0  0  0  0  0  0  0  0  0  0
    1.9324    4.4854   -3.5746 H   0  0  0  0  0  0  0  0  0  0  0  0
    0.6882    5.9218    0.2877 H   0  0  0  0  0  0  0  0  0  0  0  0
    0.9839    7.2405   -1.4920 H   0  0  0  0  0  0  0  0  0  0  0  0
    0.8657   -1.0268    1.2198 N   0  0  0  0  0  0  0  0  0  0  0  0
    1.1454   -2.2891    1.8656 C   0  0  2  0  0  0  0  0  0  0  0  0
   -0.0750   -3.1843    1.6969 C   0  0  0  0  0  0  0  0  0  0  0  0
   -1.2027   -2.7469    1.4775 O   0  0  0  0  0  0  0  0  0  0  0  0
    1.4787   -2.0960    3.3368 C   0  0  0  0  0  0  0  0  0  0  0  0
    1.0331   -0.1709    1.7406 H   0  0  0  0  0  0  0  0  0  0  0  0
    1.9988   -2.7310    1.3398 H   0  0  0  0  0  0  0  0  0  0  0  0
    0.6354   -1.6541    3.8801 H   0  0  0  0  0  0  0  0  0  0  0  0
    1.7182   -3.0501    3.8178 H   0  0  0  0  0  0  0  0  0  0  0  0
    2.3384   -1.4280    3.4573 H   0  0  0  0  0  0  0  0  0  0  0  0
    0.2355   -4.5268    1.8628 N   0  0  0  0  0  0  0  0  0  0  0  0
   -0.7541   -5.5740    1.7635 C   0  0  0  0  0  0  0  0  0  0  0  0
    1.2005   -4.8003    2.0233 H   0  0  0  0  0  0  0  0  0  0  0  0
   -1.1617   -5.7899    2.7622 H   0  0  0  0  0  0  0  0  0  0  0  0
   -1.5673   -5.2480    1.0983 H   0  0  0  0  0  0  0  0  0  0  0  0
   -0.2872   -6.4820    1.3541 H   0  0  0  0  0  0  0  0  0  0  0  0
 23 25  2  0  0  0  0
 22 23  1  0  0  0  0
 24 26  1  0  0  0  0
 22 24  2  0  0  0  0
 25 27  1  0  0  0  0
 26 27  2  0  0  0  0
 21 22  1  0  0  0  0
 27 28  1  0  0  0  0
  1  3  1  0  0  0  0
  1  7  1  0  0  0  0
  1  2  2  0  0  0  0
 39 40  1  0  0  0  0
 40 48  1  0  0  0  0
 40 41  2  0  0  0  0
  8  9  1  0  0  0  0
  9 17  1  0  0  0  0
  9 10  2  0  0  0  0
 18 19  1  0  0  0  0
 19 38  1  0  0  0  0
 19 20  2  0  0  0  0
 39 42  1  0  0  0  0
  8 11  1  0  0  0  0
 48 49  1  0  0  0  0
 18 21  1  0  0  0  0
 38 39  1  0  0  0  0
  7  8  1  0  0  0  0
 17 18  1  0  0  0  0
 23 33  1  0  0  0  0
 24 34  1  0  0  0  0
 25 35  1  0  0  0  0
 26 36  1  0  0  0  0
  3  4  1  0  0  0  0
  3  5  1  0  0  0  0
  3  6  1  0  0  0  0
 42 45  1  0  0  0  0
 42 46  1  0  0  0  0
 42 47  1  0  0  0  0
 11 14  1  0  0  0  0
 11 15  1  0  0  0  0
 11 16  1  0  0  0  0
 49 51  1  0  0  0  0
 49 52  1  0  0  0  0
 49 53  1  0  0  0  0
 21 31  1  0  0  0  0
 21 32  1  0  0  0  0
 39 44  1  0  0  0  0
  8 13  1  0  0  0  0
 18 30  1  0  0  0  0
 48 50  1  0  0  0  0
  7 12  1  0  0  0  0
 38 43  1  0  0  0  0
 17 29  1  0  0  0  0
 28 37  1  0  0  0  0
M  END
$$$$

  -OEChem-05262214473D

 53 53  0     1  0  0  0  0  0999 V2000
   -1.9298    0.2574    3.9747 C   0  0  0  0  0  0  0  0  0  0  0  0
   -0.9825   -0.3573    3.4990 O   0  0  0  0  0  0  0  0  0  0  0  0
   -2.3617   -0.0250    5.3754 C   0  0  0  0  0  0  0  0  0  0  0  0
   -3.1214   -0.8213    5.4288 H   0  0  0  0  0  0  0  0  0  0  0  0
   -1.5305   -0.3726    6.0097 H   0  0  0  0  0  0  0  0  0  0  0  0
   -2.7997    0.8299    5.9150 H   0  0  0  0  0  0  0  0  0  0  0  0
   -2.6795    1.2298    3.3336 N   0  0  0  0  0  0  0  0  0  0  0  0
   -2.4327    1.6559    1.9812 C   0  0  2  0  0  0  0  0  0  0  0  0
   -1.0977    1.0705    1.5400 C   0  0  0  0  0  0  0  0  0  0  0  0
   -0.2256    0.7177    2.3313 O   0  0  0  0  0  0  0  0  0  0  0  0
   -2.4239    3.1726    1.8718 C   0  0  0  0  0  0  0  0  0  0  0  0
   -3.4446    1.6657    3.8454 H   0  0  0  0  0  0  0  0  0  0  0  0
   -3.2368    1.2374    1.3661 H   0  0  0  0  0  0  0  0  0  0  0  0
   -1.6248    3.6099    2.4815 H   0  0  0  0  0  0  0  0  0  0  0  0
   -2.2644    3.4949    0.8375 H   0  0  0  0  0  0  0  0  0  0  0  0
   -3.3741    3.5939    2.2175 H   0  0  0  0  0  0  0  0  0  0  0  0
   -0.9750    1.0274    0.1566 N   0  0  0  0  0  0  0  0  0  0  0  0
    0.2023    0.5266   -0.5070 C   0  0  2  0  0  0  0  0  0  0  0  0
    0.3797   -0.9250   -0.0763 C   0  0  0  0  0  0  0  0  0  0  0  0
    0.4183   -1.8596   -0.8738 O   0  0  0  0  0  0  0  0  0  0  0  0
    1.4533    1.3420   -0.1604 C   0  0  0  0  0  0  0  0  0  0  0  0
    1.4007    2.7499   -0.7014 C   0  0  0  0  0  0  0  0  0  0  0  0
    1.7259    2.9975   -2.0351 C   0  0  0  0  0  0  0  0  0  0  0  0
    1.0274    3.8039    0.1326 C   0  0  0  0  0  0  0  0  0  0  0  0
    1.6777    4.2988   -2.5347 C   0  0  0  0  0  0  0  0  0  0  0  0
    0.9793    5.1053   -0.3670 C   0  0  0  0  0  0  0  0  0  0  0  0
    1.3044    5.3528   -1.7007 C   0  0  0  0  0  0  0  0  0  0  0  0
    1.2588    6.6227   -2.1881 O   0  0  0  0  0  0  0  0  0  0  0  0
   -1.7582    1.3241   -0.4207 H   0  0  0  0  0  0  0  0  0  0  0  0
   -0.0079    0.5587   -1.5826 H   0  0  0  0  0  0  0  0  0  0  0  0
    2.3532    0.8357   -0.5351 H   0  0  0  0  0  0  0  0  0  0  0  0
    1.5860    1.3967    0.9282 H   0  0  0  0  0  0  0  0  0  0  0  0
    2.0176    2.1825   -2.6920 H   0  0  0  0  0  0  0  0  0  0  0  0
    0.7723    3.6203    1.1732 H   0  0  0  0  0  0  0  0  0  0  0  0
    1.9324    4.4854   -3.5746 H   0  0  0  0  0  0  0  0  0  0  0  0
    0.6882    5.9218    0.2877 H   0  0  0  0  0  0  0  0  0  0  0  0
    0.9839    7.2405   -1.4920 H   0  0  0  0  0  0  0  0  0  0  0  0
    0.5392   -1.0437    1.2973 N   0  0  0  0  0  0  0  0  0  0  0  0
    0.7482   -2.3079    1.9657 C   0  0  2  0  0  0  0  0  0  0  0  0
   -0.3210   -3.2783    1.4814 C   0  0  0  0  0  0  0  0  0  0  0  0
   -1.3906   -2.9118    0.9989 O   0  0  0  0  0  0  0  0  0  0  0  0
    0.6945   -2.1502    3.4773 C   0  0  0  0  0  0  0  0  0  0  0  0
    0.5074   -0.1994    1.8612 H   0  0  0  0  0  0  0  0  0  0  0  0
    1.7358   -2.6687    1.6584 H   0  0  0  0  0  0  0  0  0  0  0  0
   -0.2877   -1.7895    3.8040 H   0  0  0  0  0  0  0  0  0  0  0  0
    0.8813   -3.1035    3.9826 H   0  0  0  0  0  0  0  0  0  0  0  0
    1.4443   -1.4294    3.8208 H   0  0  0  0  0  0  0  0  0  0  0  0
    0.0416   -4.6015    1.6909 N   0  0  0  0  0  0  0  0  0  0  0  0
   -0.8099   -5.7101    1.3278 C   0  0  0  0  0  0  0  0  0  0  0  0
    0.9558   -4.8135    2.0795 H   0  0  0  0  0  0  0  0  0  0  0  0
   -1.4322   -5.9928    2.1896 H   0  0  0  0  0  0  0  0  0  0  0  0
   -1.4576   -5.4154    0.4889 H   0  0  0  0  0  0  0  0  0  0  0  0
   -0.1884   -6.5667    1.0277 H   0  0  0  0  0  0  0  0  0  0  0  0
 23 25  2  0  0  0  0
 22 23  1  0  0  0  0
 24 26  1  0  0  0  0
 22 24  2  0  0  0  0
 25 27  1  0  0  0  0
 26 27  2  0  0  0  0
 21 22  1  0  0  0  0
 27 28  1  0  0  0  0
  1  3  1  0  0  0  0
  1  7  1  0  0  0  0
  1  2  2  0  0  0  0
 39 40  1  0  0  0  0
 40 48  1  0  0  0  0
 40 41  2  0  0  0  0
  8  9  1  0  0  0  0
  9 17  1  0  0  0  0
  9 10  2  0  0  0  0
 18 19  1  0  0  0  0
 19 38  1  0  0  0  0
 19 20  2  0  0  0  0
 39 42  1  0  0  0  0
  8 11  1  0  0  0  0
 48 49  1  0  0  0  0
 18 21  1  0  0  0  0
 38 39  1  0  0  0  0
  7  8  1  0  0  0  0
 17 18  1  0  0  0  0
 23 33  1  0  0  0  0
 24 34  1  0  0  0  0
 25 35  1  0  0  0  0
 26 36  1  0  0  0  0
  3  4  1  0  0  0  0
  3  5  1  0  0  0  0
  3  6  1  0  0  0  0
 42 45  1  0  0  0  0
 42 46  1  0  0  0  0
 42 47  1  0  0  0  0
 11 14  1  0  0  0  0
 11 15  1  0  0  0  0
 11 16  1  0  0  0  0
 49 51  1  0  0  0  0
 49 52  1  0  0  0  0
 49 53  1  0  0  0  0
 21 31  1  0  0  0  0
 21 32  1  0  0  0  0
 39 44  1  0  0  0  0
  8 13  1  0  0  0  0
 18 30  1  0  0  0  0
 48 50  1  0  0  0  0
  7 12  1  0  0  0  0
 38 43  1  0  0  0  0
 17 29  1  0  0  0  0
 28 37  1  0  0  0  0
M  END
$$$$

  -OEChem-05262214473D

 53 53  0     1  0  0  0  0  0999 V2000
   -1.9298    0.2574    3.9747 C   0  0  0  0  0  0  0  0  0  0  0  0
   -0.9825   -0.3573    3.4990 O   0  0  0  0  0  0  0  0  0  0  0  0
   -2.3617   -0.0250    5.3754 C   0  0  0  0  0  0  0  0  0  0  0  0
   -3.1214   -0.8213    5.4288 H   0  0  0  0  0  0  0  0  0  0  0  0
   -1.5305   -0.3726    6.0097 H   0  0  0  0  0  0  0  0  0  0  0  0
   -2.7997    0.8299    5.9150 H   0  0  0  0  0  0  0  0  0  0  0  0
   -2.6795    1.2298    3.3336 N   0  0  0  0  0  0  0  0  0  0  0  0
   -2.4327    1.6559    1.9812 C   0  0  2  0  0  0  0  0  0  0  0  0
   -1.0977    1.0705    1.5400 C   0  0  0  0  0  0  0  0  0  0  0  0
   -0.2256    0.7177    2.3313 O   0  0  0  0  0  0  0  0  0  0  0  0
   -2.4239    3.1726    1.8718 C   0  0  0  0  0  0  0  0  0  0  0  0
   -3.4446    1.6657    3.8454 H   0  0  0  0  0  0  0  0  0  0  0  0
   -3.2368    1.2374    1.3661 H   0  0  0  0  0  0  0  0  0  0  0  0
   -1.6248    3.6099    2.4815 H   0  0  0  0  0  0  0  0  0  0  0  0
   -2.2644    3.4949    0.8375 H   0  0  0  0  0  0  0  0  0  0  0  0
   -3.3741    3.5939    2.2175 H   0  0  0  0  0  0  0  0  0  0  0  0
   -0.9750    1.0274    0.1566 N   0  0  0  0  0  0  0  0  0  0  0  0
    0.2023    0.5266   -0.5070 C   0  0  2  0  0  0  0  0  0  0  0  0
    0.3797   -0.9250   -0.0763 C   0  0  0  0  0  0  0  0  0  0  0  0
    0.6845   -1.8226   -0.8588 O   0  0  0  0  0  0  0  0  0  0  0  0
    1.4533    1.3420   -0.1604 C   0  0  0  0  0  0  0  0  0  0  0  0
    1.4007    2.7499   -0.7014 C   0  0  0  0  0  0  0  0  0  0  0  0
    1.7259    2.9975   -2.0351 C   0  0  0  0  0  0  0  0  0  0  0  0
    1.0274    3.8039    0.1326 C   0  0  0  0  0  0  0  0  0  0  0  0
    1.6777    4.2988   -2.5347 C   0  0  0  0  0  0  0  0  0  0  0  0
    0.9793    5.1053   -0.3670 C   0  0  0  0  0  0  0  0  0  0  0  0
    1.3044    5.3528   -1.7007 C   0  0  0  0  0  0  0  0  0  0  0  0
    1.2588    6.6227   -2.1881 O   0  0  0  0  0  0  0  0  0  0  0  0
   -1.7582    1.3241   -0.4207 H   0  0  0  0  0  0  0  0  0  0  0  0
   -0.0079    0.5587   -1.5826 H   0  0  0  0  0  0  0  0  0  0  0  0
    2.3532    0.8357   -0.5351 H   0  0  0  0  0  0  0  0  0  0  0  0
    1.5860    1.3967    0.9282 H   0  0  0  0  0  0  0  0  0  0  0  0
    2.0176    2.1825   -2.6920 H   0  0  0  0  0  0  0  0  0  0  0  0
    0.7723    3.6203    1.1732 H   0  0  0  0  0  0  0  0  0  0  0  0
    1.9324    4.4854   -3.5746 H   0  0  0  0  0  0  0  0  0  0  0  0
    0.6882    5.9218    0.2877 H   0  0  0  0  0  0  0  0  0  0  0  0
    0.9839    7.2405   -1.4920 H   0  0  0  0  0  0  0  0  0  0  0  0
    0.2059   -1.0862    1.2913 N   0  0  0  0  0  0  0  0  0  0  0  0
    0.3412   -2.3582    1.9639 C   0  0  2  0  0  0  0  0  0  0  0  0
   -0.4987   -3.3806    1.2097 C   0  0  0  0  0  0  0  0  0  0  0  0
   -1.4421   -3.0705    0.4853 O   0  0  0  0  0  0  0  0  0  0  0  0
   -0.0937   -2.2641    3.4181 C   0  0  0  0  0  0  0  0  0  0  0  0
   -0.0280   -0.2690    1.8473 H   0  0  0  0  0  0  0  0  0  0  0  0
    1.3987   -2.6372    1.9032 H   0  0  0  0  0  0  0  0  0  0  0  0
   -1.1507   -1.9855    3.4991 H   0  0  0  0  0  0  0  0  0  0  0  0
    0.0362   -3.2212    3.9339 H   0  0  0  0  0  0  0  0  0  0  0  0
    0.4913   -1.5071    3.9516 H   0  0  0  0  0  0  0  0  0  0  0  0
   -0.0979   -4.6827    1.4747 N   0  0  0  0  0  0  0  0  0  0  0  0
   -0.7464   -5.8326    0.8890 C   0  0  0  0  0  0  0  0  0  0  0  0
    0.7066   -4.8459    2.0730 H   0  0  0  0  0  0  0  0  0  0  0  0
   -1.5375   -6.1913    1.5638 H   0  0  0  0  0  0  0  0  0  0  0  0
   -1.1893   -5.5507   -0.0777 H   0  0  0  0  0  0  0  0  0  0  0  0
   -0.0064   -6.6316    0.7343 H   0  0  0  0  0  0  0  0  0  0  0  0
 23 25  2  0  0  0  0
 22 23  1  0  0  0  0
 24 26  1  0  0  0  0
 22 24  2  0  0  0  0
 25 27  1  0  0  0  0
 26 27  2  0  0  0  0
 21 22  1  0  0  0  0
 27 28  1  0  0  0  0
  1  3  1  0  0  0  0
  1  7  1  0  0  0  0
  1  2  2  0  0  0  0
 39 40  1  0  0  0  0
 40 48  1  0  0  0  0
 40 41  2  0  0  0  0
  8  9  1  0  0  0  0
  9 17  1  0  0  0  0
  9 10  2  0  0  0  0
 18 19  1  0  0  0  0
 19 38  1  0  0  0  0
 19 20  2  0  0  0  0
 39 42  1  0  0  0  0
  8 11  1  0  0  0  0
 48 49  1  0  0  0  0
 18 21  1  0  0  0  0
 38 39  1  0  0  0  0
  7  8  1  0  0  0  0
 17 18  1  0  0  0  0
 23 33  1  0  0  0  0
 24 34  1  0  0  0  0
 25 35  1  0  0  0  0
 26 36  1  0  0  0  0
  3  4  1  0  0  0  0
  3  5  1  0  0  0  0
  3  6  1  0  0  0  0
 42 45  1  0  0  0  0
 42 46  1  0  0  0  0
 42 47  1  0  0  0  0
 11 14  1  0  0  0  0
 11 15  1  0  0  0  0
 11 16  1  0  0  0  0
 49 51  1  0  0  0  0
 49 52  1  0  0  0  0
 49 53  1  0  0  0  0
 21 31  1  0  0  0  0
 21 32  1  0  0  0  0
 39 44  1  0  0  0  0
  8 13  1  0  0  0  0
 18 30  1  0  0  0  0
 48 50  1  0  0  0  0
  7 12  1  0  0  0  0
 38 43  1  0  0  0  0
 17 29  1  0  0  0  0
 28 37  1  0  0  0  0
M  END
$$$$

  -OEChem-05262214473D

 53 53  0     1  0  0  0  0  0999 V2000
   -1.9298    0.2574    3.9747 C   0  0  0  0  0  0  0  0  0  0  0  0
   -0.9825   -0.3573    3.4990 O   0  0  0  0  0  0  0  0  0  0  0  0
   -2.3617   -0.0250    5.3754 C   0  0  0  0  0  0  0  0  0  0  0  0
   -3.1214   -0.8213    5.4288 H   0  0  0  0  0  0  0  0  0  0  0  0
   -1.5305   -0.3726    6.0097 H   0  0  0  0  0  0  0  0  0  0  0  0
   -2.7997    0.8299    5.9150 H   0  0  0  0  0  0  0  0  0  0  0  0
   -2.6795    1.2298    3.3336 N   0  0  0  0  0  0  0  0  0  0  0  0
   -2.4327    1.6559    1.9812 C   0  0  2  0  0  0  0  0  0  0  0  0
   -1.0977    1.0705    1.5400 C   0  0  0  0  0  0  0  0  0  0  0  0
   -0.2256    0.7177    2.3313 O   0  0  0  0  0  0  0  0  0  0  0  0
   -2.4239    3.1726    1.8718 C   0  0  0  0  0  0  0  0  0  0  0  0
   -3.4446    1.6657    3.8454 H   0  0  0  0  0  0  0  0  0  0  0  0
   -3.2368    1.2374    1.3661 H   0  0  0  0  0  0  0  0  0  0  0  0
   -1.6248    3.6099    2.4815 H   0  0  0  0  0  0  0  0  0  0  0  0
   -2.2644    3.4949    0.8375 H   0  0  0  0  0  0  0  0  0  0  0  0
   -3.3741    3.5939    2.2175 H   0  0  0  0  0  0  0  0  0  0  0  0
   -0.9750    1.0274    0.1566 N   0  0  0  0  0  0  0  0  0  0  0  0
    0.2023    0.5266   -0.5070 C   0  0  2  0  0  0  0  0  0  0  0  0
    0.3797   -0.9250   -0.0763 C   0  0  0  0  0  0  0  0  0  0  0  0
    0.9352   -1.7679   -0.7776 O   0  0  0  0  0  0  0  0  0  0  0  0
    1.4533    1.3420   -0.1604 C   0  0  0  0  0  0  0  0  0  0  0  0
    1.4007    2.7499   -0.7014 C   0  0  0  0  0  0  0  0  0  0  0  0
    1.7259    2.9975   -2.0351 C   0  0  0  0  0  0  0  0  0  0  0  0
    1.0274    3.8039    0.1326 C   0  0  0  0  0  0  0  0  0  0  0  0
    1.6777    4.2988   -2.5347 C   0  0  0  0  0  0  0  0  0  0  0  0
    0.9793    5.1053   -0.3670 C   0  0  0  0  0  0  0  0  0  0  0  0
    1.3044    5.3528   -1.7007 C   0  0  0  0  0  0  0  0  0  0  0  0
    1.2588    6.6227   -2.1881 O   0  0  0  0  0  0  0  0  0  0  0  0
   -1.7582    1.3241   -0.4207 H   0  0  0  0  0  0  0  0  0  0  0  0
   -0.0079    0.5587   -1.5826 H   0  0  0  0  0  0  0  0  0  0  0  0
    2.3532    0.8357   -0.5351 H   0  0  0  0  0  0  0  0  0  0  0  0
    1.5860    1.3967    0.9282 H   0  0  0  0  0  0  0  0  0  0  0  0
    2.0176    2.1825   -2.6920 H   0  0  0  0  0  0  0  0  0  0  0  0
    0.7723    3.6203    1.1732 H   0  0  0  0  0  0  0  0  0  0  0  0
    1.9324    4.4854   -3.5746 H   0  0  0  0  0  0  0  0  0  0  0  0
    0.6882    5.9218    0.2877 H   0  0  0  0  0  0  0  0  0  0  0  0
    0.9839    7.2405   -1.4920 H   0  0  0  0  0  0  0  0  0  0  0  0
   -0.1113   -1.1514    1.2020 N   0  0  0  0  0  0  0  0  0  0  0  0
   -0.0479   -2.4365    1.8604 C   0  0  2  0  0  0  0  0  0  0  0  0
   -0.5958   -3.4843    0.9005 C   0  0  0  0  0  0  0  0  0  0  0  0
   -1.3537   -3.2121   -0.0283 O   0  0  0  0  0  0  0  0  0  0  0  0
   -0.8321   -2.4299    3.1633 C   0  0  0  0  0  0  0  0  0  0  0  0
   -0.5366   -0.3749    1.6998 H   0  0  0  0  0  0  0  0  0  0  0  0
    1.0105   -2.6389    2.0576 H   0  0  0  0  0  0  0  0  0  0  0  0
   -1.8949   -2.2287    2.9859 H   0  0  0  0  0  0  0  0  0  0  0  0
   -0.7595   -3.3953    3.6750 H   0  0  0  0  0  0  0  0  0  0  0  0
   -0.4559   -1.6557    3.8408 H   0  0  0  0  0  0  0  0  0  0  0  0
   -0.1734   -4.7648    1.2291 N   0  0  0  0  0  0  0  0  0  0  0  0
   -0.5680   -5.9330    0.4771 C   0  0  0  0  0  0  0  0  0  0  0  0
    0.4698   -4.8952    2.0044 H   0  0  0  0  0  0  0  0  0  0  0  0
   -1.4705   -6.3720    0.9274 H   0  0  0  0  0  0  0  0  0  0  0  0
   -0.7805   -5.6448   -0.5630 H   0  0  0  0  0  0  0  0  0  0  0  0
    0.2465   -6.6720    0.4937 H   0  0  0  0  0  0  0  0  0  0  0  0
 23 25  2  0  0  0  0
 22 23  1  0  0  0  0
 24 26  1  0  0  0  0
 22 24  2  0  0  0  0
 25 27  1  0  0  0  0
 26 27  2  0  0  0  0
 21 22  1  0  0  0  0
 27 28  1  0  0  0  0
  1  3  1  0  0  0  0
  1  7  1  0  0  0  0
  1  2  2  0  0  0  0
 39 40  1  0  0  0  0
 40 48  1  0  0  0  0
 40 41  2  0  0  0  0
  8  9  1  0  0  0  0
  9 17  1  0  0  0  0
  9 10  2  0  0  0  0
 18 19  1  0  0  0  0
 19 38  1  0  0  0  0
 19 20  2  0  0  0  0
 39 42  1  0  0  0  0
  8 11  1  0  0  0  0
 48 49  1  0  0  0  0
 18 21  1  0  0  0  0
 38 39  1  0  0  0  0
  7  8  1  0  0  0  0
 17 18  1  0  0  0  0
 23 33  1  0  0  0  0
 24 34  1  0  0  0  0
 25 35  1  0  0  0  0
 26 36  1  0  0  0  0
  3  4  1  0  0  0  0
  3  5  1  0  0  0  0
  3  6  1  0  0  0  0
 42 45  1  0  0  0  0
 42 46  1  0  0  0  0
 42 47  1  0  0  0  0
 11 14  1  0  0  0  0
 11 15  1  0  0  0  0
 11 16  1  0  0  0  0
 49 51  1  0  0  0  0
 49 52  1  0  0  0  0
 49 53  1  0  0  0  0
 21 31  1  0  0  0  0
 21 32  1  0  0  0  0
 39 44  1  0  0  0  0
  8 13  1  0  0  0  0
 18 30  1  0  0  0  0
 48 50  1  0  0  0  0
  7 12  1  0  0  0  0
 38 43  1  0  0  0  0
 17 29  1  0  0  0  0
 28 37  1  0  0  0  0
M  END
$$$$

  -OEChem-05262214473D

 53 53  0     1  0  0  0  0  0999 V2000
   -1.9298    0.2574    3.9747 C   0  0  0  0  0  0  0  0  0  0  0  0
   -0.9825   -0.3573    3.4990 O   0  0  0  0  0  0  0  0  0  0  0  0
   -2.3617   -0.0250    5.3754 C   0  0  0  0  0  0  0  0  0  0  0  0
   -3.1214   -0.8213    5.4288 H   0  0  0  0  0  0  0  0  0  0  0  0
   -1.5305   -0.3726    6.0097 H   0  0  0  0  0  0  0  0  0  0  0  0
   -2.7997    0.8299    5.9150 H   0  0  0  0  0  0  0  0  0  0  0  0
   -2.6795    1.2298    3.3336 N   0  0  0  0  0  0  0  0  0  0  0  0
   -2.4327    1.6559    1.9812 C   0  0  2  0  0  0  0  0  0  0  0  0
   -1.0977    1.0705    1.5400 C   0  0  0  0  0  0  0  0  0  0  0  0
   -0.2256    0.7177    2.3313 O   0  0  0  0  0  0  0  0  0  0  0  0
   -2.4239    3.1726    1.8718 C   0  0  0  0  0  0  0  0  0  0  0  0
   -3.4446    1.6657    3.8454 H   0  0  0  0  0  0  0  0  0  0  0  0
   -3.2368    1.2374    1.3661 H   0  0  0  0  0  0  0  0  0  0  0  0
   -1.6248    3.6099    2.4815 H   0  0  0  0  0  0  0  0  0  0  0  0
   -2.2644    3.4949    0.8375 H   0  0  0  0  0  0  0  0  0  0  0  0
   -3.3741    3.5939    2.2175 H   0  0  0  0  0  0  0  0  0  0  0  0
   -0.9750    1.0274    0.1566 N   0  0  0  0  0  0  0  0  0  0  0  0
    0.2023    0.5266   -0.5070 C   0  0  2  0  0  0  0  0  0  0  0  0
    0.3797   -0.9250   -0.0763 C   0  0  0  0  0  0  0  0  0  0  0  0
    1.1534   -1.6992   -0.6358 O   0  0  0  0  0  0  0  0  0  0  0  0
    1.4533    1.3420   -0.1604 C   0  0  0  0  0  0  0  0  0  0  0  0
    1.4007    2.7499   -0.7014 C   0  0  0  0  0  0  0  0  0  0  0  0
    1.7259    2.9975   -2.0351 C   0  0  0  0  0  0  0  0  0  0  0  0
    1.0274    3.8039    0.1326 C   0  0  0  0  0  0  0  0  0  0  0  0
    1.6777    4.2988   -2.5347 C   0  0  0  0  0  0  0  0  0  0  0  0
    0.9793    5.1053   -0.3670 C   0  0  0  0  0  0  0  0  0  0  0  0
    1.3044    5.3528   -1.7007 C   0  0  0  0  0  0  0  0  0  0  0  0
    1.2588    6.6227   -2.1881 O   0  0  0  0  0  0  0  0  0  0  0  0
   -1.7582    1.3241   -0.4207 H   0  0  0  0  0  0  0  0  0  0  0  0
   -0.0079    0.5587   -1.5826 H   0  0  0  0  0  0  0  0  0  0  0  0
    2.3532    0.8357   -0.5351 H   0  0  0  0  0  0  0  0  0  0  0  0
    1.5860    1.3967    0.9282 H   0  0  0  0  0  0  0  0  0  0  0  0
    2.0176    2.1825   -2.6920 H   0  0  0  0  0  0  0  0  0  0  0  0
    0.7723    3.6203    1.1732 H   0  0  0  0  0  0  0  0  0  0  0  0
    1.9324    4.4854   -3.5746 H   0  0  0  0  0  0  0  0  0  0  0  0
    0.6882    5.9218    0.2877 H   0  0  0  0  0  0  0  0  0  0  0  0
    0.9839    7.2405   -1.4920 H   0  0  0  0  0  0  0  0  0  0  0  0
   -0.3910   -1.2350    1.0356 N   0  0  0  0  0  0  0  0  0  0  0  0
   -0.3924   -2.5374    1.6622 C   0  0  2  0  0  0  0  0  0  0  0  0
   -0.6059   -3.5821    0.5748 C   0  0  0  0  0  0  0  0  0  0  0  0
   -1.1314   -3.3269   -0.5068 O   0  0  0  0  0  0  0  0  0  0  0  0
   -1.4704   -2.6364    2.7302 C   0  0  0  0  0  0  0  0  0  0  0  0
   -0.9839   -0.5100    1.4288 H   0  0  0  0  0  0  0  0  0  0  0  0
    0.5976   -2.6735    2.1109 H   0  0  0  0  0  0  0  0  0  0  0  0
   -2.4694   -2.5026    2.2994 H   0  0  0  0  0  0  0  0  0  0  0  0
   -1.4515   -3.6138    3.2236 H   0  0  0  0  0  0  0  0  0  0  0  0
   -1.3326   -1.8652    3.4958 H   0  0  0  0  0  0  0  0  0  0  0  0
   -0.1798   -4.8422    0.9708 N   0  0  0  0  0  0  0  0  0  0  0  0
   -0.2869   -6.0045    0.1202 C   0  0  0  0  0  0  0  0  0  0  0  0
    0.2616   -4.9581    1.8783 H   0  0  0  0  0  0  0  0  0  0  0  0
   -1.2357   -6.5224    0.3238 H   0  0  0  0  0  0  0  0  0  0  0  0
   -0.2592   -5.6911   -0.9339 H   0  0  0  0  0  0  0  0  0  0  0  0
    0.5531   -6.6854    0.3224 H   0  0  0  0  0  0  0  0  0  0  0  0
 23 25  2  0  0  0  0
 22 23  1  0  0  0  0
 24 26  1  0  0  0  0
 22 24  2  0  0  0  0
 25 27  1  0  0  0  0
 26 27  2  0  0  0  0
 21 22  1  0  0  0  0
 27 28  1  0  0  0  0
  1  3  1  0  0  0  0
  1  7  1  0  0  0  0
  1  2  2  0  0  0  0
 39 40  1  0  0  0  0
 40 48  1  0  0  0  0
 40 41  2  0  0  0  0
  8  9  1  0  0  0  0
  9 17  1  0  0  0  0
  9 10  2  0  0  0  0
 18 19  1  0  0  0  0
 19 38  1  0  0  0  0
 19 20  2  0  0  0  0
 39 42  1  0  0  0  0
  8 11  1  0  0  0  0
 48 49  1  0  0  0  0
 18 21  1  0  0  0  0
 38 39  1  0  0  0  0
  7  8  1  0  0  0  0
 17 18  1  0  0  0  0
 23 33  1  0  0  0  0
 24 34  1  0  0  0  0
 25 35  1  0  0  0  0
 26 36  1  0  0  0  0
  3  4  1  0  0  0  0
  3  5  1  0  0  0  0
  3  6  1  0  0  0  0
 42 45  1  0  0  0  0
 42 46  1  0  0  0  0
 42 47  1  0  0  0  0
 11 14  1  0  0  0  0
 11 15  1  0  0  0  0
 11 16  1  0  0  0  0
 49 51  1  0  0  0  0
 49 52  1  0  0  0  0
 49 53  1  0  0  0  0
 21 31  1  0  0  0  0
 21 32  1  0  0  0  0
 39 44  1  0  0  0  0
  8 13  1  0  0  0  0
 18 30  1  0  0  0  0
 48 50  1  0  0  0  0
  7 12  1  0  0  0  0
 38 43  1  0  0  0  0
 17 29  1  0  0  0  0
 28 37  1  0  0  0  0
M  END
$$$$

  -OEChem-05262214473D

 53 53  0     1  0  0  0  0  0999 V2000
   -1.9298    0.2574    3.9747 C   0  0  0  0  0  0  0  0  0  0  0  0
   -0.9825   -0.3573    3.4990 O   0  0  0  0  0  0  0  0  0  0  0  0
   -2.3617   -0.0250    5.3754 C   0  0  0  0  0  0  0  0  0  0  0  0
   -3.1214   -0.8213    5.4288 H   0  0  0  0  0  0  0  0  0  0  0  0
   -1.5305   -0.3726    6.0097 H   0  0  0  0  0  0  0  0  0  0  0  0
   -2.7997    0.8299    5.9150 H   0  0  0  0  0  0  0  0  0  0  0  0
   -2.6795    1.2298    3.3336 N   0  0  0  0  0  0  0  0  0  0  0  0
   -2.4327    1.6559    1.9812 C   0  0  2  0  0  0  0  0  0  0  0  0
   -1.0977    1.0705    1.5400 C   0  0  0  0  0  0  0  0  0  0  0  0
   -0.2256    0.7177    2.3313 O   0  0  0  0  0  0  0  0  0  0  0  0
   -2.4239    3.1726    1.8718 C   0  0  0  0  0  0  0  0  0  0  0  0
   -3.4446    1.6657    3.8454 H   0  0  0  0  0  0  0  0  0  0  0  0
   -3.2368    1.2374    1.3661 H   0  0  0  0  0  0  0  0  0  0  0  0
   -1.6248    3.6099    2.4815 H   0  0  0  0  0  0  0  0  0  0  0  0
   -2.2644    3.4949    0.8375 H   0  0  0  0  0  0  0  0  0  0  0  0
   -3.3741    3.5939    2.2175 H   0  0  0  0  0  0  0  0  0  0  0  0
   -0.9750    1.0274    0.1566 N   0  0  0  0  0  0  0  0  0  0  0  0
    0.2023    0.5266   -0.5070 C   0  0  2  0  0  0  0  0  0  0  0  0
    0.3797   -0.9250   -0.0763 C   0  0  0  0  0  0  0  0  0  0  0  0
    1.3241   -1.6211   -0.4429 O   0  0  0  0  0  0  0  0  0  0  0  0
    1.4533    1.3420   -0.1604 C   0  0  0  0  0  0  0  0  0  0  0  0
    1.4007    2.7499   -0.7014 C   0  0  0  0  0  0  0  0  0  0  0  0
    1.7259    2.9975   -2.0351 C   0  0  0  0  0  0  0  0  0  0  0  0
    1.0274    3.8039    0.1326 C   0  0  0  0  0  0  0  0  0  0  0  0
    1.6777    4.2988   -2.5347 C   0  0  0  0  0  0  0  0  0  0  0  0
    0.9793    5.1053   -0.3670 C   0  0  0  0  0  0  0  0  0  0  0  0
    1.3044    5.3528   -1.7007 C   0  0  0  0  0  0  0  0  0  0  0  0
    1.2588    6.6227   -2.1881 O   0  0  0  0  0  0  0  0  0  0  0  0
   -1.7582    1.3241   -0.4207 H   0  0  0  0  0  0  0  0  0  0  0  0
   -0.0079    0.5587   -1.5826 H   0  0  0  0  0  0  0  0  0  0  0  0
    2.3532    0.8357   -0.5351 H   0  0  0  0  0  0  0  0  0  0  0  0
    1.5860    1.3967    0.9282 H   0  0  0  0  0  0  0  0  0  0  0  0
    2.0176    2.1825   -2.6920 H   0  0  0  0  0  0  0  0  0  0  0  0
    0.7723    3.6203    1.1732 H   0  0  0  0  0  0  0  0  0  0  0  0
    1.9324    4.4854   -3.5746 H   0  0  0  0  0  0  0  0  0  0  0  0
    0.6882    5.9218    0.2877 H   0  0  0  0  0  0  0  0  0  0  0  0
    0.9839    7.2405   -1.4920 H   0  0  0  0  0  0  0  0  0  0  0  0
   -0.6141   -1.3311    0.8035 N   0  0  0  0  0  0  0  0  0  0  0  0
   -0.6690   -2.6541    1.3827 C   0  0  2  0  0  0  0  0  0  0  0  0
   -0.5282   -3.6676    0.2547 C   0  0  0  0  0  0  0  0  0  0  0  0
   -0.7903   -3.4071   -0.9177 O   0  0  0  0  0  0  0  0  0  0  0  0
   -1.9651   -2.8695    2.1484 C   0  0  0  0  0  0  0  0  0  0  0  0
   -1.3392   -0.6650    1.0528 H   0  0  0  0  0  0  0  0  0  0  0  0
    0.1881   -2.7388    2.0596 H   0  0  0  0  0  0  0  0  0  0  0  0
   -2.8352   -2.7884    1.4866 H   0  0  0  0  0  0  0  0  0  0  0  0
   -1.9928   -3.8619    2.6105 H   0  0  0  0  0  0  0  0  0  0  0  0
   -2.0790   -2.1213    2.9402 H   0  0  0  0  0  0  0  0  0  0  0  0
   -0.1167   -4.9097    0.7174 N   0  0  0  0  0  0  0  0  0  0  0  0
    0.0779   -6.0423   -0.1574 C   0  0  0  0  0  0  0  0  0  0  0  0
    0.0961   -5.0302    1.7033 H   0  0  0  0  0  0  0  0  0  0  0  0
   -0.8492   -6.6323   -0.2059 H   0  0  0  0  0  0  0  0  0  0  0  0
    0.3391   -5.6865   -1.1650 H   0  0  0  0  0  0  0  0  0  0  0  0
    0.8923   -6.6707    0.2322 H   0  0  0  0  0  0  0  0  0  0  0  0
 23 25  2  0  0  0  0
 22 23  1  0  0  0  0
 24 26  1  0  0  0  0
 22 24  2  0  0  0  0
 25 27  1  0  0  0  0
 26 27  2  0  0  0  0
 21 22  1  0  0  0  0
 27 28  1  0  0  0  0
  1  3  1  0  0  0  0
  1  7  1  0  0  0  0
  1  2  2  0  0  0  0
 39 40  1  0  0  0  0
 40 48  1  0  0  0  0
 40 41  2  0  0  0  0
  8  9  1  0  0  0  0
  9 17  1  0  0  0  0
  9 10  2  0  0  0  0
 18 19  1  0  0  0  0
 19 38  1  0  0  0  0
 19 20  2  0  0  0  0
 39 42  1  0  0  0  0
  8 11  1  0  0  0  0
 48 49  1  0  0  0  0
 18 21  1  0  0  0  0
 38 39  1  0  0  0  0
  7  8  1  0  0  0  0
 17 18  1  0  0  0  0
 23 33  1  0  0  0  0
 24 34  1  0  0  0  0
 25 35  1  0  0  0  0
 26 36  1  0  0  0  0
  3  4  1  0  0  0  0
  3  5  1  0  0  0  0
  3  6  1  0  0  0  0
 42 45  1  0  0  0  0
 42 46  1  0  0  0  0
 42 47  1  0  0  0  0
 11 14  1  0  0  0  0
 11 15  1  0  0  0  0
 11 16  1  0  0  0  0
 49 51  1  0  0  0  0
 49 52  1  0  0  0  0
 49 53  1  0  0  0  0
 21 31  1  0  0  0  0
 21 32  1  0  0  0  0
 39 44  1  0  0  0  0
  8 13  1  0  0  0  0
 18 30  1  0  0  0  0
 48 50  1  0  0  0  0
  7 12  1  0  0  0  0
 38 43  1  0  0  0  0
 17 29  1  0  0  0  0
 28 37  1  0  0  0  0
M  END
$$$$

  -OEChem-05262214473D

 53 53  0     1  0  0  0  0  0999 V2000
   -1.9298    0.2574    3.9747 C   0  0  0  0  0  0  0  0  0  0  0  0
   -0.9825   -0.3573    3.4990 O   0  0  0  0  0  0  0  0  0  0  0  0
   -2.3617   -0.0250    5.3754 C   0  0  0  0  0  0  0  0  0  0  0  0
   -3.1214   -0.8213    5.4288 H   0  0  0  0  0  0  0  0  0  0  0  0
   -1.5305   -0.3726    6.0097 H   0  0  0  0  0  0  0  0  0  0  0  0
   -2.7997    0.8299    5.9150 H   0  0  0  0  0  0  0  0  0  0  0  0
   -2.6795    1.2298    3.3336 N   0  0  0  0  0  0  0  0  0  0  0  0
   -2.4327    1.6559    1.9812 C   0  0  2  0  0  0  0  0  0  0  0  0
   -1.0977    1.0705    1.5400 C   0  0  0  0  0  0  0  0  0  0  0  0
   -0.2256    0.7177    2.3313 O   0  0  0  0  0  0  0  0  0  0  0  0
   -2.4239    3.1726    1.8718 C   0  0  0  0  0  0  0  0  0  0  0  0
   -3.4446    1.6657    3.8454 H   0  0  0  0  0  0  0  0  0  0  0  0
   -3.2368    1.2374    1.3661 H   0  0  0  0  0  0  0  0  0  0  0  0
   -1.6248    3.6099    2.4815 H   0  0  0  0  0  0  0  0  0  0  0  0
   -2.2644    3.4949    0.8375 H   0  0  0  0  0  0  0  0  0  0  0  0
   -3.3741    3.5939    2.2175 H   0  0  0  0  0  0  0  0  0  0  0  0
   -0.9750    1.0274    0.1566 N   0  0  0  0  0  0  0  0  0  0  0  0
    0.2023    0.5266   -0.5070 C   0  0  2  0  0  0  0  0  0  0  0  0
    0.3797   -0.9250   -0.0763 C   0  0  0  0  0  0  0  0  0  0  0  0
    1.4358   -1.5390   -0.2122 O   0  0  0  0  0  0  0  0  0  0  0  0
    1.4533    1.3420   -0.1604 C   0  0  0  0  0  0  0  0  0  0  0  0
    1.4007    2.7499   -0.7014 C   0  0  0  0  0  0  0  0  0  0  0  0
    1.7259    2.9975   -2.0351 C   0  0  0  0  0  0  0  0  0  0  0  0
    1.0274    3.8039    0.1326 C   0  0  0  0  0  0  0  0  0  0  0  0
    1.6777    4.2988   -2.5347 C   0  0  0  0  0  0  0  0  0  0  0  0
    0.9793    5.1053   -0.3670 C   0  0  0  0  0  0  0  0  0  0  0  0
    1.3044    5.3528   -1.7007 C   0  0  0  0  0  0  0  0  0  0  0  0
    1.2588    6.6227   -2.1881 O   0  0  0  0  0  0  0  0  0  0  0  0
   -1.7582    1.3241   -0.4207 H   0  0  0  0  0  0  0  0  0  0  0  0
   -0.0079    0.5587   -1.5826 H   0  0  0  0  0  0  0  0  0  0  0  0
    2.3532    0.8357   -0.5351 H   0  0  0  0  0  0  0  0  0  0  0  0
    1.5860    1.3967    0.9282 H   0  0  0  0  0  0  0  0  0  0  0  0
    2.0176    2.1825   -2.6920 H   0  0  0  0  0  0  0  0  0  0  0  0
    0.7723    3.6203    1.1732 H   0  0  0  0  0  0  0  0  0  0  0  0
    1.9324    4.4854   -3.5746 H   0  0  0  0  0  0  0  0  0  0  0  0
    0.6882    5.9218    0.2877 H   0  0  0  0  0  0  0  0  0  0  0  0
    0.9839    7.2405   -1.4920 H   0  0  0  0  0  0  0  0  0  0  0  0
   -0.7653   -1.4333    0.5214 N   0  0  0  0  0  0  0  0  0  0  0  0
   -0.8587   -2.7786    1.0411 C   0  0  2  0  0  0  0  0  0  0  0  0
   -0.3680   -3.7348   -0.0379 C   0  0  0  0  0  0  0  0  0  0  0  0
   -0.3537   -3.4473   -1.2330 O   0  0  0  0  0  0  0  0  0  0  0  0
   -2.2826   -3.1133    1.4574 C   0  0  0  0  0  0  0  0  0  0  0  0
   -1.5784   -0.8293    0.5973 H   0  0  0  0  0  0  0  0  0  0  0  0
   -0.1900   -2.8302    1.9073 H   0  0  0  0  0  0  0  0  0  0  0  0
   -2.9672   -3.0668    0.6026 H   0  0  0  0  0  0  0  0  0  0  0  0
   -2.3463   -4.1226    1.8774 H   0  0  0  0  0  0  0  0  0  0  0  0
   -2.6444   -2.4065    2.2119 H   0  0  0  0  0  0  0  0  0  0  0  0
    0.0117   -4.9626    0.4862 N   0  0  0  0  0  0  0  0  0  0  0  0
    0.5014   -6.0437   -0.3368 C   0  0  0  0  0  0  0  0  0  0  0  0
   -0.0153   -5.1067    1.4913 H   0  0  0  0  0  0  0  0  0  0  0  0
   -0.3373   -6.6943   -0.6257 H   0  0  0  0  0  0  0  0  0  0  0  0
    0.9737   -5.6314   -1.2407 H   0  0  0  0  0  0  0  0  0  0  0  0
    1.2412   -6.6290    0.2290 H   0  0  0  0  0  0  0  0  0  0  0  0
 23 25  2  0  0  0  0
 22 23  1  0  0  0  0
 24 26  1  0  0  0  0
 22 24  2  0  0  0  0
 25 27  1  0  0  0  0
 26 27  2  0  0  0  0
 21 22  1  0  0  0  0
 27 28  1  0  0  0  0
  1  3  1  0  0  0  0
  1  7  1  0  0  0  0
  1  2  2  0  0  0  0
 39 40  1  0  0  0  0
 40 48  1  0  0  0  0
 40 41  2  0  0  0  0
  8  9  1  0  0  0  0
  9 17  1  0  0  0  0
  9 10  2  0  0  0  0
 18 19  1  0  0  0  0
 19 38  1  0  0  0  0
 19 20  2  0  0  0  0
 39 42  1  0  0  0  0
  8 11  1  0  0  0  0
 48 49  1  0  0  0  0
 18 21  1  0  0  0  0
 38 39  1  0  0  0  0
  7  8  1  0  0  0  0
 17 18  1  0  0  0  0
 23 33  1  0  0  0  0
 24 34  1  0  0  0  0
 25 35  1  0  0  0  0
 26 36  1  0  0  0  0
  3  4  1  0  0  0  0
  3  5  1  0  0  0  0
  3  6  1  0  0  0  0
 42 45  1  0  0  0  0
 42 46  1  0  0  0  0
 42 47  1  0  0  0  0
 11 14  1  0  0  0  0
 11 15  1  0  0  0  0
 11 16  1  0  0  0  0
 49 51  1  0  0  0  0
 49 52  1  0  0  0  0
 49 53  1  0  0  0  0
 21 31  1  0  0  0  0
 21 32  1  0  0  0  0
 39 44  1  0  0  0  0
  8 13  1  0  0  0  0
 18 30  1  0  0  0  0
 48 50  1  0  0  0  0
  7 12  1  0  0  0  0
 38 43  1  0  0  0  0
 17 29  1  0  0  0  0
 28 37  1  0  0  0  0
M  END
$$$$

  -OEChem-05262214473D

 53 53  0     1  0  0  0  0  0999 V2000
   -1.9298    0.2574    3.9747 C   0  0  0  0  0  0  0  0  0  0  0  0
   -0.9825   -0.3573    3.4990 O   0  0  0  0  0  0  0  0  0  0  0  0
   -2.3617   -0.0250    5.3754 C   0  0  0  0  0  0  0  0  0  0  0  0
   -3.1214   -0.8213    5.4288 H   0  0  0  0  0  0  0  0  0  0  0  0
   -1.5305   -0.3726    6.0097 H   0  0  0  0  0  0  0  0  0  0  0  0
   -2.7997    0.8299    5.9150 H   0  0  0  0  0  0  0  0  0  0  0  0
   -2.6795    1.2298    3.3336 N   0  0  0  0  0  0  0  0  0  0  0  0
   -2.4327    1.6559    1.9812 C   0  0  2  0  0  0  0  0  0  0  0  0
   -1.0977    1.0705    1.5400 C   0  0  0  0  0  0  0  0  0  0  0  0
   -0.2256    0.7177    2.3313 O   0  0  0  0  0  0  0  0  0  0  0  0
   -2.4239    3.1726    1.8718 C   0  0  0  0  0  0  0  0  0  0  0  0
   -3.4446    1.6657    3.8454 H   0  0  0  0  0  0  0  0  0  0  0  0
   -3.2368    1.2374    1.3661 H   0  0  0  0  0  0  0  0  0  0  0  0
   -1.6248    3.6099    2.4815 H   0  0  0  0  0  0  0  0  0  0  0  0
   -2.2644    3.4949    0.8375 H   0  0  0  0  0  0  0  0  0  0  0  0
   -3.3741    3.5939    2.2175 H   0  0  0  0  0  0  0  0  0  0  0  0
   -0.9750    1.0274    0.1566 N   0  0  0  0  0  0  0  0  0  0  0  0
    0.2023    0.5266   -0.5070 C   0  0  2  0  0  0  0  0  0  0  0  0
    0.3797   -0.9250   -0.0763 C   0  0  0  0  0  0  0  0  0  0  0  0
    1.4809   -1.4584    0.0407 O   0  0  0  0  0  0  0  0  0  0  0  0
    1.4533    1.3420   -0.1604 C   0  0  0  0  0  0  0  0  0  0  0  0
    1.4007    2.7499   -0.7014 C   0  0  0  0  0  0  0  0  0  0  0  0
    1.7259    2.9975   -2.0351 C   0  0  0  0  0  0  0  0  0  0  0  0
    1.0274    3.8039    0.1326 C   0  0  0  0  0  0  0  0  0  0  0  0
    1.6777    4.2988   -2.5347 C   0  0  0  0  0  0  0  0  0  0  0  0
    0.9793    5.1053   -0.3670 C   0  0  0  0  0  0  0  0  0  0  0  0
    1.3044    5.3528   -1.7007 C   0  0  0  0  0  0  0  0  0  0  0  0
    1.2588    6.6227   -2.1881 O   0  0  0  0  0  0  0  0  0  0  0  0
   -1.7582    1.3241   -0.4207 H   0  0  0  0  0  0  0  0  0  0  0  0
   -0.0079    0.5587   -1.5826 H   0  0  0  0  0  0  0  0  0  0  0  0
    2.3532    0.8357   -0.5351 H   0  0  0  0  0  0  0  0  0  0  0  0
    1.5860    1.3967    0.9282 H   0  0  0  0  0  0  0  0  0  0  0  0
    2.0176    2.1825   -2.6920 H   0  0  0  0  0  0  0  0  0  0  0  0
    0.7723    3.6203    1.1732 H   0  0  0  0  0  0  0  0  0  0  0  0
    1.9324    4.4854   -3.5746 H   0  0  0  0  0  0  0  0  0  0  0  0
    0.6882    5.9218    0.2877 H   0  0  0  0  0  0  0  0  0  0  0  0
    0.9839    7.2405   -1.4920 H   0  0  0  0  0  0  0  0  0  0  0  0
   -0.8343   -1.5346    0.2085 N   0  0  0  0  0  0  0  0  0  0  0  0
   -0.9487   -2.9025    0.6607 C   0  0  2  0  0  0  0  0  0  0  0  0
   -0.1362   -3.7793   -0.2831 C   0  0  0  0  0  0  0  0  0  0  0  0
    0.1486   -3.4447   -1.4311 O   0  0  0  0  0  0  0  0  0  0  0  0
   -2.4011   -3.3512    0.7044 C   0  0  0  0  0  0  0  0  0  0  0  0
   -1.6852   -0.9919    0.0934 H   0  0  0  0  0  0  0  0  0  0  0  0
   -0.5110   -2.9416    1.6641 H   0  0  0  0  0  0  0  0  0  0  0  0
   -2.8566   -3.3188   -0.2921 H   0  0  0  0  0  0  0  0  0  0  0  0
   -2.4881   -4.3782    1.0742 H   0  0  0  0  0  0  0  0  0  0  0  0
   -2.9902   -2.7014    1.3604 H   0  0  0  0  0  0  0  0  0  0  0  0
    0.1965   -4.9974    0.2928 N   0  0  0  0  0  0  0  0  0  0  0  0
    0.9548   -6.0088   -0.4058 C   0  0  0  0  0  0  0  0  0  0  0  0
   -0.0650   -5.1824    1.2567 H   0  0  0  0  0  0  0  0  0  0  0  0
    0.2652   -6.7041   -0.9068 H   0  0  0  0  0  0  0  0  0  0  0  0
    1.6012   -5.5295   -1.1557 H   0  0  0  0  0  0  0  0  0  0  0  0
    1.5759   -6.5631    0.3132 H   0  0  0  0  0  0  0  0  0  0  0  0
 23 25  2  0  0  0  0
 22 23  1  0  0  0  0
 24 26  1  0  0  0  0
 22 24  2  0  0  0  0
 25 27  1  0  0  0  0
 26 27  2  0  0  0  0
 21 22  1  0  0  0  0
 27 28  1  0  0  0  0
  1  3  1  0  0  0  0
  1  7  1  0  0  0  0
  1  2  2  0  0  0  0
 39 40  1  0  0  0  0
 40 48  1  0  0  0  0
 40 41  2  0  0  0  0
  8  9  1  0  0  0  0
  9 17  1  0  0  0  0
  9 10  2  0  0  0  0
 18 19  1  0  0  0  0
 19 38  1  0  0  0  0
 19 20  2  0  0  0  0
 39 42  1  0  0  0  0
  8 11  1  0  0  0  0
 48 49  1  0  0  0  0
 18 21  1  0  0  0  0
 38 39  1  0  0  0  0
  7  8  1  0  0  0  0
 17 18  1  0  0  0  0
 23 33  1  0  0  0  0
 24 34  1  0  0  0  0
 25 35  1  0  0  0  0
 26 36  1  0  0  0  0
  3  4  1  0  0  0  0
  3  5  1  0  0  0  0
  3  6  1  0  0  0  0
 42 45  1  0  0  0  0
 42 46  1  0  0  0  0
 42 47  1  0  0  0  0
 11 14  1  0  0  0  0
 11 15  1  0  0  0  0
 11 16  1  0  0  0  0
 49 51  1  0  0  0  0
 49 52  1  0  0  0  0
 49 53  1  0  0  0  0
 21 31  1  0  0  0  0
 21 32  1  0  0  0  0
 39 44  1  0  0  0  0
  8 13  1  0  0  0  0
 18 30  1  0  0  0  0
 48 50  1  0  0  0  0
  7 12  1  0  0  0  0
 38 43  1  0  0  0  0
 17 29  1  0  0  0  0
 28 37  1  0  0  0  0
M  END
$$$$

  -OEChem-05262214473D

 53 53  0     1  0  0  0  0  0999 V2000
   -1.9298    0.2574    3.9747 C   0  0  0  0  0  0  0  0  0  0  0  0
   -0.9825   -0.3573    3.4990 O   0  0  0  0  0  0  0  0  0  0  0  0
   -2.3617   -0.0250    5.3754 C   0  0  0  0  0  0  0  0  0  0  0  0
   -3.1214   -0.8213    5.4288 H   0  0  0  0  0  0  0  0  0  0  0  0
   -1.5305   -0.3726    6.0097 H   0  0  0  0  0  0  0  0  0  0  0  0
   -2.7997    0.8299    5.9150 H   0  0  0  0  0  0  0  0  0  0  0  0
   -2.6795    1.2298    3.3336 N   0  0  0  0  0  0  0  0  0  0  0  0
   -2.4327    1.6559    1.9812 C   0  0  2  0  0  0  0  0  0  0  0  0
   -1.0977    1.0705    1.5400 C   0  0  0  0  0  0  0  0  0  0  0  0
   -0.2256    0.7177    2.3313 O   0  0  0  0  0  0  0  0  0  0  0  0
   -2.4239    3.1726    1.8718 C   0  0  0  0  0  0  0  0  0  0  0  0
   -3.4446    1.6657    3.8454 H   0  0  0  0  0  0  0  0  0  0  0  0
   -3.2368    1.2374    1.3661 H   0  0  0  0  0  0  0  0  0  0  0  0
   -1.6248    3.6099    2.4815 H   0  0  0  0  0  0  0  0  0  0  0  0
   -2.2644    3.4949    0.8375 H   0  0  0  0  0  0  0  0  0  0  0  0
   -3.3741    3.5939    2.2175 H   0  0  0  0  0  0  0  0  0  0  0  0
   -0.9750    1.0274    0.1566 N   0  0  0  0  0  0  0  0  0  0  0  0
    0.2023    0.5266   -0.5070 C   0  0  2  0  0  0  0  0  0  0  0  0
    0.3797   -0.9250   -0.0763 C   0  0  0  0  0  0  0  0  0  0  0  0
    1.4562   -1.3850    0.2985 O   0  0  0  0  0  0  0  0  0  0  0  0
    1.4533    1.3420   -0.1604 C   0  0  0  0  0  0  0  0  0  0  0  0
    1.4007    2.7499   -0.7014 C   0  0  0  0  0  0  0  0  0  0  0  0
    1.7259    2.9975   -2.0351 C   0  0  0  0  0  0  0  0  0  0  0  0
    1.0274    3.8039    0.1326 C   0  0  0  0  0  0  0  0  0  0  0  0
    1.6777    4.2988   -2.5347 C   0  0  0  0  0  0  0  0  0  0  0  0
    0.9793    5.1053   -0.3670 C   0  0  0  0  0  0  0  0  0  0  0  0
    1.3044    5.3528   -1.7007 C   0  0  0  0  0  0  0  0  0  0  0  0
    1.2588    6.6227   -2.1881 O   0  0  0  0  0  0  0  0  0  0  0  0
   -1.7582    1.3241   -0.4207 H   0  0  0  0  0  0  0  0  0  0  0  0
   -0.0079    0.5587   -1.5826 H   0  0  0  0  0  0  0  0  0  0  0  0
    2.3532    0.8357   -0.5351 H   0  0  0  0  0  0  0  0  0  0  0  0
    1.5860    1.3967    0.9282 H   0  0  0  0  0  0  0  0  0  0  0  0
    2.0176    2.1825   -2.6920 H   0  0  0  0  0  0  0  0  0  0  0  0
    0.7723    3.6203    1.1732 H   0  0  0  0  0  0  0  0  0  0  0  0
    1.9324    4.4854   -3.5746 H   0  0  0  0  0  0  0  0  0  0  0  0
    0.6882    5.9218    0.2877 H   0  0  0  0  0  0  0  0  0  0  0  0
    0.9839    7.2405   -1.4920 H   0  0  0  0  0  0  0  0  0  0  0  0
   -0.8165   -1.6280   -0.1137 N   0  0  0  0  0  0  0  0  0  0  0  0
   -0.9328   -3.0173    0.2673 C   0  0  2  0  0  0  0  0  0  0  0  0
    0.1513   -3.7978   -0.4641 C   0  0  0  0  0  0  0  0  0  0  0  0
    0.6825   -3.3995   -1.4986 O   0  0  0  0  0  0  0  0  0  0  0  0
   -2.3126   -3.5670   -0.0594 C   0  0  0  0  0  0  0  0  0  0  0  0
   -1.6523   -1.1415   -0.4245 H   0  0  0  0  0  0  0  0  0  0  0  0
   -0.7529   -3.0653    1.3468 H   0  0  0  0  0  0  0  0  0  0  0  0
   -2.5108   -3.5271   -1.1367 H   0  0  0  0  0  0  0  0  0  0  0  0
   -2.4085   -4.6113    0.2558 H   0  0  0  0  0  0  0  0  0  0  0  0
   -3.0928   -2.9858    0.4439 H   0  0  0  0  0  0  0  0  0  0  0  0
    0.4252   -5.0116    0.1506 N   0  0  0  0  0  0  0  0  0  0  0  0
    1.4072   -5.9398   -0.3596 C   0  0  0  0  0  0  0  0  0  0  0  0
   -0.0497   -5.2521    1.0156 H   0  0  0  0  0  0  0  0  0  0  0  0
    0.9172   -6.6610   -1.0302 H   0  0  0  0  0  0  0  0  0  0  0  0
    2.1790   -5.3878   -0.9159 H   0  0  0  0  0  0  0  0  0  0  0  0
    1.8737   -6.4775    0.4790 H   0  0  0  0  0  0  0  0  0  0  0  0
 23 25  2  0  0  0  0
 22 23  1  0  0  0  0
 24 26  1  0  0  0  0
 22 24  2  0  0  0  0
 25 27  1  0  0  0  0
 26 27  2  0  0  0  0
 21 22  1  0  0  0  0
 27 28  1  0  0  0  0
  1  3  1  0  0  0  0
  1  7  1  0  0  0  0
  1  2  2  0  0  0  0
 39 40  1  0  0  0  0
 40 48  1  0  0  0  0
 40 41  2  0  0  0  0
  8  9  1  0  0  0  0
  9 17  1  0  0  0  0
  9 10  2  0  0  0  0
 18 19  1  0  0  0  0
 19 38  1  0  0  0  0
 19 20  2  0  0  0  0
 39 42  1  0  0  0  0
  8 11  1  0  0  0  0
 48 49  1  0  0  0  0
 18 21  1  0  0  0  0
 38 39  1  0  0  0  0
  7  8  1  0  0  0  0
 17 18  1  0  0  0  0
 23 33  1  0  0  0  0
 24 34  1  0  0  0  0
 25 35  1  0  0  0  0
 26 36  1  0  0  0  0
  3  4  1  0  0  0  0
  3  5  1  0  0  0  0
  3  6  1  0  0  0  0
 42 45  1  0  0  0  0
 42 46  1  0  0  0  0
 42 47  1  0  0  0  0
 11 14  1  0  0  0  0
 11 15  1  0  0  0  0
 11 16  1  0  0  0  0
 49 51  1  0  0  0  0
 49 52  1  0  0  0  0
 49 53  1  0  0  0  0
 21 31  1  0  0  0  0
 21 32  1  0  0  0  0
 39 44  1  0  0  0  0
  8 13  1  0  0  0  0
 18 30  1  0  0  0  0
 48 50  1  0  0  0  0
  7 12  1  0  0  0  0
 38 43  1  0  0  0  0
 17 29  1  0  0  0  0
 28 37  1  0  0  0  0
M  END
$$$$

  -OEChem-05262214473D

 53 53  0     1  0  0  0  0  0999 V2000
   -1.9298    0.2574    3.9747 C   0  0  0  0  0  0  0  0  0  0  0  0
   -0.9825   -0.3573    3.4990 O   0  0  0  0  0  0  0  0  0  0  0  0
   -2.3617   -0.0250    5.3754 C   0  0  0  0  0  0  0  0  0  0  0  0
   -3.1214   -0.8213    5.4288 H   0  0  0  0  0  0  0  0  0  0  0  0
   -1.5305   -0.3726    6.0097 H   0  0  0  0  0  0  0  0  0  0  0  0
   -2.7997    0.8299    5.9150 H   0  0  0  0  0  0  0  0  0  0  0  0
   -2.6795    1.2298    3.3336 N   0  0  0  0  0  0  0  0  0  0  0  0
   -2.4327    1.6559    1.9812 C   0  0  2  0  0  0  0  0  0  0  0  0
   -1.0977    1.0705    1.5400 C   0  0  0  0  0  0  0  0  0  0  0  0
   -0.2256    0.7177    2.3313 O   0  0  0  0  0  0  0  0  0  0  0  0
   -2.4239    3.1726    1.8718 C   0  0  0  0  0  0  0  0  0  0  0  0
   -3.4446    1.6657    3.8454 H   0  0  0  0  0  0  0  0  0  0  0  0
   -3.2368    1.2374    1.3661 H   0  0  0  0  0  0  0  0  0  0  0  0
   -1.6248    3.6099    2.4815 H   0  0  0  0  0  0  0  0  0  0  0  0
   -2.2644    3.4949    0.8375 H   0  0  0  0  0  0  0  0  0  0  0  0
   -3.3741    3.5939    2.2175 H   0  0  0  0  0  0  0  0  0  0  0  0
   -0.9750    1.0274    0.1566 N   0  0  0  0  0  0  0  0  0  0  0  0
    0.2023    0.5266   -0.5070 C   0  0  2  0  0  0  0  0  0  0  0  0
    0.3797   -0.9250   -0.0763 C   0  0  0  0  0  0  0  0  0  0  0  0
    1.3634   -1.3236    0.5436 O   0  0  0  0  0  0  0  0  0  0  0  0
    1.4533    1.3420   -0.1604 C   0  0  0  0  0  0  0  0  0  0  0  0
    1.4007    2.7499   -0.7014 C   0  0  0  0  0  0  0  0  0  0  0  0
    1.7259    2.9975   -2.0351 C   0  0  0  0  0  0  0  0  0  0  0  0
    1.0274    3.8039    0.1326 C   0  0  0  0  0  0  0  0  0  0  0  0
    1.6777    4.2988   -2.5347 C   0  0  0  0  0  0  0  0  0  0  0  0
    0.9793    5.1053   -0.3670 C   0  0  0  0  0  0  0  0  0  0  0  0
    1.3044    5.3528   -1.7007 C   0  0  0  0  0  0  0  0  0  0  0  0
    1.2588    6.6227   -2.1881 O   0  0  0  0  0  0  0  0  0  0  0  0
   -1.7582    1.3241   -0.4207 H   0  0  0  0  0  0  0  0  0  0  0  0
   -0.0079    0.5587   -1.5826 H   0  0  0  0  0  0  0  0  0  0  0  0
    2.3532    0.8357   -0.5351 H   0  0  0  0  0  0  0  0  0  0  0  0
    1.5860    1.3967    0.9282 H   0  0  0  0  0  0  0  0  0  0  0  0
    2.0176    2.1825   -2.6920 H   0  0  0  0  0  0  0  0  0  0  0  0
    0.7723    3.6203    1.1732 H   0  0  0  0  0  0  0  0  0  0  0  0
    1.9324    4.4854   -3.5746 H   0  0  0  0  0  0  0  0  0  0  0  0
    0.6882    5.9218    0.2877 H   0  0  0  0  0  0  0  0  0  0  0  0
    0.9839    7.2405   -1.4920 H   0  0  0  0  0  0  0  0  0  0  0  0
   -0.7131   -1.7072   -0.4234 N   0  0  0  0  0  0  0  0  0  0  0  0
   -0.8121   -3.1151   -0.1122 C   0  0  2  0  0  0  0  0  0  0  0  0
    0.4750   -3.7893   -0.5687 C   0  0  0  0  0  0  0  0  0  0  0  0
    1.2115   -3.3147   -1.4309 O   0  0  0  0  0  0  0  0  0  0  0  0
   -2.0231   -3.7459   -0.7818 C   0  0  0  0  0  0  0  0  0  0  0  0
   -1.4820   -1.2681   -0.9212 H   0  0  0  0  0  0  0  0  0  0  0  0
   -0.8994   -3.1929    0.9769 H   0  0  0  0  0  0  0  0  0  0  0  0
   -1.9535   -3.6776   -1.8735 H   0  0  0  0  0  0  0  0  0  0  0  0
   -2.1128   -4.8059   -0.5220 H   0  0  0  0  0  0  0  0  0  0  0  0
   -2.9453   -3.2405   -0.4752 H   0  0  0  0  0  0  0  0  0  0  0  0
    0.6823   -5.0044    0.0691 N   0  0  0  0  0  0  0  0  0  0  0  0
    1.8277   -5.8415   -0.2014 C   0  0  0  0  0  0  0  0  0  0  0  0
    0.0295   -5.3110    0.7844 H   0  0  0  0  0  0  0  0  0  0  0  0
    1.5742   -6.5680   -0.9874 H   0  0  0  0  0  0  0  0  0  0  0  0
    2.6677   -5.2158   -0.5377 H   0  0  0  0  0  0  0  0  0  0  0  0
    2.1142   -6.3781    0.7151 H   0  0  0  0  0  0  0  0  0  0  0  0
 23 25  2  0  0  0  0
 22 23  1  0  0  0  0
 24 26  1  0  0  0  0
 22 24  2  0  0  0  0
 25 27  1  0  0  0  0
 26 27  2  0  0  0  0
 21 22  1  0  0  0  0
 27 28  1  0  0  0  0
  1  3  1  0  0  0  0
  1  7  1  0  0  0  0
  1  2  2  0  0  0  0
 39 40  1  0  0  0  0
 40 48  1  0  0  0  0
 40 41  2  0  0  0  0
  8  9  1  0  0  0  0
  9 17  1  0  0  0  0
  9 10  2  0  0  0  0
 18 19  1  0  0  0  0
 19 38  1  0  0  0  0
 19 20  2  0  0  0  0
 39 42  1  0  0  0  0
  8 11  1  0  0  0  0
 48 49  1  0  0  0  0
 18 21  1  0  0  0  0
 38 39  1  0  0  0  0
  7  8  1  0  0  0  0
 17 18  1  0  0  0  0
 23 33  1  0  0  0  0
 24 34  1  0  0  0  0
 25 35  1  0  0  0  0
 26 36  1  0  0  0  0
  3  4  1  0  0  0  0
  3  5  1  0  0  0  0
  3  6  1  0  0  0  0
 42 45  1  0  0  0  0
 42 46  1  0  0  0  0
 42 47  1  0  0  0  0
 11 14  1  0  0  0  0
 11 15  1  0  0  0  0
 11 16  1  0  0  0  0
 49 51  1  0  0  0  0
 49 52  1  0  0  0  0
 49 53  1  0  0  0  0
 21 31  1  0  0  0  0
 21 32  1  0  0  0  0
 39 44  1  0  0  0  0
  8 13  1  0  0  0  0
 18 30  1  0  0  0  0
 48 50  1  0  0  0  0
  7 12  1  0  0  0  0
 38 43  1  0  0  0  0
 17 29  1  0  0  0  0
 28 37  1  0  0  0  0
M  END
$$$$

  -OEChem-05262214473D

 53 53  0     1  0  0  0  0  0999 V2000
   -1.9298    0.2574    3.9747 C   0  0  0  0  0  0  0  0  0  0  0  0
   -0.9825   -0.3573    3.4990 O   0  0  0  0  0  0  0  0  0  0  0  0
   -2.3617   -0.0250    5.3754 C   0  0  0  0  0  0  0  0  0  0  0  0
   -3.1214   -0.8213    5.4288 H   0  0  0  0  0  0  0  0  0  0  0  0
   -1.5305   -0.3726    6.0097 H   0  0  0  0  0  0  0  0  0  0  0  0
   -2.7997    0.8299    5.9150 H   0  0  0  0  0  0  0  0  0  0  0  0
   -2.6795    1.2298    3.3336 N   0  0  0  0  0  0  0  0  0  0  0  0
   -2.4327    1.6559    1.9812 C   0  0  2  0  0  0  0  0  0  0  0  0
   -1.0977    1.0705    1.5400 C   0  0  0  0  0  0  0  0  0  0  0  0
   -0.2256    0.7177    2.3313 O   0  0  0  0  0  0  0  0  0  0  0  0
   -2.4239    3.1726    1.8718 C   0  0  0  0  0  0  0  0  0  0  0  0
   -3.4446    1.6657    3.8454 H   0  0  0  0  0  0  0  0  0  0  0  0
   -3.2368    1.2374    1.3661 H   0  0  0  0  0  0  0  0  0  0  0  0
   -1.6248    3.6099    2.4815 H   0  0  0  0  0  0  0  0  0  0  0  0
   -2.2644    3.4949    0.8375 H   0  0  0  0  0  0  0  0  0  0  0  0
   -3.3741    3.5939    2.2175 H   0  0  0  0  0  0  0  0  0  0  0  0
   -0.9750    1.0274    0.1566 N   0  0  0  0  0  0  0  0  0  0  0  0
    0.2023    0.5266   -0.5070 C   0  0  2  0  0  0  0  0  0  0  0  0
    0.3797   -0.9250   -0.0763 C   0  0  0  0  0  0  0  0  0  0  0  0
    1.2089   -1.2785    0.7593 O   0  0  0  0  0  0  0  0  0  0  0  0
    1.4533    1.3420   -0.1604 C   0  0  0  0  0  0  0  0  0  0  0  0
    1.4007    2.7499   -0.7014 C   0  0  0  0  0  0  0  0  0  0  0  0
    1.7259    2.9975   -2.0351 C   0  0  0  0  0  0  0  0  0  0  0  0
    1.0274    3.8039    0.1326 C   0  0  0  0  0  0  0  0  0  0  0  0
    1.6777    4.2988   -2.5347 C   0  0  0  0  0  0  0  0  0  0  0  0
    0.9793    5.1053   -0.3670 C   0  0  0  0  0  0  0  0  0  0  0  0
    1.3044    5.3528   -1.7007 C   0  0  0  0  0  0  0  0  0  0  0  0
    1.2588    6.6227   -2.1881 O   0  0  0  0  0  0  0  0  0  0  0  0
   -1.7582    1.3241   -0.4207 H   0  0  0  0  0  0  0  0  0  0  0  0
   -0.0079    0.5587   -1.5826 H   0  0  0  0  0  0  0  0  0  0  0  0
    2.3532    0.8357   -0.5351 H   0  0  0  0  0  0  0  0  0  0  0  0
    1.5860    1.3967    0.9282 H   0  0  0  0  0  0  0  0  0  0  0  0
    2.0176    2.1825   -2.6920 H   0  0  0  0  0  0  0  0  0  0  0  0
    0.7723    3.6203    1.1732 H   0  0  0  0  0  0  0  0  0  0  0  0
    1.9324    4.4854   -3.5746 H   0  0  0  0  0  0  0  0  0  0  0  0
    0.6882    5.9218    0.2877 H   0  0  0  0  0  0  0  0  0  0  0  0
    0.9839    7.2405   -1.4920 H   0  0  0  0  0  0  0  0  0  0  0  0
   -0.5311   -1.7669   -0.6995 N   0  0  0  0  0  0  0  0  0  0  0  0
   -0.5948   -3.1894   -0.4521 C   0  0  2  0  0  0  0  0  0  0  0  0
    0.8128   -3.7542   -0.5897 C   0  0  0  0  0  0  0  0  0  0  0  0
    1.6996   -3.1962   -1.2326 O   0  0  0  0  0  0  0  0  0  0  0  0
   -1.5524   -3.8759   -1.4136 C   0  0  0  0  0  0  0  0  0  0  0  0
   -1.1858   -1.3629   -1.3627 H   0  0  0  0  0  0  0  0  0  0  0  0
   -0.9404   -3.3158    0.5797 H   0  0  0  0  0  0  0  0  0  0  0  0
   -1.2225   -3.7600   -2.4525 H   0  0  0  0  0  0  0  0  0  0  0  0
   -1.6213   -4.9489   -1.2064 H   0  0  0  0  0  0  0  0  0  0  0  0
   -2.5576   -3.4480   -1.3344 H   0  0  0  0  0  0  0  0  0  0  0  0
    0.9501   -4.9761    0.0540 N   0  0  0  0  0  0  0  0  0  0  0  0
    2.1878   -5.7205    0.0580 C   0  0  0  0  0  0  0  0  0  0  0  0
    0.1674   -5.3551    0.5789 H   0  0  0  0  0  0  0  0  0  0  0  0
    2.1914   -6.4314   -0.7814 H   0  0  0  0  0  0  0  0  0  0  0  0
    3.0339   -5.0254   -0.0467 H   0  0  0  0  0  0  0  0  0  0  0  0
    2.2810   -6.2715    1.0055 H   0  0  0  0  0  0  0  0  0  0  0  0
 23 25  2  0  0  0  0
 22 23  1  0  0  0  0
 24 26  1  0  0  0  0
 22 24  2  0  0  0  0
 25 27  1  0  0  0  0
 26 27  2  0  0  0  0
 21 22  1  0  0  0  0
 27 28  1  0  0  0  0
  1  3  1  0  0  0  0
  1  7  1  0  0  0  0
  1  2  2  0  0  0  0
 39 40  1  0  0  0  0
 40 48  1  0  0  0  0
 40 41  2  0  0  0  0
  8  9  1  0  0  0  0
  9 17  1  0  0  0  0
  9 10  2  0  0  0  0
 18 19  1  0  0  0  0
 19 38  1  0  0  0  0
 19 20  2  0  0  0  0
 39 42  1  0  0  0  0
  8 11  1  0  0  0  0
 48 49  1  0  0  0  0
 18 21  1  0  0  0  0
 38 39  1  0  0  0  0
  7  8  1  0  0  0  0
 17 18  1  0  0  0  0
 23 33  1  0  0  0  0
 24 34  1  0  0  0  0
 25 35  1  0  0  0  0
 26 36  1  0  0  0  0
  3  4  1  0  0  0  0
  3  5  1  0  0  0  0
  3  6  1  0  0  0  0
 42 45  1  0  0  0  0
 42 46  1  0  0  0  0
 42 47  1  0  0  0  0
 11 14  1  0  0  0  0
 11 15  1  0  0  0  0
 11 16  1  0  0  0  0
 49 51  1  0  0  0  0
 49 52  1  0  0  0  0
 49 53  1  0  0  0  0
 21 31  1  0  0  0  0
 21 32  1  0  0  0  0
 39 44  1  0  0  0  0
  8 13  1  0  0  0  0
 18 30  1  0  0  0  0
 48 50  1  0  0  0  0
  7 12  1  0  0  0  0
 38 43  1  0  0  0  0
 17 29  1  0  0  0  0
 28 37  1  0  0  0  0
M  END
$$$$

  -OEChem-05262214473D

 53 53  0     1  0  0  0  0  0999 V2000
   -1.9298    0.2574    3.9747 C   0  0  0  0  0  0  0  0  0  0  0  0
   -0.9825   -0.3573    3.4990 O   0  0  0  0  0  0  0  0  0  0  0  0
   -2.3617   -0.0250    5.3754 C   0  0  0  0  0  0  0  0  0  0  0  0
   -3.1214   -0.8213    5.4288 H   0  0  0  0  0  0  0  0  0  0  0  0
   -1.5305   -0.3726    6.0097 H   0  0  0  0  0  0  0  0  0  0  0  0
   -2.7997    0.8299    5.9150 H   0  0  0  0  0  0  0  0  0  0  0  0
   -2.6795    1.2298    3.3336 N   0  0  0  0  0  0  0  0  0  0  0  0
   -2.4327    1.6559    1.9812 C   0  0  2  0  0  0  0  0  0  0  0  0
   -1.0977    1.0705    1.5400 C   0  0  0  0  0  0  0  0  0  0  0  0
   -0.2256    0.7177    2.3313 O   0  0  0  0  0  0  0  0  0  0  0  0
   -2.4239    3.1726    1.8718 C   0  0  0  0  0  0  0  0  0  0  0  0
   -3.4446    1.6657    3.8454 H   0  0  0  0  0  0  0  0  0  0  0  0
   -3.2368    1.2374    1.3661 H   0  0  0  0  0  0  0  0  0  0  0  0
   -1.6248    3.6099    2.4815 H   0  0  0  0  0  0  0  0  0  0  0  0
   -2.2644    3.4949    0.8375 H   0  0  0  0  0  0  0  0  0  0  0  0
   -3.3741    3.5939    2.2175 H   0  0  0  0  0  0  0  0  0  0  0  0
   -0.9750    1.0274    0.1566 N   0  0  0  0  0  0  0  0  0  0  0  0
    0.2023    0.5266   -0.5070 C   0  0  2  0  0  0  0  0  0  0  0  0
    0.3797   -0.9250   -0.0763 C   0  0  0  0  0  0  0  0  0  0  0  0
    1.0032   -1.2527    0.9310 O   0  0  0  0  0  0  0  0  0  0  0  0
    1.4533    1.3420   -0.1604 C   0  0  0  0  0  0  0  0  0  0  0  0
    1.4007    2.7499   -0.7014 C   0  0  0  0  0  0  0  0  0  0  0  0
    1.7259    2.9975   -2.0351 C   0  0  0  0  0  0  0  0  0  0  0  0
    1.0274    3.8039    0.1326 C   0  0  0  0  0  0  0  0  0  0  0  0
    1.6777    4.2988   -2.5347 C   0  0  0  0  0  0  0  0  0  0  0  0
    0.9793    5.1053   -0.3670 C   0  0  0  0  0  0  0  0  0  0  0  0
    1.3044    5.3528   -1.7007 C   0  0  0  0  0  0  0  0  0  0  0  0
    1.2588    6.6227   -2.1881 O   0  0  0  0  0  0  0  0  0  0  0  0
   -1.7582    1.3241   -0.4207 H   0  0  0  0  0  0  0  0  0  0  0  0
   -0.0079    0.5587   -1.5826 H   0  0  0  0  0  0  0  0  0  0  0  0
    2.3532    0.8357   -0.5351 H   0  0  0  0  0  0  0  0  0  0  0  0
    1.5860    1.3967    0.9282 H   0  0  0  0  0  0  0  0  0  0  0  0
    2.0176    2.1825   -2.6920 H   0  0  0  0  0  0  0  0  0  0  0  0
    0.7723    3.6203    1.1732 H   0  0  0  0  0  0  0  0  0  0  0  0
    1.9324    4.4854   -3.5746 H   0  0  0  0  0  0  0  0  0  0  0  0
    0.6882    5.9218    0.2877 H   0  0  0  0  0  0  0  0  0  0  0  0
    0.9839    7.2405   -1.4920 H   0  0  0  0  0  0  0  0  0  0  0  0
   -0.2829   -1.8029   -0.9230 N   0  0  0  0  0  0  0  0  0  0  0  0
   -0.2958   -3.2350   -0.7290 C   0  0  2  0  0  0  0  0  0  0  0  0
    1.1417   -3.6950   -0.5256 C   0  0  0  0  0  0  0  0  0  0  0  0
    2.1135   -3.0521   -0.9171 O   0  0  0  0  0  0  0  0  0  0  0  0
   -0.9325   -3.9479   -1.9118 C   0  0  0  0  0  0  0  0  0  0  0  0
   -0.7839   -1.4195   -1.7191 H   0  0  0  0  0  0  0  0  0  0  0  0
   -0.8732   -3.4255    0.1823 H   0  0  0  0  0  0  0  0  0  0  0  0
   -0.3678   -3.7688   -2.8340 H   0  0  0  0  0  0  0  0  0  0  0  0
   -0.9674   -5.0305   -1.7507 H   0  0  0  0  0  0  0  0  0  0  0  0
   -1.9562   -3.5943   -2.0750 H   0  0  0  0  0  0  0  0  0  0  0  0
    1.2104   -4.9288    0.1062 N   0  0  0  0  0  0  0  0  0  0  0  0
    2.4628   -5.5851    0.4009 C   0  0  0  0  0  0  0  0  0  0  0  0
    0.3544   -5.3815    0.4129 H   0  0  0  0  0  0  0  0  0  0  0  0
    2.7269   -6.2606   -0.4261 H   0  0  0  0  0  0  0  0  0  0  0  0
    3.2527   -4.8295    0.5236 H   0  0  0  0  0  0  0  0  0  0  0  0
    2.3628   -6.1652    1.3302 H   0  0  0  0  0  0  0  0  0  0  0  0
 23 25  2  0  0  0  0
 22 23  1  0  0  0  0
 24 26  1  0  0  0  0
 22 24  2  0  0  0  0
 25 27  1  0  0  0  0
 26 27  2  0  0  0  0
 21 22  1  0  0  0  0
 27 28  1  0  0  0  0
  1  3  1  0  0  0  0
  1  7  1  0  0  0  0
  1  2  2  0  0  0  0
 39 40  1  0  0  0  0
 40 48  1  0  0  0  0
 40 41  2  0  0  0  0
  8  9  1  0  0  0  0
  9 17  1  0  0  0  0
  9 10  2  0  0  0  0
 18 19  1  0  0  0  0
 19 38  1  0  0  0  0
 19 20  2  0  0  0  0
 39 42  1  0  0  0  0
  8 11  1  0  0  0  0
 48 49  1  0  0  0  0
 18 21  1  0  0  0  0
 38 39  1  0  0  0  0
  7  8  1  0  0  0  0
 17 18  1  0  0  0  0
 23 33  1  0  0  0  0
 24 34  1  0  0  0  0
 25 35  1  0  0  0  0
 26 36  1  0  0  0  0
  3  4  1  0  0  0  0
  3  5  1  0  0  0  0
  3  6  1  0  0  0  0
 42 45  1  0  0  0  0
 42 46  1  0  0  0  0
 42 47  1  0  0  0  0
 11 14  1  0  0  0  0
 11 15  1  0  0  0  0
 11 16  1  0  0  0  0
 49 51  1  0  0  0  0
 49 52  1  0  0  0  0
 49 53  1  0  0  0  0
 21 31  1  0  0  0  0
 21 32  1  0  0  0  0
 39 44  1  0  0  0  0
  8 13  1  0  0  0  0
 18 30  1  0  0  0  0
 48 50  1  0  0  0  0
  7 12  1  0  0  0  0
 38 43  1  0  0  0  0
 17 29  1  0  0  0  0
 28 37  1  0  0  0  0
M  END
$$$$

  -OEChem-05262214473D

 53 53  0     1  0  0  0  0  0999 V2000
   -1.9298    0.2574    3.9747 C   0  0  0  0  0  0  0  0  0  0  0  0
   -0.9825   -0.3573    3.4990 O   0  0  0  0  0  0  0  0  0  0  0  0
   -2.3617   -0.0250    5.3754 C   0  0  0  0  0  0  0  0  0  0  0  0
   -3.1214   -0.8213    5.4288 H   0  0  0  0  0  0  0  0  0  0  0  0
   -1.5305   -0.3726    6.0097 H   0  0  0  0  0  0  0  0  0  0  0  0
   -2.7997    0.8299    5.9150 H   0  0  0  0  0  0  0  0  0  0  0  0
   -2.6795    1.2298    3.3336 N   0  0  0  0  0  0  0  0  0  0  0  0
   -2.4327    1.6559    1.9812 C   0  0  2  0  0  0  0  0  0  0  0  0
   -1.0977    1.0705    1.5400 C   0  0  0  0  0  0  0  0  0  0  0  0
   -0.2256    0.7177    2.3313 O   0  0  0  0  0  0  0  0  0  0  0  0
   -2.4239    3.1726    1.8718 C   0  0  0  0  0  0  0  0  0  0  0  0
   -3.4446    1.6657    3.8454 H   0  0  0  0  0  0  0  0  0  0  0  0
   -3.2368    1.2374    1.3661 H   0  0  0  0  0  0  0  0  0  0  0  0
   -1.6248    3.6099    2.4815 H   0  0  0  0  0  0  0  0  0  0  0  0
   -2.2644    3.4949    0.8375 H   0  0  0  0  0  0  0  0  0  0  0  0
   -3.3741    3.5939    2.2175 H   0  0  0  0  0  0  0  0  0  0  0  0
   -0.9750    1.0274    0.1566 N   0  0  0  0  0  0  0  0  0  0  0  0
    0.2023    0.5266   -0.5070 C   0  0  2  0  0  0  0  0  0  0  0  0
    0.3797   -0.9250   -0.0763 C   0  0  0  0  0  0  0  0  0  0  0  0
    0.7603   -1.2480    1.0469 O   0  0  0  0  0  0  0  0  0  0  0  0
    1.4533    1.3420   -0.1604 C   0  0  0  0  0  0  0  0  0  0  0  0
    1.4007    2.7499   -0.7014 C   0  0  0  0  0  0  0  0  0  0  0  0
    1.7259    2.9975   -2.0351 C   0  0  0  0  0  0  0  0  0  0  0  0
    1.0274    3.8039    0.1326 C   0  0  0  0  0  0  0  0  0  0  0  0
    1.6777    4.2988   -2.5347 C   0  0  0  0  0  0  0  0  0  0  0  0
    0.9793    5.1053   -0.3670 C   0  0  0  0  0  0  0  0  0  0  0  0
    1.3044    5.3528   -1.7007 C   0  0  0  0  0  0  0  0  0  0  0  0
    1.2588    6.6227   -2.1881 O   0  0  0  0  0  0  0  0  0  0  0  0
   -1.7582    1.3241   -0.4207 H   0  0  0  0  0  0  0  0  0  0  0  0
   -0.0079    0.5587   -1.5826 H   0  0  0  0  0  0  0  0  0  0  0  0
    2.3532    0.8357   -0.5351 H   0  0  0  0  0  0  0  0  0  0  0  0
    1.5860    1.3967    0.9282 H   0  0  0  0  0  0  0  0  0  0  0  0
    2.0176    2.1825   -2.6920 H   0  0  0  0  0  0  0  0  0  0  0  0
    0.7723    3.6203    1.1732 H   0  0  0  0  0  0  0  0  0  0  0  0
    1.9324    4.4854   -3.5746 H   0  0  0  0  0  0  0  0  0  0  0  0
    0.6882    5.9218    0.2877 H   0  0  0  0  0  0  0  0  0  0  0  0
    0.9839    7.2405   -1.4920 H   0  0  0  0  0  0  0  0  0  0  0  0
    0.0146   -1.8128   -1.0789 N   0  0  0  0  0  0  0  0  0  0  0  0
    0.0646   -3.2488   -0.9241 C   0  0  2  0  0  0  0  0  0  0  0  0
    1.4393   -3.6157   -0.3809 C   0  0  0  0  0  0  0  0  0  0  0  0
    2.4251   -2.8920   -0.5061 O   0  0  0  0  0  0  0  0  0  0  0  0
   -0.2057   -3.9572   -2.2424 C   0  0  0  0  0  0  0  0  0  0  0  0
   -0.3037   -1.4341   -1.9660 H   0  0  0  0  0  0  0  0  0  0  0  0
   -0.7023   -3.5146   -0.1884 H   0  0  0  0  0  0  0  0  0  0  0  0
    0.5525   -3.7032   -2.9922 H   0  0  0  0  0  0  0  0  0  0  0  0
   -0.1957   -5.0450   -2.1177 H   0  0  0  0  0  0  0  0  0  0  0  0
   -1.1822   -3.6692   -2.6465 H   0  0  0  0  0  0  0  0  0  0  0  0
    1.4456   -4.8656    0.2223 N   0  0  0  0  0  0  0  0  0  0  0  0
    2.6340   -5.4446    0.8040 C   0  0  0  0  0  0  0  0  0  0  0  0
    0.5779   -5.3883    0.2980 H   0  0  0  0  0  0  0  0  0  0  0  0
    3.1441   -6.0671    0.0541 H   0  0  0  0  0  0  0  0  0  0  0  0
    3.3092   -4.6414    1.1342 H   0  0  0  0  0  0  0  0  0  0  0  0
    2.3540   -6.0663    1.6673 H   0  0  0  0  0  0  0  0  0  0  0  0
 23 25  2  0  0  0  0
 22 23  1  0  0  0  0
 24 26  1  0  0  0  0
 22 24  2  0  0  0  0
 25 27  1  0  0  0  0
 26 27  2  0  0  0  0
 21 22  1  0  0  0  0
 27 28  1  0  0  0  0
  1  3  1  0  0  0  0
  1  7  1  0  0  0  0
  1  2  2  0  0  0  0
 39 40  1  0  0  0  0
 40 48  1  0  0  0  0
 40 41  2  0  0  0  0
  8  9  1  0  0  0  0
  9 17  1  0  0  0  0
  9 10  2  0  0  0  0
 18 19  1  0  0  0  0
 19 38  1  0  0  0  0
 19 20  2  0  0  0  0
 39 42  1  0  0  0  0
  8 11  1  0  0  0  0
 48 49  1  0  0  0  0
 18 21  1  0  0  0  0
 38 39  1  0  0  0  0
  7  8  1  0  0  0  0
 17 18  1  0  0  0  0
 23 33  1  0  0  0  0
 24 34  1  0  0  0  0
 25 35  1  0  0  0  0
 26 36  1  0  0  0  0
  3  4  1  0  0  0  0
  3  5  1  0  0  0  0
  3  6  1  0  0  0  0
 42 45  1  0  0  0  0
 42 46  1  0  0  0  0
 42 47  1  0  0  0  0
 11 14  1  0  0  0  0
 11 15  1  0  0  0  0
 11 16  1  0  0  0  0
 49 51  1  0  0  0  0
 49 52  1  0  0  0  0
 49 53  1  0  0  0  0
 21 31  1  0  0  0  0
 21 32  1  0  0  0  0
 39 44  1  0  0  0  0
  8 13  1  0  0  0  0
 18 30  1  0  0  0  0
 48 50  1  0  0  0  0
  7 12  1  0  0  0  0
 38 43  1  0  0  0  0
 17 29  1  0  0  0  0
 28 37  1  0  0  0  0
M  END
$$$$

  -OEChem-05262214473D

 53 53  0     1  0  0  0  0  0999 V2000
   -1.9298    0.2574    3.9747 C   0  0  0  0  0  0  0  0  0  0  0  0
   -0.9825   -0.3573    3.4990 O   0  0  0  0  0  0  0  0  0  0  0  0
   -2.3617   -0.0250    5.3754 C   0  0  0  0  0  0  0  0  0  0  0  0
   -3.1214   -0.8213    5.4288 H   0  0  0  0  0  0  0  0  0  0  0  0
   -1.5305   -0.3726    6.0097 H   0  0  0  0  0  0  0  0  0  0  0  0
   -2.7997    0.8299    5.9150 H   0  0  0  0  0  0  0  0  0  0  0  0
   -2.6795    1.2298    3.3336 N   0  0  0  0  0  0  0  0  0  0  0  0
   -2.4327    1.6559    1.9812 C   0  0  2  0  0  0  0  0  0  0  0  0
   -1.0977    1.0705    1.5400 C   0  0  0  0  0  0  0  0  0  0  0  0
   -0.2256    0.7177    2.3313 O   0  0  0  0  0  0  0  0  0  0  0  0
   -2.4239    3.1726    1.8718 C   0  0  0  0  0  0  0  0  0  0  0  0
   -3.4446    1.6657    3.8454 H   0  0  0  0  0  0  0  0  0  0  0  0
   -3.2368    1.2374    1.3661 H   0  0  0  0  0  0  0  0  0  0  0  0
   -1.6248    3.6099    2.4815 H   0  0  0  0  0  0  0  0  0  0  0  0
   -2.2644    3.4949    0.8375 H   0  0  0  0  0  0  0  0  0  0  0  0
   -3.3741    3.5939    2.2175 H   0  0  0  0  0  0  0  0  0  0  0  0
   -0.9750    1.0274    0.1566 N   0  0  0  0  0  0  0  0  0  0  0  0
    0.2023    0.5266   -0.5070 C   0  0  2  0  0  0  0  0  0  0  0  0
    0.3797   -0.9250   -0.0763 C   0  0  0  0  0  0  0  0  0  0  0  0
    0.4968   -1.2647    1.0992 O   0  0  0  0  0  0  0  0  0  0  0  0
    1.4533    1.3420   -0.1604 C   0  0  0  0  0  0  0  0  0  0  0  0
    1.4007    2.7499   -0.7014 C   0  0  0  0  0  0  0  0  0  0  0  0
    1.7259    2.9975   -2.0351 C   0  0  0  0  0  0  0  0  0  0  0  0
    1.0274    3.8039    0.1326 C   0  0  0  0  0  0  0  0  0  0  0  0
    1.6777    4.2988   -2.5347 C   0  0  0  0  0  0  0  0  0  0  0  0
    0.9793    5.1053   -0.3670 C   0  0  0  0  0  0  0  0  0  0  0  0
    1.3044    5.3528   -1.7007 C   0  0  0  0  0  0  0  0  0  0  0  0
    1.2588    6.6227   -2.1881 O   0  0  0  0  0  0  0  0  0  0  0  0
   -1.7582    1.3241   -0.4207 H   0  0  0  0  0  0  0  0  0  0  0  0
   -0.0079    0.5587   -1.5826 H   0  0  0  0  0  0  0  0  0  0  0  0
    2.3532    0.8357   -0.5351 H   0  0  0  0  0  0  0  0  0  0  0  0
    1.5860    1.3967    0.9282 H   0  0  0  0  0  0  0  0  0  0  0  0
    2.0176    2.1825   -2.6920 H   0  0  0  0  0  0  0  0  0  0  0  0
    0.7723    3.6203    1.1732 H   0  0  0  0  0  0  0  0  0  0  0  0
    1.9324    4.4854   -3.5746 H   0  0  0  0  0  0  0  0  0  0  0  0
    0.6882    5.9218    0.2877 H   0  0  0  0  0  0  0  0  0  0  0  0
    0.9839    7.2405   -1.4920 H   0  0  0  0  0  0  0  0  0  0  0  0
    0.3411   -1.7959   -1.1564 N   0  0  0  0  0  0  0  0  0  0  0  0
    0.4619   -3.2300   -1.0242 C   0  0  2  0  0  0  0  0  0  0  0  0
    1.6853   -3.5217   -0.1654 C   0  0  0  0  0  0  0  0  0  0  0  0
    2.6130   -2.7271   -0.0275 O   0  0  0  0  0  0  0  0  0  0  0  0
    0.5786   -3.9030   -2.3829 C   0  0  0  0  0  0  0  0  0  0  0  0
    0.2220   -1.4056   -2.0866 H   0  0  0  0  0  0  0  0  0  0  0  0
   -0.4393   -3.5769   -0.5070 H   0  0  0  0  0  0  0  0  0  0  0  0
    1.4757   -3.5678   -2.9161 H   0  0  0  0  0  0  0  0  0  0  0  0
    0.6413   -4.9916   -2.2824 H   0  0  0  0  0  0  0  0  0  0  0  0
   -0.2881   -3.6678   -3.0101 H   0  0  0  0  0  0  0  0  0  0  0  0
    1.6395   -4.7909    0.3942 N   0  0  0  0  0  0  0  0  0  0  0  0
    2.6898   -5.3085    1.2398 C   0  0  0  0  0  0  0  0  0  0  0  0
    0.8226   -5.3750    0.2418 H   0  0  0  0  0  0  0  0  0  0  0  0
    3.4146   -5.8642    0.6267 H   0  0  0  0  0  0  0  0  0  0  0  0
    3.1995   -4.4740    1.7436 H   0  0  0  0  0  0  0  0  0  0  0  0
    2.2553   -5.9815    1.9937 H   0  0  0  0  0  0  0  0  0  0  0  0
 23 25  2  0  0  0  0
 22 23  1  0  0  0  0
 24 26  1  0  0  0  0
 22 24  2  0  0  0  0
 25 27  1  0  0  0  0
 26 27  2  0  0  0  0
 21 22  1  0  0  0  0
 27 28  1  0  0  0  0
  1  3  1  0  0  0  0
  1  7  1  0  0  0  0
  1  2  2  0  0  0  0
 39 40  1  0  0  0  0
 40 48  1  0  0  0  0
 40 41  2  0  0  0  0
  8  9  1  0  0  0  0
  9 17  1  0  0  0  0
  9 10  2  0  0  0  0
 18 19  1  0  0  0  0
 19 38  1  0  0  0  0
 19 20  2  0  0  0  0
 39 42  1  0  0  0  0
  8 11  1  0  0  0  0
 48 49  1  0  0  0  0
 18 21  1  0  0  0  0
 38 39  1  0  0  0  0
  7  8  1  0  0  0  0
 17 18  1  0  0  0  0
 23 33  1  0  0  0  0
 24 34  1  0  0  0  0
 25 35  1  0  0  0  0
 26 36  1  0  0  0  0
  3  4  1  0  0  0  0
  3  5  1  0  0  0  0
  3  6  1  0  0  0  0
 42 45  1  0  0  0  0
 42 46  1  0  0  0  0
 42 47  1  0  0  0  0
 11 14  1  0  0  0  0
 11 15  1  0  0  0  0
 11 16  1  0  0  0  0
 49 51  1  0  0  0  0
 49 52  1  0  0  0  0
 49 53  1  0  0  0  0
 21 31  1  0  0  0  0
 21 32  1  0  0  0  0
 39 44  1  0  0  0  0
  8 13  1  0  0  0  0
 18 30  1  0  0  0  0
 48 50  1  0  0  0  0
  7 12  1  0  0  0  0
 38 43  1  0  0  0  0
 17 29  1  0  0  0  0
 28 37  1  0  0  0  0
M  END
$$$$

  -OEChem-05262214473D

 53 53  0     1  0  0  0  0  0999 V2000
   -1.9298    0.2574    3.9747 C   0  0  0  0  0  0  0  0  0  0  0  0
   -0.9825   -0.3573    3.4990 O   0  0  0  0  0  0  0  0  0  0  0  0
   -2.3617   -0.0250    5.3754 C   0  0  0  0  0  0  0  0  0  0  0  0
   -3.1214   -0.8213    5.4288 H   0  0  0  0  0  0  0  0  0  0  0  0
   -1.5305   -0.3726    6.0097 H   0  0  0  0  0  0  0  0  0  0  0  0
   -2.7997    0.8299    5.9150 H   0  0  0  0  0  0  0  0  0  0  0  0
   -2.6795    1.2298    3.3336 N   0  0  0  0  0  0  0  0  0  0  0  0
   -2.4327    1.6559    1.9812 C   0  0  2  0  0  0  0  0  0  0  0  0
   -1.0977    1.0705    1.5400 C   0  0  0  0  0  0  0  0  0  0  0  0
   -0.2256    0.7177    2.3313 O   0  0  0  0  0  0  0  0  0  0  0  0
   -2.4239    3.1726    1.8718 C   0  0  0  0  0  0  0  0  0  0  0  0
   -3.4446    1.6657    3.8454 H   0  0  0  0  0  0  0  0  0  0  0  0
   -3.2368    1.2374    1.3661 H   0  0  0  0  0  0  0  0  0  0  0  0
   -1.6248    3.6099    2.4815 H   0  0  0  0  0  0  0  0  0  0  0  0
   -2.2644    3.4949    0.8375 H   0  0  0  0  0  0  0  0  0  0  0  0
   -3.3741    3.5939    2.2175 H   0  0  0  0  0  0  0  0  0  0  0  0
   -0.9750    1.0274    0.1566 N   0  0  0  0  0  0  0  0  0  0  0  0
    0.2023    0.5266   -0.5070 C   0  0  2  0  0  0  0  0  0  0  0  0
    0.3797   -0.9250   -0.0763 C   0  0  0  0  0  0  0  0  0  0  0  0
    0.2306   -1.3016    1.0842 O   0  0  0  0  0  0  0  0  0  0  0  0
    1.4533    1.3420   -0.1604 C   0  0  0  0  0  0  0  0  0  0  0  0
    1.4007    2.7499   -0.7014 C   0  0  0  0  0  0  0  0  0  0  0  0
    1.7259    2.9975   -2.0351 C   0  0  0  0  0  0  0  0  0  0  0  0
    1.0274    3.8039    0.1326 C   0  0  0  0  0  0  0  0  0  0  0  0
    1.6777    4.2988   -2.5347 C   0  0  0  0  0  0  0  0  0  0  0  0
    0.9793    5.1053   -0.3670 C   0  0  0  0  0  0  0  0  0  0  0  0
    1.3044    5.3528   -1.7007 C   0  0  0  0  0  0  0  0  0  0  0  0
    1.2588    6.6227   -2.1881 O   0  0  0  0  0  0  0  0  0  0  0  0
   -1.7582    1.3241   -0.4207 H   0  0  0  0  0  0  0  0  0  0  0  0
   -0.0079    0.5587   -1.5826 H   0  0  0  0  0  0  0  0  0  0  0  0
    2.3532    0.8357   -0.5351 H   0  0  0  0  0  0  0  0  0  0  0  0
    1.5860    1.3967    0.9282 H   0  0  0  0  0  0  0  0  0  0  0  0
    2.0176    2.1825   -2.6920 H   0  0  0  0  0  0  0  0  0  0  0  0
    0.7723    3.6203    1.1732 H   0  0  0  0  0  0  0  0  0  0  0  0
    1.9324    4.4854   -3.5746 H   0  0  0  0  0  0  0  0  0  0  0  0
    0.6882    5.9218    0.2877 H   0  0  0  0  0  0  0  0  0  0  0  0
    0.9839    7.2405   -1.4920 H   0  0  0  0  0  0  0  0  0  0  0  0
    0.6743   -1.7533   -1.1504 N   0  0  0  0  0  0  0  0  0  0  0  0
    0.8689   -3.1797   -1.0224 C   0  0  2  0  0  0  0  0  0  0  0  0
    1.8630   -3.4194    0.1062 C   0  0  0  0  0  0  0  0  0  0  0  0
    2.6645   -2.5684    0.4861 O   0  0  0  0  0  0  0  0  0  0  0  0
    1.3667   -3.7892   -2.3238 C   0  0  0  0  0  0  0  0  0  0  0  0
    0.7574   -1.3360   -2.0727 H   0  0  0  0  0  0  0  0  0  0  0  0
   -0.1022   -3.6084   -0.7518 H   0  0  0  0  0  0  0  0  0  0  0  0
    2.3387   -3.3719   -2.6111 H   0  0  0  0  0  0  0  0  0  0  0  0
    1.4864   -4.8739   -2.2337 H   0  0  0  0  0  0  0  0  0  0  0  0
    0.6649   -3.5902   -3.1409 H   0  0  0  0  0  0  0  0  0  0  0  0
    1.7790   -4.7097    0.6104 N   0  0  0  0  0  0  0  0  0  0  0  0
    2.6263   -5.1861    1.6786 C   0  0  0  0  0  0  0  0  0  0  0  0
    1.0719   -5.3427    0.2482 H   0  0  0  0  0  0  0  0  0  0  0  0
    3.5199   -5.6656    1.2525 H   0  0  0  0  0  0  0  0  0  0  0  0
    2.9311   -4.3387    2.3103 H   0  0  0  0  0  0  0  0  0  0  0  0
    2.0732   -5.9167    2.2871 H   0  0  0  0  0  0  0  0  0  0  0  0
 23 25  2  0  0  0  0
 22 23  1  0  0  0  0
 24 26  1  0  0  0  0
 22 24  2  0  0  0  0
 25 27  1  0  0  0  0
 26 27  2  0  0  0  0
 21 22  1  0  0  0  0
 27 28  1  0  0  0  0
  1  3  1  0  0  0  0
  1  7  1  0  0  0  0
  1  2  2  0  0  0  0
 39 40  1  0  0  0  0
 40 48  1  0  0  0  0
 40 41  2  0  0  0  0
  8  9  1  0  0  0  0
  9 17  1  0  0  0  0
  9 10  2  0  0  0  0
 18 19  1  0  0  0  0
 19 38  1  0  0  0  0
 19 20  2  0  0  0  0
 39 42  1  0  0  0  0
  8 11  1  0  0  0  0
 48 49  1  0  0  0  0
 18 21  1  0  0  0  0
 38 39  1  0  0  0  0
  7  8  1  0  0  0  0
 17 18  1  0  0  0  0
 23 33  1  0  0  0  0
 24 34  1  0  0  0  0
 25 35  1  0  0  0  0
 26 36  1  0  0  0  0
  3  4  1  0  0  0  0
  3  5  1  0  0  0  0
  3  6  1  0  0  0  0
 42 45  1  0  0  0  0
 42 46  1  0  0  0  0
 42 47  1  0  0  0  0
 11 14  1  0  0  0  0
 11 15  1  0  0  0  0
 11 16  1  0  0  0  0
 49 51  1  0  0  0  0
 49 52  1  0  0  0  0
 49 53  1  0  0  0  0
 21 31  1  0  0  0  0
 21 32  1  0  0  0  0
 39 44  1  0  0  0  0
  8 13  1  0  0  0  0
 18 30  1  0  0  0  0
 48 50  1  0  0  0  0
  7 12  1  0  0  0  0
 38 43  1  0  0  0  0
 17 29  1  0  0  0  0
 28 37  1  0  0  0  0
M  END
$$$$

  -OEChem-05262214473D

 53 53  0     1  0  0  0  0  0999 V2000
   -1.9298    0.2574    3.9747 C   0  0  0  0  0  0  0  0  0  0  0  0
   -0.9825   -0.3573    3.4990 O   0  0  0  0  0  0  0  0  0  0  0  0
   -2.3617   -0.0250    5.3754 C   0  0  0  0  0  0  0  0  0  0  0  0
   -3.1214   -0.8213    5.4288 H   0  0  0  0  0  0  0  0  0  0  0  0
   -1.5305   -0.3726    6.0097 H   0  0  0  0  0  0  0  0  0  0  0  0
   -2.7997    0.8299    5.9150 H   0  0  0  0  0  0  0  0  0  0  0  0
   -2.6795    1.2298    3.3336 N   0  0  0  0  0  0  0  0  0  0  0  0
   -2.4327    1.6559    1.9812 C   0  0  2  0  0  0  0  0  0  0  0  0
   -1.0977    1.0705    1.5400 C   0  0  0  0  0  0  0  0  0  0  0  0
   -0.2256    0.7177    2.3313 O   0  0  0  0  0  0  0  0  0  0  0  0
   -2.4239    3.1726    1.8718 C   0  0  0  0  0  0  0  0  0  0  0  0
   -3.4446    1.6657    3.8454 H   0  0  0  0  0  0  0  0  0  0  0  0
   -3.2368    1.2374    1.3661 H   0  0  0  0  0  0  0  0  0  0  0  0
   -1.6248    3.6099    2.4815 H   0  0  0  0  0  0  0  0  0  0  0  0
   -2.2644    3.4949    0.8375 H   0  0  0  0  0  0  0  0  0  0  0  0
   -3.3741    3.5939    2.2175 H   0  0  0  0  0  0  0  0  0  0  0  0
   -0.9750    1.0274    0.1566 N   0  0  0  0  0  0  0  0  0  0  0  0
    0.2023    0.5266   -0.5070 C   0  0  2  0  0  0  0  0  0  0  0  0
    0.3797   -0.9250   -0.0763 C   0  0  0  0  0  0  0  0  0  0  0  0
   -0.0201   -1.3564    1.0030 O   0  0  0  0  0  0  0  0  0  0  0  0
    1.4533    1.3420   -0.1604 C   0  0  0  0  0  0  0  0  0  0  0  0
    1.4007    2.7499   -0.7014 C   0  0  0  0  0  0  0  0  0  0  0  0
    1.7259    2.9975   -2.0351 C   0  0  0  0  0  0  0  0  0  0  0  0
    1.0274    3.8039    0.1326 C   0  0  0  0  0  0  0  0  0  0  0  0
    1.6777    4.2988   -2.5347 C   0  0  0  0  0  0  0  0  0  0  0  0
    0.9793    5.1053   -0.3670 C   0  0  0  0  0  0  0  0  0  0  0  0
    1.3044    5.3528   -1.7007 C   0  0  0  0  0  0  0  0  0  0  0  0
    1.2588    6.6227   -2.1881 O   0  0  0  0  0  0  0  0  0  0  0  0
   -1.7582    1.3241   -0.4207 H   0  0  0  0  0  0  0  0  0  0  0  0
   -0.0079    0.5587   -1.5826 H   0  0  0  0  0  0  0  0  0  0  0  0
    2.3532    0.8357   -0.5351 H   0  0  0  0  0  0  0  0  0  0  0  0
    1.5860    1.3967    0.9282 H   0  0  0  0  0  0  0  0  0  0  0  0
    2.0176    2.1825   -2.6920 H   0  0  0  0  0  0  0  0  0  0  0  0
    0.7723    3.6203    1.1732 H   0  0  0  0  0  0  0  0  0  0  0  0
    1.9324    4.4854   -3.5746 H   0  0  0  0  0  0  0  0  0  0  0  0
    0.6882    5.9218    0.2877 H   0  0  0  0  0  0  0  0  0  0  0  0
    0.9839    7.2405   -1.4920 H   0  0  0  0  0  0  0  0  0  0  0  0
    0.9916   -1.6881   -1.0611 N   0  0  0  0  0  0  0  0  0  0  0  0
    1.2579   -3.1015   -0.9189 C   0  0  2  0  0  0  0  0  0  0  0  0
    1.9601   -3.3158    0.4154 C   0  0  0  0  0  0  0  0  0  0  0  0
    2.5761   -2.4268    0.9997 O   0  0  0  0  0  0  0  0  0  0  0  0
    2.1051   -3.6233   -2.0690 C   0  0  0  0  0  0  0  0  0  0  0  0
    1.2660   -1.2301   -1.9252 H   0  0  0  0  0  0  0  0  0  0  0  0
    0.2860   -3.6067   -0.9061 H   0  0  0  0  0  0  0  0  0  0  0  0
    3.0829   -3.1287   -2.0980 H   0  0  0  0  0  0  0  0  0  0  0  0
    2.2821   -4.6998   -1.9748 H   0  0  0  0  0  0  0  0  0  0  0  0
    1.6121   -3.4415   -3.0300 H   0  0  0  0  0  0  0  0  0  0  0  0
    1.8545   -4.6276    0.8559 N   0  0  0  0  0  0  0  0  0  0  0  0
    2.4479   -5.0857    2.0905 C   0  0  0  0  0  0  0  0  0  0  0  0
    1.3087   -5.2934    0.3169 H   0  0  0  0  0  0  0  0  0  0  0  0
    3.4529   -5.4850    1.8889 H   0  0  0  0  0  0  0  0  0  0  0  0
    2.5224   -4.2446    2.7955 H   0  0  0  0  0  0  0  0  0  0  0  0
    1.8203   -5.8762    2.5277 H   0  0  0  0  0  0  0  0  0  0  0  0
 23 25  2  0  0  0  0
 22 23  1  0  0  0  0
 24 26  1  0  0  0  0
 22 24  2  0  0  0  0
 25 27  1  0  0  0  0
 26 27  2  0  0  0  0
 21 22  1  0  0  0  0
 27 28  1  0  0  0  0
  1  3  1  0  0  0  0
  1  7  1  0  0  0  0
  1  2  2  0  0  0  0
 39 40  1  0  0  0  0
 40 48  1  0  0  0  0
 40 41  2  0  0  0  0
  8  9  1  0  0  0  0
  9 17  1  0  0  0  0
  9 10  2  0  0  0  0
 18 19  1  0  0  0  0
 19 38  1  0  0  0  0
 19 20  2  0  0  0  0
 39 42  1  0  0  0  0
  8 11  1  0  0  0  0
 48 49  1  0  0  0  0
 18 21  1  0  0  0  0
 38 39  1  0  0  0  0
  7  8  1  0  0  0  0
 17 18  1  0  0  0  0
 23 33  1  0  0  0  0
 24 34  1  0  0  0  0
 25 35  1  0  0  0  0
 26 36  1  0  0  0  0
  3  4  1  0  0  0  0
  3  5  1  0  0  0  0
  3  6  1  0  0  0  0
 42 45  1  0  0  0  0
 42 46  1  0  0  0  0
 42 47  1  0  0  0  0
 11 14  1  0  0  0  0
 11 15  1  0  0  0  0
 11 16  1  0  0  0  0
 49 51  1  0  0  0  0
 49 52  1  0  0  0  0
 49 53  1  0  0  0  0
 21 31  1  0  0  0  0
 21 32  1  0  0  0  0
 39 44  1  0  0  0  0
  8 13  1  0  0  0  0
 18 30  1  0  0  0  0
 48 50  1  0  0  0  0
  7 12  1  0  0  0  0
 38 43  1  0  0  0  0
 17 29  1  0  0  0  0
 28 37  1  0  0  0  0
M  END
$$$$

  -OEChem-05262214473D

 53 53  0     1  0  0  0  0  0999 V2000
   -1.9298    0.2574    3.9747 C   0  0  0  0  0  0  0  0  0  0  0  0
   -0.9825   -0.3573    3.4990 O   0  0  0  0  0  0  0  0  0  0  0  0
   -2.3617   -0.0250    5.3754 C   0  0  0  0  0  0  0  0  0  0  0  0
   -3.1214   -0.8213    5.4288 H   0  0  0  0  0  0  0  0  0  0  0  0
   -1.5305   -0.3726    6.0097 H   0  0  0  0  0  0  0  0  0  0  0  0
   -2.7997    0.8299    5.9150 H   0  0  0  0  0  0  0  0  0  0  0  0
   -2.6795    1.2298    3.3336 N   0  0  0  0  0  0  0  0  0  0  0  0
   -2.4327    1.6559    1.9812 C   0  0  2  0  0  0  0  0  0  0  0  0
   -1.0977    1.0705    1.5400 C   0  0  0  0  0  0  0  0  0  0  0  0
   -0.2256    0.7177    2.3313 O   0  0  0  0  0  0  0  0  0  0  0  0
   -2.4239    3.1726    1.8718 C   0  0  0  0  0  0  0  0  0  0  0  0
   -3.4446    1.6657    3.8454 H   0  0  0  0  0  0  0  0  0  0  0  0
   -3.2368    1.2374    1.3661 H   0  0  0  0  0  0  0  0  0  0  0  0
   -1.6248    3.6099    2.4815 H   0  0  0  0  0  0  0  0  0  0  0  0
   -2.2644    3.4949    0.8375 H   0  0  0  0  0  0  0  0  0  0  0  0
   -3.3741    3.5939    2.2175 H   0  0  0  0  0  0  0  0  0  0  0  0
   -0.9750    1.0274    0.1566 N   0  0  0  0  0  0  0  0  0  0  0  0
    0.2023    0.5266   -0.5070 C   0  0  2  0  0  0  0  0  0  0  0  0
    0.3797   -0.9250   -0.0763 C   0  0  0  0  0  0  0  0  0  0  0  0
   -0.2383   -1.4251    0.8612 O   0  0  0  0  0  0  0  0  0  0  0  0
    1.4533    1.3420   -0.1604 C   0  0  0  0  0  0  0  0  0  0  0  0
    1.4007    2.7499   -0.7014 C   0  0  0  0  0  0  0  0  0  0  0  0
    1.7259    2.9975   -2.0351 C   0  0  0  0  0  0  0  0  0  0  0  0
    1.0274    3.8039    0.1326 C   0  0  0  0  0  0  0  0  0  0  0  0
    1.6777    4.2988   -2.5347 C   0  0  0  0  0  0  0  0  0  0  0  0
    0.9793    5.1053   -0.3670 C   0  0  0  0  0  0  0  0  0  0  0  0
    1.3044    5.3528   -1.7007 C   0  0  0  0  0  0  0  0  0  0  0  0
    1.2588    6.6227   -2.1881 O   0  0  0  0  0  0  0  0  0  0  0  0
   -1.7582    1.3241   -0.4207 H   0  0  0  0  0  0  0  0  0  0  0  0
   -0.0079    0.5587   -1.5826 H   0  0  0  0  0  0  0  0  0  0  0  0
    2.3532    0.8357   -0.5351 H   0  0  0  0  0  0  0  0  0  0  0  0
    1.5860    1.3967    0.9282 H   0  0  0  0  0  0  0  0  0  0  0  0
    2.0176    2.1825   -2.6920 H   0  0  0  0  0  0  0  0  0  0  0  0
    0.7723    3.6203    1.1732 H   0  0  0  0  0  0  0  0  0  0  0  0
    1.9324    4.4854   -3.5746 H   0  0  0  0  0  0  0  0  0  0  0  0
    0.6882    5.9218    0.2877 H   0  0  0  0  0  0  0  0  0  0  0  0
    0.9839    7.2405   -1.4920 H   0  0  0  0  0  0  0  0  0  0  0  0
    1.2713   -1.6045   -0.8947 N   0  0  0  0  0  0  0  0  0  0  0  0
    1.6025   -3.0005   -0.7207 C   0  0  2  0  0  0  0  0  0  0  0  0
    1.9702   -3.2179    0.7412 C   0  0  0  0  0  0  0  0  0  0  0  0
    2.3538   -2.3120    1.4782 O   0  0  0  0  0  0  0  0  0  0  0  0
    2.7434   -3.4168   -1.6359 C   0  0  0  0  0  0  0  0  0  0  0  0
    1.7133   -1.0950   -1.6542 H   0  0  0  0  0  0  0  0  0  0  0  0
    0.6990   -3.5721   -0.9595 H   0  0  0  0  0  0  0  0  0  0  0  0
    3.6574   -2.8548   -1.4115 H   0  0  0  0  0  0  0  0  0  0  0  0
    2.9741   -4.4813   -1.5234 H   0  0  0  0  0  0  0  0  0  0  0  0
    2.4888   -3.2320   -2.6850 H   0  0  0  0  0  0  0  0  0  0  0  0
    1.8609   -4.5502    1.1142 N   0  0  0  0  0  0  0  0  0  0  0  0
    2.1668   -5.0142    2.4474 C   0  0  0  0  0  0  0  0  0  0  0  0
    1.5169   -5.2305    0.4430 H   0  0  0  0  0  0  0  0  0  0  0  0
    3.2181   -5.3346    2.4925 H   0  0  0  0  0  0  0  0  0  0  0  0
    2.0011   -4.1983    3.1664 H   0  0  0  0  0  0  0  0  0  0  0  0
    1.5138   -5.8629    2.6989 H   0  0  0  0  0  0  0  0  0  0  0  0
 23 25  2  0  0  0  0
 22 23  1  0  0  0  0
 24 26  1  0  0  0  0
 22 24  2  0  0  0  0
 25 27  1  0  0  0  0
 26 27  2  0  0  0  0
 21 22  1  0  0  0  0
 27 28  1  0  0  0  0
  1  3  1  0  0  0  0
  1  7  1  0  0  0  0
  1  2  2  0  0  0  0
 39 40  1  0  0  0  0
 40 48  1  0  0  0  0
 40 41  2  0  0  0  0
  8  9  1  0  0  0  0
  9 17  1  0  0  0  0
  9 10  2  0  0  0  0
 18 19  1  0  0  0  0
 19 38  1  0  0  0  0
 19 20  2  0  0  0  0
 39 42  1  0  0  0  0
  8 11  1  0  0  0  0
 48 49  1  0  0  0  0
 18 21  1  0  0  0  0
 38 39  1  0  0  0  0
  7  8  1  0  0  0  0
 17 18  1  0  0  0  0
 23 33  1  0  0  0  0
 24 34  1  0  0  0  0
 25 35  1  0  0  0  0
 26 36  1  0  0  0  0
  3  4  1  0  0  0  0
  3  5  1  0  0  0  0
  3  6  1  0  0  0  0
 42 45  1  0  0  0  0
 42 46  1  0  0  0  0
 42 47  1  0  0  0  0
 11 14  1  0  0  0  0
 11 15  1  0  0  0  0
 11 16  1  0  0  0  0
 49 51  1  0  0  0  0
 49 52  1  0  0  0  0
 49 53  1  0  0  0  0
 21 31  1  0  0  0  0
 21 32  1  0  0  0  0
 39 44  1  0  0  0  0
  8 13  1  0  0  0  0
 18 30  1  0  0  0  0
 48 50  1  0  0  0  0
  7 12  1  0  0  0  0
 38 43  1  0  0  0  0
 17 29  1  0  0  0  0
 28 37  1  0  0  0  0
M  END
$$$$

  -OEChem-05262214473D

 53 53  0     1  0  0  0  0  0999 V2000
   -1.9298    0.2574    3.9747 C   0  0  0  0  0  0  0  0  0  0  0  0
   -0.9825   -0.3573    3.4990 O   0  0  0  0  0  0  0  0  0  0  0  0
   -2.3617   -0.0250    5.3754 C   0  0  0  0  0  0  0  0  0  0  0  0
   -3.1214   -0.8213    5.4288 H   0  0  0  0  0  0  0  0  0  0  0  0
   -1.5305   -0.3726    6.0097 H   0  0  0  0  0  0  0  0  0  0  0  0
   -2.7997    0.8299    5.9150 H   0  0  0  0  0  0  0  0  0  0  0  0
   -2.6795    1.2298    3.3336 N   0  0  0  0  0  0  0  0  0  0  0  0
   -2.4327    1.6559    1.9812 C   0  0  2  0  0  0  0  0  0  0  0  0
   -1.0977    1.0705    1.5400 C   0  0  0  0  0  0  0  0  0  0  0  0
   -0.2256    0.7177    2.3313 O   0  0  0  0  0  0  0  0  0  0  0  0
   -2.4239    3.1726    1.8718 C   0  0  0  0  0  0  0  0  0  0  0  0
   -3.4446    1.6657    3.8454 H   0  0  0  0  0  0  0  0  0  0  0  0
   -3.2368    1.2374    1.3661 H   0  0  0  0  0  0  0  0  0  0  0  0
   -1.6248    3.6099    2.4815 H   0  0  0  0  0  0  0  0  0  0  0  0
   -2.2644    3.4949    0.8375 H   0  0  0  0  0  0  0  0  0  0  0  0
   -3.3741    3.5939    2.2175 H   0  0  0  0  0  0  0  0  0  0  0  0
   -0.9750    1.0274    0.1566 N   0  0  0  0  0  0  0  0  0  0  0  0
    0.2023    0.5266   -0.5070 C   0  0  2  0  0  0  0  0  0  0  0  0
    0.1744   -0.9931   -0.3890 C   0  0  0  0  0  0  0  0  0  0  0  0
   -0.7452   -1.6057    0.1494 O   0  0  0  0  0  0  0  0  0  0  0  0
    1.4928    1.0850    0.1036 C   0  0  0  0  0  0  0  0  0  0  0  0
    1.6505    2.5689   -0.1216 C   0  0  0  0  0  0  0  0  0  0  0  0
    2.1362    3.0419   -1.3407 C   0  0  0  0  0  0  0  0  0  0  0  0
    1.3112    3.4676    0.8898 C   0  0  0  0  0  0  0  0  0  0  0  0
    2.2824    4.4134   -1.5484 C   0  0  0  0  0  0  0  0  0  0  0  0
    1.4575    4.8391    0.6821 C   0  0  0  0  0  0  0  0  0  0  0  0
    1.9431    5.3120   -0.5370 C   0  0  0  0  0  0  0  0  0  0  0  0
    2.0871    6.6502   -0.7395 O   0  0  0  0  0  0  0  0  0  0  0  0
   -1.7582    1.3241   -0.4207 H   0  0  0  0  0  0  0  0  0  0  0  0
    0.1085    0.8063   -1.5629 H   0  0  0  0  0  0  0  0  0  0  0  0
    2.3656    0.5551   -0.3015 H   0  0  0  0  0  0  0  0  0  0  0  0
    1.5182    0.8968    1.1851 H   0  0  0  0  0  0  0  0  0  0  0  0
    2.4029    2.3490   -2.1342 H   0  0  0  0  0  0  0  0  0  0  0  0
    0.9319    3.1081    1.8430 H   0  0  0  0  0  0  0  0  0  0  0  0
    2.6615    4.7756   -2.5003 H   0  0  0  0  0  0  0  0  0  0  0  0
    1.1918    5.5339    1.4739 H   0  0  0  0  0  0  0  0  0  0  0  0
    1.8114    7.1415    0.0508 H   0  0  0  0  0  0  0  0  0  0  0  0
    1.2728   -1.5819   -1.0001 N   0  0  0  0  0  0  0  0  0  0  0  0
    1.4798   -3.0113   -1.0533 C   0  0  2  0  0  0  0  0  0  0  0  0
    1.3115   -3.5636    0.3560 C   0  0  0  0  0  0  0  0  0  0  0  0
    1.4439   -2.8759    1.3662 O   0  0  0  0  0  0  0  0  0  0  0  0
    2.8536   -3.3511   -1.6098 C   0  0  0  0  0  0  0  0  0  0  0  0
    1.9661   -0.9778   -1.4316 H   0  0  0  0  0  0  0  0  0  0  0  0
    0.6977   -3.4201   -1.7023 H   0  0  0  0  0  0  0  0  0  0  0  0
    3.6503   -2.9496   -0.9729 H   0  0  0  0  0  0  0  0  0  0  0  0
    2.9980   -4.4345   -1.6762 H   0  0  0  0  0  0  0  0  0  0  0  0
    2.9840   -2.9277   -2.6116 H   0  0  0  0  0  0  0  0  0  0  0  0
    1.0386   -4.9244    0.3540 N   0  0  0  0  0  0  0  0  0  0  0  0
    0.8492   -5.6833    1.5682 C   0  0  0  0  0  0  0  0  0  0  0  0
    0.9274   -5.4104   -0.5309 H   0  0  0  0  0  0  0  0  0  0  0  0
    1.8093   -6.1181    1.8830 H   0  0  0  0  0  0  0  0  0  0  0  0
    0.4700   -5.0201    2.3596 H   0  0  0  0  0  0  0  0  0  0  0  0
    0.1235   -6.4898    1.3868 H   0  0  0  0  0  0  0  0  0  0  0  0
 23 25  2  0  0  0  0
 22 23  1  0  0  0  0
 24 26  1  0  0  0  0
 22 24  2  0  0  0  0
 25 27  1  0  0  0  0
 26 27  2  0  0  0  0
 21 22  1  0  0  0  0
 27 28  1  0  0  0  0
  1  3  1  0  0  0  0
  1  7  1  0  0  0  0
  1  2  2  0  0  0  0
 39 40  1  0  0  0  0
 40 48  1  0  0  0  0
 40 41  2  0  0  0  0
  8  9  1  0  0  0  0
  9 17  1  0  0  0  0
  9 10  2  0  0  0  0
 18 19  1  0  0  0  0
 19 38  1  0  0  0  0
 19 20  2  0  0  0  0
 39 42  1  0  0  0  0
  8 11  1  0  0  0  0
 48 49  1  0  0  0  0
 18 21  1  0  0  0  0
 38 39  1  0  0  0  0
  7  8  1  0  0  0  0
 17 18  1  0  0  0  0
 23 33  1  0  0  0  0
 24 34  1  0  0  0  0
 25 35  1  0  0  0  0
 26 36  1  0  0  0  0
  3  4  1  0  0  0  0
  3  5  1  0  0  0  0
  3  6  1  0  0  0  0
 42 45  1  0  0  0  0
 42 46  1  0  0  0  0
 42 47  1  0  0  0  0
 11 14  1  0  0  0  0
 11 15  1  0  0  0  0
 11 16  1  0  0  0  0
 49 51  1  0  0  0  0
 49 52  1  0  0  0  0
 49 53  1  0  0  0  0
 21 31  1  0  0  0  0
 21 32  1  0  0  0  0
 39 44  1  0  0  0  0
  8 13  1  0  0  0  0
 18 30  1  0  0  0  0
 48 50  1  0  0  0  0
  7 12  1  0  0  0  0
 38 43  1  0  0  0  0
 17 29  1  0  0  0  0
 28 37  1  0  0  0  0
M  END
$$$$

  -OEChem-05262214473D

 53 53  0     1  0  0  0  0  0999 V2000
   -1.9298    0.2574    3.9747 C   0  0  0  0  0  0  0  0  0  0  0  0
   -0.9825   -0.3573    3.4990 O   0  0  0  0  0  0  0  0  0  0  0  0
   -2.3617   -0.0250    5.3754 C   0  0  0  0  0  0  0  0  0  0  0  0
   -3.1214   -0.8213    5.4288 H   0  0  0  0  0  0  0  0  0  0  0  0
   -1.5305   -0.3726    6.0097 H   0  0  0  0  0  0  0  0  0  0  0  0
   -2.7997    0.8299    5.9150 H   0  0  0  0  0  0  0  0  0  0  0  0
   -2.6795    1.2298    3.3336 N   0  0  0  0  0  0  0  0  0  0  0  0
   -2.4327    1.6559    1.9812 C   0  0  2  0  0  0  0  0  0  0  0  0
   -1.0977    1.0705    1.5400 C   0  0  0  0  0  0  0  0  0  0  0  0
   -0.2256    0.7177    2.3313 O   0  0  0  0  0  0  0  0  0  0  0  0
   -2.4239    3.1726    1.8718 C   0  0  0  0  0  0  0  0  0  0  0  0
   -3.4446    1.6657    3.8454 H   0  0  0  0  0  0  0  0  0  0  0  0
   -3.2368    1.2374    1.3661 H   0  0  0  0  0  0  0  0  0  0  0  0
   -1.6248    3.6099    2.4815 H   0  0  0  0  0  0  0  0  0  0  0  0
   -2.2644    3.4949    0.8375 H   0  0  0  0  0  0  0  0  0  0  0  0
   -3.3741    3.5939    2.2175 H   0  0  0  0  0  0  0  0  0  0  0  0
   -0.9750    1.0274    0.1566 N   0  0  0  0  0  0  0  0  0  0  0  0
    0.2023    0.5266   -0.5070 C   0  0  2  0  0  0  0  0  0  0  0  0
    0.1744   -0.9931   -0.3890 C   0  0  0  0  0  0  0  0  0  0  0  0
   -0.8409   -1.6234   -0.1016 O   0  0  0  0  0  0  0  0  0  0  0  0
    1.4928    1.0850    0.1036 C   0  0  0  0  0  0  0  0  0  0  0  0
    1.6505    2.5689   -0.1216 C   0  0  0  0  0  0  0  0  0  0  0  0
    2.1362    3.0419   -1.3407 C   0  0  0  0  0  0  0  0  0  0  0  0
    1.3112    3.4676    0.8898 C   0  0  0  0  0  0  0  0  0  0  0  0
    2.2824    4.4134   -1.5484 C   0  0  0  0  0  0  0  0  0  0  0  0
    1.4575    4.8391    0.6821 C   0  0  0  0  0  0  0  0  0  0  0  0
    1.9431    5.3120   -0.5370 C   0  0  0  0  0  0  0  0  0  0  0  0
    2.0871    6.6502   -0.7395 O   0  0  0  0  0  0  0  0  0  0  0  0
   -1.7582    1.3241   -0.4207 H   0  0  0  0  0  0  0  0  0  0  0  0
    0.1085    0.8063   -1.5629 H   0  0  0  0  0  0  0  0  0  0  0  0
    2.3656    0.5551   -0.3015 H   0  0  0  0  0  0  0  0  0  0  0  0
    1.5182    0.8968    1.1851 H   0  0  0  0  0  0  0  0  0  0  0  0
    2.4029    2.3490   -2.1342 H   0  0  0  0  0  0  0  0  0  0  0  0
    0.9319    3.1081    1.8430 H   0  0  0  0  0  0  0  0  0  0  0  0
    2.6615    4.7756   -2.5003 H   0  0  0  0  0  0  0  0  0  0  0  0
    1.1918    5.5339    1.4739 H   0  0  0  0  0  0  0  0  0  0  0  0
    1.8114    7.1415    0.0508 H   0  0  0  0  0  0  0  0  0  0  0  0
    1.4045   -1.5603   -0.6917 N   0  0  0  0  0  0  0  0  0  0  0  0
    1.6459   -2.9853   -0.6793 C   0  0  2  0  0  0  0  0  0  0  0  0
    1.1304   -3.5380    0.6429 C   0  0  0  0  0  0  0  0  0  0  0  0
    0.9843   -2.8456    1.6481 O   0  0  0  0  0  0  0  0  0  0  0  0
    3.1232   -3.2978   -0.8601 C   0  0  0  0  0  0  0  0  0  0  0  0
    2.1738   -0.9429   -0.9342 H   0  0  0  0  0  0  0  0  0  0  0  0
    1.0658   -3.4115   -1.5050 H   0  0  0  0  0  0  0  0  0  0  0  0
    3.7205   -2.8786   -0.0421 H   0  0  0  0  0  0  0  0  0  0  0  0
    3.3008   -4.3781   -0.8790 H   0  0  0  0  0  0  0  0  0  0  0  0
    3.4994   -2.8739   -1.7974 H   0  0  0  0  0  0  0  0  0  0  0  0
    0.8937   -4.9041    0.5806 N   0  0  0  0  0  0  0  0  0  0  0  0
    0.4122   -5.6643    1.7104 C   0  0  0  0  0  0  0  0  0  0  0  0
    1.0241   -5.3942   -0.2994 H   0  0  0  0  0  0  0  0  0  0  0  0
    1.2668   -6.0784    2.2654 H   0  0  0  0  0  0  0  0  0  0  0  0
   -0.1711   -5.0073    2.3724 H   0  0  0  0  0  0  0  0  0  0  0  0
   -0.2263   -6.4860    1.3539 H   0  0  0  0  0  0  0  0  0  0  0  0
 23 25  2  0  0  0  0
 22 23  1  0  0  0  0
 24 26  1  0  0  0  0
 22 24  2  0  0  0  0
 25 27  1  0  0  0  0
 26 27  2  0  0  0  0
 21 22  1  0  0  0  0
 27 28  1  0  0  0  0
  1  3  1  0  0  0  0
  1  7  1  0  0  0  0
  1  2  2  0  0  0  0
 39 40  1  0  0  0  0
 40 48  1  0  0  0  0
 40 41  2  0  0  0  0
  8  9  1  0  0  0  0
  9 17  1  0  0  0  0
  9 10  2  0  0  0  0
 18 19  1  0  0  0  0
 19 38  1  0  0  0  0
 19 20  2  0  0  0  0
 39 42  1  0  0  0  0
  8 11  1  0  0  0  0
 48 49  1  0  0  0  0
 18 21  1  0  0  0  0
 38 39  1  0  0  0  0
  7  8  1  0  0  0  0
 17 18  1  0  0  0  0
 23 33  1  0  0  0  0
 24 34  1  0  0  0  0
 25 35  1  0  0  0  0
 26 36  1  0  0  0  0
  3  4  1  0  0  0  0
  3  5  1  0  0  0  0
  3  6  1  0  0  0  0
 42 45  1  0  0  0  0
 42 46  1  0  0  0  0
 42 47  1  0  0  0  0
 11 14  1  0  0  0  0
 11 15  1  0  0  0  0
 11 16  1  0  0  0  0
 49 51  1  0  0  0  0
 49 52  1  0  0  0  0
 49 53  1  0  0  0  0
 21 31  1  0  0  0  0
 21 32  1  0  0  0  0
 39 44  1  0  0  0  0
  8 13  1  0  0  0  0
 18 30  1  0  0  0  0
 48 50  1  0  0  0  0
  7 12  1  0  0  0  0
 38 43  1  0  0  0  0
 17 29  1  0  0  0  0
 28 37  1  0  0  0  0
M  END
$$$$

  -OEChem-05262214473D

 53 53  0     1  0  0  0  0  0999 V2000
   -1.9298    0.2574    3.9747 C   0  0  0  0  0  0  0  0  0  0  0  0
   -0.9825   -0.3573    3.4990 O   0  0  0  0  0  0  0  0  0  0  0  0
   -2.3617   -0.0250    5.3754 C   0  0  0  0  0  0  0  0  0  0  0  0
   -3.1214   -0.8213    5.4288 H   0  0  0  0  0  0  0  0  0  0  0  0
   -1.5305   -0.3726    6.0097 H   0  0  0  0  0  0  0  0  0  0  0  0
   -2.7997    0.8299    5.9150 H   0  0  0  0  0  0  0  0  0  0  0  0
   -2.6795    1.2298    3.3336 N   0  0  0  0  0  0  0  0  0  0  0  0
   -2.4327    1.6559    1.9812 C   0  0  2  0  0  0  0  0  0  0  0  0
   -1.0977    1.0705    1.5400 C   0  0  0  0  0  0  0  0  0  0  0  0
   -0.2256    0.7177    2.3313 O   0  0  0  0  0  0  0  0  0  0  0  0
   -2.4239    3.1726    1.8718 C   0  0  0  0  0  0  0  0  0  0  0  0
   -3.4446    1.6657    3.8454 H   0  0  0  0  0  0  0  0  0  0  0  0
   -3.2368    1.2374    1.3661 H   0  0  0  0  0  0  0  0  0  0  0  0
   -1.6248    3.6099    2.4815 H   0  0  0  0  0  0  0  0  0  0  0  0
   -2.2644    3.4949    0.8375 H   0  0  0  0  0  0  0  0  0  0  0  0
   -3.3741    3.5939    2.2175 H   0  0  0  0  0  0  0  0  0  0  0  0
   -0.9750    1.0274    0.1566 N   0  0  0  0  0  0  0  0  0  0  0  0
    0.2023    0.5266   -0.5070 C   0  0  2  0  0  0  0  0  0  0  0  0
    0.1744   -0.9931   -0.3890 C   0  0  0  0  0  0  0  0  0  0  0  0
   -0.8683   -1.6437   -0.3686 O   0  0  0  0  0  0  0  0  0  0  0  0
    1.4928    1.0850    0.1036 C   0  0  0  0  0  0  0  0  0  0  0  0
    1.6505    2.5689   -0.1216 C   0  0  0  0  0  0  0  0  0  0  0  0
    2.1362    3.0419   -1.3407 C   0  0  0  0  0  0  0  0  0  0  0  0
    1.3112    3.4676    0.8898 C   0  0  0  0  0  0  0  0  0  0  0  0
    2.2824    4.4134   -1.5484 C   0  0  0  0  0  0  0  0  0  0  0  0
    1.4575    4.8391    0.6821 C   0  0  0  0  0  0  0  0  0  0  0  0
    1.9431    5.3120   -0.5370 C   0  0  0  0  0  0  0  0  0  0  0  0
    2.0871    6.6502   -0.7395 O   0  0  0  0  0  0  0  0  0  0  0  0
   -1.7582    1.3241   -0.4207 H   0  0  0  0  0  0  0  0  0  0  0  0
    0.1085    0.8063   -1.5629 H   0  0  0  0  0  0  0  0  0  0  0  0
    2.3656    0.5551   -0.3015 H   0  0  0  0  0  0  0  0  0  0  0  0
    1.5182    0.8968    1.1851 H   0  0  0  0  0  0  0  0  0  0  0  0
    2.4029    2.3490   -2.1342 H   0  0  0  0  0  0  0  0  0  0  0  0
    0.9319    3.1081    1.8430 H   0  0  0  0  0  0  0  0  0  0  0  0
    2.6615    4.7756   -2.5003 H   0  0  0  0  0  0  0  0  0  0  0  0
    1.1918    5.5339    1.4739 H   0  0  0  0  0  0  0  0  0  0  0  0
    1.8114    7.1415    0.0508 H   0  0  0  0  0  0  0  0  0  0  0  0
    1.4517   -1.5355   -0.3600 N   0  0  0  0  0  0  0  0  0  0  0  0
    1.7094   -2.9550   -0.2752 C   0  0  2  0  0  0  0  0  0  0  0  0
    0.8810   -3.5156    0.8733 C   0  0  0  0  0  0  0  0  0  0  0  0
    0.4670   -2.8243    1.8016 O   0  0  0  0  0  0  0  0  0  0  0  0
    3.1890   -3.2374   -0.0665 C   0  0  0  0  0  0  0  0  0  0  0  0
    2.2454   -0.9028   -0.4004 H   0  0  0  0  0  0  0  0  0  0  0  0
    1.3704   -3.3949   -1.2195 H   0  0  0  0  0  0  0  0  0  0  0  0
    3.5468   -2.8043    0.8747 H   0  0  0  0  0  0  0  0  0  0  0  0
    3.3864   -4.3139   -0.0311 H   0  0  0  0  0  0  0  0  0  0  0  0
    3.7860   -2.8077   -0.8782 H   0  0  0  0  0  0  0  0  0  0  0  0
    0.6949   -4.8864    0.7621 N   0  0  0  0  0  0  0  0  0  0  0  0
   -0.0470   -5.6539    1.7349 C   0  0  0  0  0  0  0  0  0  0  0  0
    1.0575   -5.3756   -0.0509 H   0  0  0  0  0  0  0  0  0  0  0  0
    0.6433   -6.0492    2.4947 H   0  0  0  0  0  0  0  0  0  0  0  0
   -0.7940   -5.0078    2.2192 H   0  0  0  0  0  0  0  0  0  0  0  0
   -0.5558   -6.4894    1.2319 H   0  0  0  0  0  0  0  0  0  0  0  0
 23 25  2  0  0  0  0
 22 23  1  0  0  0  0
 24 26  1  0  0  0  0
 22 24  2  0  0  0  0
 25 27  1  0  0  0  0
 26 27  2  0  0  0  0
 21 22  1  0  0  0  0
 27 28  1  0  0  0  0
  1  3  1  0  0  0  0
  1  7  1  0  0  0  0
  1  2  2  0  0  0  0
 39 40  1  0  0  0  0
 40 48  1  0  0  0  0
 40 41  2  0  0  0  0
  8  9  1  0  0  0  0
  9 17  1  0  0  0  0
  9 10  2  0  0  0  0
 18 19  1  0  0  0  0
 19 38  1  0  0  0  0
 19 20  2  0  0  0  0
 39 42  1  0  0  0  0
  8 11  1  0  0  0  0
 48 49  1  0  0  0  0
 18 21  1  0  0  0  0
 38 39  1  0  0  0  0
  7  8  1  0  0  0  0
 17 18  1  0  0  0  0
 23 33  1  0  0  0  0
 24 34  1  0  0  0  0
 25 35  1  0  0  0  0
 26 36  1  0  0  0  0
  3  4  1  0  0  0  0
  3  5  1  0  0  0  0
  3  6  1  0  0  0  0
 42 45  1  0  0  0  0
 42 46  1  0  0  0  0
 42 47  1  0  0  0  0
 11 14  1  0  0  0  0
 11 15  1  0  0  0  0
 11 16  1  0  0  0  0
 49 51  1  0  0  0  0
 49 52  1  0  0  0  0
 49 53  1  0  0  0  0
 21 31  1  0  0  0  0
 21 32  1  0  0  0  0
 39 44  1  0  0  0  0
  8 13  1  0  0  0  0
 18 30  1  0  0  0  0
 48 50  1  0  0  0  0
  7 12  1  0  0  0  0
 38 43  1  0  0  0  0
 17 29  1  0  0  0  0
 28 37  1  0  0  0  0
M  END
$$$$

  -OEChem-05262214473D

 53 53  0     1  0  0  0  0  0999 V2000
   -1.9298    0.2574    3.9747 C   0  0  0  0  0  0  0  0  0  0  0  0
   -0.9825   -0.3573    3.4990 O   0  0  0  0  0  0  0  0  0  0  0  0
   -2.3617   -0.0250    5.3754 C   0  0  0  0  0  0  0  0  0  0  0  0
   -3.1214   -0.8213    5.4288 H   0  0  0  0  0  0  0  0  0  0  0  0
   -1.5305   -0.3726    6.0097 H   0  0  0  0  0  0  0  0  0  0  0  0
   -2.7997    0.8299    5.9150 H   0  0  0  0  0  0  0  0  0  0  0  0
   -2.6795    1.2298    3.3336 N   0  0  0  0  0  0  0  0  0  0  0  0
   -2.4327    1.6559    1.9812 C   0  0  2  0  0  0  0  0  0  0  0  0
   -1.0977    1.0705    1.5400 C   0  0  0  0  0  0  0  0  0  0  0  0
   -0.2256    0.7177    2.3313 O   0  0  0  0  0  0  0  0  0  0  0  0
   -2.4239    3.1726    1.8718 C   0  0  0  0  0  0  0  0  0  0  0  0
   -3.4446    1.6657    3.8454 H   0  0  0  0  0  0  0  0  0  0  0  0
   -3.2368    1.2374    1.3661 H   0  0  0  0  0  0  0  0  0  0  0  0
   -1.6248    3.6099    2.4815 H   0  0  0  0  0  0  0  0  0  0  0  0
   -2.2644    3.4949    0.8375 H   0  0  0  0  0  0  0  0  0  0  0  0
   -3.3741    3.5939    2.2175 H   0  0  0  0  0  0  0  0  0  0  0  0
   -0.9750    1.0274    0.1566 N   0  0  0  0  0  0  0  0  0  0  0  0
    0.2023    0.5266   -0.5070 C   0  0  2  0  0  0  0  0  0  0  0  0
    0.1744   -0.9931   -0.3890 C   0  0  0  0  0  0  0  0  0  0  0  0
   -0.8254   -1.6650   -0.6335 O   0  0  0  0  0  0  0  0  0  0  0  0
    1.4928    1.0850    0.1036 C   0  0  0  0  0  0  0  0  0  0  0  0
    1.6505    2.5689   -0.1216 C   0  0  0  0  0  0  0  0  0  0  0  0
    2.1362    3.0419   -1.3407 C   0  0  0  0  0  0  0  0  0  0  0  0
    1.3112    3.4676    0.8898 C   0  0  0  0  0  0  0  0  0  0  0  0
    2.2824    4.4134   -1.5484 C   0  0  0  0  0  0  0  0  0  0  0  0
    1.4575    4.8391    0.6821 C   0  0  0  0  0  0  0  0  0  0  0  0
    1.9431    5.3120   -0.5370 C   0  0  0  0  0  0  0  0  0  0  0  0
    2.0871    6.6502   -0.7395 O   0  0  0  0  0  0  0  0  0  0  0  0
   -1.7582    1.3241   -0.4207 H   0  0  0  0  0  0  0  0  0  0  0  0
    0.1085    0.8063   -1.5629 H   0  0  0  0  0  0  0  0  0  0  0  0
    2.3656    0.5551   -0.3015 H   0  0  0  0  0  0  0  0  0  0  0  0
    1.5182    0.8968    1.1851 H   0  0  0  0  0  0  0  0  0  0  0  0
    2.4029    2.3490   -2.1342 H   0  0  0  0  0  0  0  0  0  0  0  0
    0.9319    3.1081    1.8430 H   0  0  0  0  0  0  0  0  0  0  0  0
    2.6615    4.7756   -2.5003 H   0  0  0  0  0  0  0  0  0  0  0  0
    1.1918    5.5339    1.4739 H   0  0  0  0  0  0  0  0  0  0  0  0
    1.8114    7.1415    0.0508 H   0  0  0  0  0  0  0  0  0  0  0  0
    1.4113   -1.5089   -0.0275 N   0  0  0  0  0  0  0  0  0  0  0  0
    1.6658   -2.9227    0.1313 C   0  0  2  0  0  0  0  0  0  0  0  0
    0.5801   -3.4978    1.0313 C   0  0  0  0  0  0  0  0  0  0  0  0
   -0.0727   -2.8132    1.8163 O   0  0  0  0  0  0  0  0  0  0  0  0
    3.0467   -3.1740    0.7167 C   0  0  0  0  0  0  0  0  0  0  0  0
    2.1760   -0.8601    0.1335 H   0  0  0  0  0  0  0  0  0  0  0  0
    1.5906   -3.3715   -0.8652 H   0  0  0  0  0  0  0  0  0  0  0  0
    3.1410   -2.7316    1.7151 H   0  0  0  0  0  0  0  0  0  0  0  0
    3.2491   -4.2461    0.8098 H   0  0  0  0  0  0  0  0  0  0  0  0
    3.8245   -2.7338    0.0833 H   0  0  0  0  0  0  0  0  0  0  0  0
    0.4557   -4.8724    0.8860 N   0  0  0  0  0  0  0  0  0  0  0  0
   -0.4971   -5.6531    1.6401 C   0  0  0  0  0  0  0  0  0  0  0  0
    1.0252   -5.3557    0.1976 H   0  0  0  0  0  0  0  0  0  0  0  0
   -0.0186   -6.0324    2.5551 H   0  0  0  0  0  0  0  0  0  0  0  0
   -1.3561   -5.0215    1.9106 H   0  0  0  0  0  0  0  0  0  0  0  0
   -0.8425   -6.4999    1.0290 H   0  0  0  0  0  0  0  0  0  0  0  0
 23 25  2  0  0  0  0
 22 23  1  0  0  0  0
 24 26  1  0  0  0  0
 22 24  2  0  0  0  0
 25 27  1  0  0  0  0
 26 27  2  0  0  0  0
 21 22  1  0  0  0  0
 27 28  1  0  0  0  0
  1  3  1  0  0  0  0
  1  7  1  0  0  0  0
  1  2  2  0  0  0  0
 39 40  1  0  0  0  0
 40 48  1  0  0  0  0
 40 41  2  0  0  0  0
  8  9  1  0  0  0  0
  9 17  1  0  0  0  0
  9 10  2  0  0  0  0
 18 19  1  0  0  0  0
 19 38  1  0  0  0  0
 19 20  2  0  0  0  0
 39 42  1  0  0  0  0
  8 11  1  0  0  0  0
 48 49  1  0  0  0  0
 18 21  1  0  0  0  0
 38 39  1  0  0  0  0
  7  8  1  0  0  0  0
 17 18  1  0  0  0  0
 23 33  1  0  0  0  0
 24 34  1  0  0  0  0
 25 35  1  0  0  0  0
 26 36  1  0  0  0  0
  3  4  1  0  0  0  0
  3  5  1  0  0  0  0
  3  6  1  0  0  0  0
 42 45  1  0  0  0  0
 42 46  1  0  0  0  0
 42 47  1  0  0  0  0
 11 14  1  0  0  0  0
 11 15  1  0  0  0  0
 11 16  1  0  0  0  0
 49 51  1  0  0  0  0
 49 52  1  0  0  0  0
 49 53  1  0  0  0  0
 21 31  1  0  0  0  0
 21 32  1  0  0  0  0
 39 44  1  0  0  0  0
  8 13  1  0  0  0  0
 18 30  1  0  0  0  0
 48 50  1  0  0  0  0
  7 12  1  0  0  0  0
 38 43  1  0  0  0  0
 17 29  1  0  0  0  0
 28 37  1  0  0  0  0
M  END
$$$$

  -OEChem-05262214473D

 53 53  0     1  0  0  0  0  0999 V2000
   -1.9298    0.2574    3.9747 C   0  0  0  0  0  0  0  0  0  0  0  0
   -0.9825   -0.3573    3.4990 O   0  0  0  0  0  0  0  0  0  0  0  0
   -2.3617   -0.0250    5.3754 C   0  0  0  0  0  0  0  0  0  0  0  0
   -3.1214   -0.8213    5.4288 H   0  0  0  0  0  0  0  0  0  0  0  0
   -1.5305   -0.3726    6.0097 H   0  0  0  0  0  0  0  0  0  0  0  0
   -2.7997    0.8299    5.9150 H   0  0  0  0  0  0  0  0  0  0  0  0
   -2.6795    1.2298    3.3336 N   0  0  0  0  0  0  0  0  0  0  0  0
   -2.4327    1.6559    1.9812 C   0  0  2  0  0  0  0  0  0  0  0  0
   -1.0977    1.0705    1.5400 C   0  0  0  0  0  0  0  0  0  0  0  0
   -0.2256    0.7177    2.3313 O   0  0  0  0  0  0  0  0  0  0  0  0
   -2.4239    3.1726    1.8718 C   0  0  0  0  0  0  0  0  0  0  0  0
   -3.4446    1.6657    3.8454 H   0  0  0  0  0  0  0  0  0  0  0  0
   -3.2368    1.2374    1.3661 H   0  0  0  0  0  0  0  0  0  0  0  0
   -1.6248    3.6099    2.4815 H   0  0  0  0  0  0  0  0  0  0  0  0
   -2.2644    3.4949    0.8375 H   0  0  0  0  0  0  0  0  0  0  0  0
   -3.3741    3.5939    2.2175 H   0  0  0  0  0  0  0  0  0  0  0  0
   -0.9750    1.0274    0.1566 N   0  0  0  0  0  0  0  0  0  0  0  0
    0.2023    0.5266   -0.5070 C   0  0  2  0  0  0  0  0  0  0  0  0
    0.1744   -0.9931   -0.3890 C   0  0  0  0  0  0  0  0  0  0  0  0
   -0.7152   -1.6860   -0.8781 O   0  0  0  0  0  0  0  0  0  0  0  0
    1.4928    1.0850    0.1036 C   0  0  0  0  0  0  0  0  0  0  0  0
    1.6505    2.5689   -0.1216 C   0  0  0  0  0  0  0  0  0  0  0  0
    2.1362    3.0419   -1.3407 C   0  0  0  0  0  0  0  0  0  0  0  0
    1.3112    3.4676    0.8898 C   0  0  0  0  0  0  0  0  0  0  0  0
    2.2824    4.4134   -1.5484 C   0  0  0  0  0  0  0  0  0  0  0  0
    1.4575    4.8391    0.6821 C   0  0  0  0  0  0  0  0  0  0  0  0
    1.9431    5.3120   -0.5370 C   0  0  0  0  0  0  0  0  0  0  0  0
    2.0871    6.6502   -0.7395 O   0  0  0  0  0  0  0  0  0  0  0  0
   -1.7582    1.3241   -0.4207 H   0  0  0  0  0  0  0  0  0  0  0  0
    0.1085    0.8063   -1.5629 H   0  0  0  0  0  0  0  0  0  0  0  0
    2.3656    0.5551   -0.3015 H   0  0  0  0  0  0  0  0  0  0  0  0
    1.5182    0.8968    1.1851 H   0  0  0  0  0  0  0  0  0  0  0  0
    2.4029    2.3490   -2.1342 H   0  0  0  0  0  0  0  0  0  0  0  0
    0.9319    3.1081    1.8430 H   0  0  0  0  0  0  0  0  0  0  0  0
    2.6615    4.7756   -2.5003 H   0  0  0  0  0  0  0  0  0  0  0  0
    1.1918    5.5339    1.4739 H   0  0  0  0  0  0  0  0  0  0  0  0
    1.8114    7.1415    0.0508 H   0  0  0  0  0  0  0  0  0  0  0  0
    1.2859   -1.4825    0.2831 N   0  0  0  0  0  0  0  0  0  0  0  0
    1.5182   -2.8904    0.5125 C   0  0  2  0  0  0  0  0  0  0  0  0
    0.2484   -3.4859    1.1063 C   0  0  0  0  0  0  0  0  0  0  0  0
   -0.5981   -2.8133    1.6912 O   0  0  0  0  0  0  0  0  0  0  0  0
    2.7059   -3.1119    1.4361 C   0  0  0  0  0  0  0  0  0  0  0  0
    1.9704   -0.8177    0.6312 H   0  0  0  0  0  0  0  0  0  0  0  0
    1.7114   -3.3427   -0.4663 H   0  0  0  0  0  0  0  0  0  0  0  0
    2.5307   -2.6655    2.4218 H   0  0  0  0  0  0  0  0  0  0  0  0
    2.8982   -4.1794    1.5862 H   0  0  0  0  0  0  0  0  0  0  0  0
    3.6120   -2.6571    1.0217 H   0  0  0  0  0  0  0  0  0  0  0  0
    0.1924   -4.8631    0.9438 N   0  0  0  0  0  0  0  0  0  0  0  0
   -0.9074   -5.6617    1.4325 C   0  0  0  0  0  0  0  0  0  0  0  0
    0.9296   -5.3359    0.4293 H   0  0  0  0  0  0  0  0  0  0  0  0
   -0.6739   -6.0291    2.4427 H   0  0  0  0  0  0  0  0  0  0  0  0
   -1.8192   -5.0474    1.4675 H   0  0  0  0  0  0  0  0  0  0  0  0
   -1.0669   -6.5168    0.7592 H   0  0  0  0  0  0  0  0  0  0  0  0
 23 25  2  0  0  0  0
 22 23  1  0  0  0  0
 24 26  1  0  0  0  0
 22 24  2  0  0  0  0
 25 27  1  0  0  0  0
 26 27  2  0  0  0  0
 21 22  1  0  0  0  0
 27 28  1  0  0  0  0
  1  3  1  0  0  0  0
  1  7  1  0  0  0  0
  1  2  2  0  0  0  0
 39 40  1  0  0  0  0
 40 48  1  0  0  0  0
 40 41  2  0  0  0  0
  8  9  1  0  0  0  0
  9 17  1  0  0  0  0
  9 10  2  0  0  0  0
 18 19  1  0  0  0  0
 19 38  1  0  0  0  0
 19 20  2  0  0  0  0
 39 42  1  0  0  0  0
  8 11  1  0  0  0  0
 48 49  1  0  0  0  0
 18 21  1  0  0  0  0
 38 39  1  0  0  0  0
  7  8  1  0  0  0  0
 17 18  1  0  0  0  0
 23 33  1  0  0  0  0
 24 34  1  0  0  0  0
 25 35  1  0  0  0  0
 26 36  1  0  0  0  0
  3  4  1  0  0  0  0
  3  5  1  0  0  0  0
  3  6  1  0  0  0  0
 42 45  1  0  0  0  0
 42 46  1  0  0  0  0
 42 47  1  0  0  0  0
 11 14  1  0  0  0  0
 11 15  1  0  0  0  0
 11 16  1  0  0  0  0
 49 51  1  0  0  0  0
 49 52  1  0  0  0  0
 49 53  1  0  0  0  0
 21 31  1  0  0  0  0
 21 32  1  0  0  0  0
 39 44  1  0  0  0  0
  8 13  1  0  0  0  0
 18 30  1  0  0  0  0
 48 50  1  0  0  0  0
  7 12  1  0  0  0  0
 38 43  1  0  0  0  0
 17 29  1  0  0  0  0
 28 37  1  0  0  0  0
M  END
$$$$

  -OEChem-05262214473D

 53 53  0     1  0  0  0  0  0999 V2000
   -1.9298    0.2574    3.9747 C   0  0  0  0  0  0  0  0  0  0  0  0
   -0.9825   -0.3573    3.4990 O   0  0  0  0  0  0  0  0  0  0  0  0
   -2.3617   -0.0250    5.3754 C   0  0  0  0  0  0  0  0  0  0  0  0
   -3.1214   -0.8213    5.4288 H   0  0  0  0  0  0  0  0  0  0  0  0
   -1.5305   -0.3726    6.0097 H   0  0  0  0  0  0  0  0  0  0  0  0
   -2.7997    0.8299    5.9150 H   0  0  0  0  0  0  0  0  0  0  0  0
   -2.6795    1.2298    3.3336 N   0  0  0  0  0  0  0  0  0  0  0  0
   -2.4327    1.6559    1.9812 C   0  0  2  0  0  0  0  0  0  0  0  0
   -1.0977    1.0705    1.5400 C   0  0  0  0  0  0  0  0  0  0  0  0
   -0.2256    0.7177    2.3313 O   0  0  0  0  0  0  0  0  0  0  0  0
   -2.4239    3.1726    1.8718 C   0  0  0  0  0  0  0  0  0  0  0  0
   -3.4446    1.6657    3.8454 H   0  0  0  0  0  0  0  0  0  0  0  0
   -3.2368    1.2374    1.3661 H   0  0  0  0  0  0  0  0  0  0  0  0
   -1.6248    3.6099    2.4815 H   0  0  0  0  0  0  0  0  0  0  0  0
   -2.2644    3.4949    0.8375 H   0  0  0  0  0  0  0  0  0  0  0  0
   -3.3741    3.5939    2.2175 H   0  0  0  0  0  0  0  0  0  0  0  0
   -0.9750    1.0274    0.1566 N   0  0  0  0  0  0  0  0  0  0  0  0
    0.2023    0.5266   -0.5070 C   0  0  2  0  0  0  0  0  0  0  0  0
    0.1744   -0.9931   -0.3890 C   0  0  0  0  0  0  0  0  0  0  0  0
   -0.5453   -1.7053   -1.0860 O   0  0  0  0  0  0  0  0  0  0  0  0
    1.4928    1.0850    0.1036 C   0  0  0  0  0  0  0  0  0  0  0  0
    1.6505    2.5689   -0.1216 C   0  0  0  0  0  0  0  0  0  0  0  0
    2.1362    3.0419   -1.3407 C   0  0  0  0  0  0  0  0  0  0  0  0
    1.3112    3.4676    0.8898 C   0  0  0  0  0  0  0  0  0  0  0  0
    2.2824    4.4134   -1.5484 C   0  0  0  0  0  0  0  0  0  0  0  0
    1.4575    4.8391    0.6821 C   0  0  0  0  0  0  0  0  0  0  0  0
    1.9431    5.3120   -0.5370 C   0  0  0  0  0  0  0  0  0  0  0  0
    2.0871    6.6502   -0.7395 O   0  0  0  0  0  0  0  0  0  0  0  0
   -1.7582    1.3241   -0.4207 H   0  0  0  0  0  0  0  0  0  0  0  0
    0.1085    0.8063   -1.5629 H   0  0  0  0  0  0  0  0  0  0  0  0
    2.3656    0.5551   -0.3015 H   0  0  0  0  0  0  0  0  0  0  0  0
    1.5182    0.8968    1.1851 H   0  0  0  0  0  0  0  0  0  0  0  0
    2.4029    2.3490   -2.1342 H   0  0  0  0  0  0  0  0  0  0  0  0
    0.9319    3.1081    1.8430 H   0  0  0  0  0  0  0  0  0  0  0  0
    2.6615    4.7756   -2.5003 H   0  0  0  0  0  0  0  0  0  0  0  0
    1.1918    5.5339    1.4739 H   0  0  0  0  0  0  0  0  0  0  0  0
    1.8114    7.1415    0.0508 H   0  0  0  0  0  0  0  0  0  0  0  0
    1.0841   -1.4580    0.5506 N   0  0  0  0  0  0  0  0  0  0  0  0
    1.2766   -2.8603    0.8426 C   0  0  2  0  0  0  0  0  0  0  0  0
   -0.0916   -3.4807    1.0930 C   0  0  0  0  0  0  0  0  0  0  0  0
   -1.0732   -2.8245    1.4349 O   0  0  0  0  0  0  0  0  0  0  0  0
    2.1898   -3.0553    2.0429 C   0  0  0  0  0  0  0  0  0  0  0  0
    1.6426   -0.7785    1.0586 H   0  0  0  0  0  0  0  0  0  0  0  0
    1.7246   -3.3106   -0.0499 H   0  0  0  0  0  0  0  0  0  0  0  0
    1.7576   -2.6106    2.9467 H   0  0  0  0  0  0  0  0  0  0  0  0
    2.3575   -4.1183    2.2453 H   0  0  0  0  0  0  0  0  0  0  0  0
    3.1632   -2.5828    1.8728 H   0  0  0  0  0  0  0  0  0  0  0  0
   -0.0770   -4.8591    0.9318 N   0  0  0  0  0  0  0  0  0  0  0  0
   -1.2499   -5.6792    1.1260 C   0  0  0  0  0  0  0  0  0  0  0  0
    0.7770   -5.3177    0.6282 H   0  0  0  0  0  0  0  0  0  0  0  0
   -1.2780   -6.0397    2.1649 H   0  0  0  0  0  0  0  0  0  0  0  0
   -2.1517   -5.0838    0.9201 H   0  0  0  0  0  0  0  0  0  0  0  0
   -1.2137   -6.5388    0.4407 H   0  0  0  0  0  0  0  0  0  0  0  0
 23 25  2  0  0  0  0
 22 23  1  0  0  0  0
 24 26  1  0  0  0  0
 22 24  2  0  0  0  0
 25 27  1  0  0  0  0
 26 27  2  0  0  0  0
 21 22  1  0  0  0  0
 27 28  1  0  0  0  0
  1  3  1  0  0  0  0
  1  7  1  0  0  0  0
  1  2  2  0  0  0  0
 39 40  1  0  0  0  0
 40 48  1  0  0  0  0
 40 41  2  0  0  0  0
  8  9  1  0  0  0  0
  9 17  1  0  0  0  0
  9 10  2  0  0  0  0
 18 19  1  0  0  0  0
 19 38  1  0  0  0  0
 19 20  2  0  0  0  0
 39 42  1  0  0  0  0
  8 11  1  0  0  0  0
 48 49  1  0  0  0  0
 18 21  1  0  0  0  0
 38 39  1  0  0  0  0
  7  8  1  0  0  0  0
 17 18  1  0  0  0  0
 23 33  1  0  0  0  0
 24 34  1  0  0  0  0
 25 35  1  0  0  0  0
 26 36  1  0  0  0  0
  3  4  1  0  0  0  0
  3  5  1  0  0  0  0
  3  6  1  0  0  0  0
 42 45  1  0  0  0  0
 42 46  1  0  0  0  0
 42 47  1  0  0  0  0
 11 14  1  0  0  0  0
 11 15  1  0  0  0  0
 11 16  1  0  0  0  0
 49 51  1  0  0  0  0
 49 52  1  0  0  0  0
 49 53  1  0  0  0  0
 21 31  1  0  0  0  0
 21 32  1  0  0  0  0
 39 44  1  0  0  0  0
  8 13  1  0  0  0  0
 18 30  1  0  0  0  0
 48 50  1  0  0  0  0
  7 12  1  0  0  0  0
 38 43  1  0  0  0  0
 17 29  1  0  0  0  0
 28 37  1  0  0  0  0
M  END
$$$$

  -OEChem-05262214473D

 53 53  0     1  0  0  0  0  0999 V2000
   -1.9298    0.2574    3.9747 C   0  0  0  0  0  0  0  0  0  0  0  0
   -0.9825   -0.3573    3.4990 O   0  0  0  0  0  0  0  0  0  0  0  0
   -2.3617   -0.0250    5.3754 C   0  0  0  0  0  0  0  0  0  0  0  0
   -3.1214   -0.8213    5.4288 H   0  0  0  0  0  0  0  0  0  0  0  0
   -1.5305   -0.3726    6.0097 H   0  0  0  0  0  0  0  0  0  0  0  0
   -2.7997    0.8299    5.9150 H   0  0  0  0  0  0  0  0  0  0  0  0
   -2.6795    1.2298    3.3336 N   0  0  0  0  0  0  0  0  0  0  0  0
   -2.4327    1.6559    1.9812 C   0  0  2  0  0  0  0  0  0  0  0  0
   -1.0977    1.0705    1.5400 C   0  0  0  0  0  0  0  0  0  0  0  0
   -0.2256    0.7177    2.3313 O   0  0  0  0  0  0  0  0  0  0  0  0
   -2.4239    3.1726    1.8718 C   0  0  0  0  0  0  0  0  0  0  0  0
   -3.4446    1.6657    3.8454 H   0  0  0  0  0  0  0  0  0  0  0  0
   -3.2368    1.2374    1.3661 H   0  0  0  0  0  0  0  0  0  0  0  0
   -1.6248    3.6099    2.4815 H   0  0  0  0  0  0  0  0  0  0  0  0
   -2.2644    3.4949    0.8375 H   0  0  0  0  0  0  0  0  0  0  0  0
   -3.3741    3.5939    2.2175 H   0  0  0  0  0  0  0  0  0  0  0  0
   -0.9750    1.0274    0.1566 N   0  0  0  0  0  0  0  0  0  0  0  0
    0.2023    0.5266   -0.5070 C   0  0  2  0  0  0  0  0  0  0  0  0
    0.1744   -0.9931   -0.3890 C   0  0  0  0  0  0  0  0  0  0  0  0
   -0.3271   -1.7215   -1.2428 O   0  0  0  0  0  0  0  0  0  0  0  0
    1.4928    1.0850    0.1036 C   0  0  0  0  0  0  0  0  0  0  0  0
    1.6505    2.5689   -0.1216 C   0  0  0  0  0  0  0  0  0  0  0  0
    2.1362    3.0419   -1.3407 C   0  0  0  0  0  0  0  0  0  0  0  0
    1.3112    3.4676    0.8898 C   0  0  0  0  0  0  0  0  0  0  0  0
    2.2824    4.4134   -1.5484 C   0  0  0  0  0  0  0  0  0  0  0  0
    1.4575    4.8391    0.6821 C   0  0  0  0  0  0  0  0  0  0  0  0
    1.9431    5.3120   -0.5370 C   0  0  0  0  0  0  0  0  0  0  0  0
    2.0871    6.6502   -0.7395 O   0  0  0  0  0  0  0  0  0  0  0  0
   -1.7582    1.3241   -0.4207 H   0  0  0  0  0  0  0  0  0  0  0  0
    0.1085    0.8063   -1.5629 H   0  0  0  0  0  0  0  0  0  0  0  0
    2.3656    0.5551   -0.3015 H   0  0  0  0  0  0  0  0  0  0  0  0
    1.5182    0.8968    1.1851 H   0  0  0  0  0  0  0  0  0  0  0  0
    2.4029    2.3490   -2.1342 H   0  0  0  0  0  0  0  0  0  0  0  0
    0.9319    3.1081    1.8430 H   0  0  0  0  0  0  0  0  0  0  0  0
    2.6615    4.7756   -2.5003 H   0  0  0  0  0  0  0  0  0  0  0  0
    1.1918    5.5339    1.4739 H   0  0  0  0  0  0  0  0  0  0  0  0
    1.8114    7.1415    0.0508 H   0  0  0  0  0  0  0  0  0  0  0  0
    0.8196   -1.4372    0.7568 N   0  0  0  0  0  0  0  0  0  0  0  0
    0.9575   -2.8346    1.0989 C   0  0  2  0  0  0  0  0  0  0  0  0
   -0.4167   -3.4826    0.9925 C   0  0  0  0  0  0  0  0  0  0  0  0
   -1.4658   -2.8461    1.0647 O   0  0  0  0  0  0  0  0  0  0  0  0
    1.5336   -3.0082    2.4955 C   0  0  0  0  0  0  0  0  0  0  0  0
    1.2149   -0.7452    1.3867 H   0  0  0  0  0  0  0  0  0  0  0  0
    1.6293   -3.2774    0.3555 H   0  0  0  0  0  0  0  0  0  0  0  0
    0.8743   -2.5706    3.2540 H   0  0  0  0  0  0  0  0  0  0  0  0
    1.6641   -4.0670    2.7422 H   0  0  0  0  0  0  0  0  0  0  0  0
    2.5086   -2.5160    2.5789 H   0  0  0  0  0  0  0  0  0  0  0  0
   -0.3342   -4.8607    0.8506 N   0  0  0  0  0  0  0  0  0  0  0  0
   -1.5014   -5.7044    0.7418 C   0  0  0  0  0  0  0  0  0  0  0  0
    0.5779   -5.3022    0.7810 H   0  0  0  0  0  0  0  0  0  0  0  0
   -1.7896   -6.0632    1.7409 H   0  0  0  0  0  0  0  0  0  0  0  0
   -2.3308   -5.1283    0.3058 H   0  0  0  0  0  0  0  0  0  0  0  0
   -1.2729   -6.5646    0.0953 H   0  0  0  0  0  0  0  0  0  0  0  0
 23 25  2  0  0  0  0
 22 23  1  0  0  0  0
 24 26  1  0  0  0  0
 22 24  2  0  0  0  0
 25 27  1  0  0  0  0
 26 27  2  0  0  0  0
 21 22  1  0  0  0  0
 27 28  1  0  0  0  0
  1  3  1  0  0  0  0
  1  7  1  0  0  0  0
  1  2  2  0  0  0  0
 39 40  1  0  0  0  0
 40 48  1  0  0  0  0
 40 41  2  0  0  0  0
  8  9  1  0  0  0  0
  9 17  1  0  0  0  0
  9 10  2  0  0  0  0
 18 19  1  0  0  0  0
 19 38  1  0  0  0  0
 19 20  2  0  0  0  0
 39 42  1  0  0  0  0
  8 11  1  0  0  0  0
 48 49  1  0  0  0  0
 18 21  1  0  0  0  0
 38 39  1  0  0  0  0
  7  8  1  0  0  0  0
 17 18  1  0  0  0  0
 23 33  1  0  0  0  0
 24 34  1  0  0  0  0
 25 35  1  0  0  0  0
 26 36  1  0  0  0  0
  3  4  1  0  0  0  0
  3  5  1  0  0  0  0
  3  6  1  0  0  0  0
 42 45  1  0  0  0  0
 42 46  1  0  0  0  0
 42 47  1  0  0  0  0
 11 14  1  0  0  0  0
 11 15  1  0  0  0  0
 11 16  1  0  0  0  0
 49 51  1  0  0  0  0
 49 52  1  0  0  0  0
 49 53  1  0  0  0  0
 21 31  1  0  0  0  0
 21 32  1  0  0  0  0
 39 44  1  0  0  0  0
  8 13  1  0  0  0  0
 18 30  1  0  0  0  0
 48 50  1  0  0  0  0
  7 12  1  0  0  0  0
 38 43  1  0  0  0  0
 17 29  1  0  0  0  0
 28 37  1  0  0  0  0
M  END
$$$$

  -OEChem-05262214473D

 53 53  0     1  0  0  0  0  0999 V2000
   -1.9298    0.2574    3.9747 C   0  0  0  0  0  0  0  0  0  0  0  0
   -0.9825   -0.3573    3.4990 O   0  0  0  0  0  0  0  0  0  0  0  0
   -2.3617   -0.0250    5.3754 C   0  0  0  0  0  0  0  0  0  0  0  0
   -3.1214   -0.8213    5.4288 H   0  0  0  0  0  0  0  0  0  0  0  0
   -1.5305   -0.3726    6.0097 H   0  0  0  0  0  0  0  0  0  0  0  0
   -2.7997    0.8299    5.9150 H   0  0  0  0  0  0  0  0  0  0  0  0
   -2.6795    1.2298    3.3336 N   0  0  0  0  0  0  0  0  0  0  0  0
   -2.4327    1.6559    1.9812 C   0  0  2  0  0  0  0  0  0  0  0  0
   -1.0977    1.0705    1.5400 C   0  0  0  0  0  0  0  0  0  0  0  0
   -0.2256    0.7177    2.3313 O   0  0  0  0  0  0  0  0  0  0  0  0
   -2.4239    3.1726    1.8718 C   0  0  0  0  0  0  0  0  0  0  0  0
   -3.4446    1.6657    3.8454 H   0  0  0  0  0  0  0  0  0  0  0  0
   -3.2368    1.2374    1.3661 H   0  0  0  0  0  0  0  0  0  0  0  0
   -1.6248    3.6099    2.4815 H   0  0  0  0  0  0  0  0  0  0  0  0
   -2.2644    3.4949    0.8375 H   0  0  0  0  0  0  0  0  0  0  0  0
   -3.3741    3.5939    2.2175 H   0  0  0  0  0  0  0  0  0  0  0  0
   -0.9750    1.0274    0.1566 N   0  0  0  0  0  0  0  0  0  0  0  0
    0.2023    0.5266   -0.5070 C   0  0  2  0  0  0  0  0  0  0  0  0
    0.1744   -0.9931   -0.3890 C   0  0  0  0  0  0  0  0  0  0  0  0
   -0.0755   -1.7334   -1.3379 O   0  0  0  0  0  0  0  0  0  0  0  0
    1.4928    1.0850    0.1036 C   0  0  0  0  0  0  0  0  0  0  0  0
    1.6505    2.5689   -0.1216 C   0  0  0  0  0  0  0  0  0  0  0  0
    2.1362    3.0419   -1.3407 C   0  0  0  0  0  0  0  0  0  0  0  0
    1.3112    3.4676    0.8898 C   0  0  0  0  0  0  0  0  0  0  0  0
    2.2824    4.4134   -1.5484 C   0  0  0  0  0  0  0  0  0  0  0  0
    1.4575    4.8391    0.6821 C   0  0  0  0  0  0  0  0  0  0  0  0
    1.9431    5.3120   -0.5370 C   0  0  0  0  0  0  0  0  0  0  0  0
    2.0871    6.6502   -0.7395 O   0  0  0  0  0  0  0  0  0  0  0  0
   -1.7582    1.3241   -0.4207 H   0  0  0  0  0  0  0  0  0  0  0  0
    0.1085    0.8063   -1.5629 H   0  0  0  0  0  0  0  0  0  0  0  0
    2.3656    0.5551   -0.3015 H   0  0  0  0  0  0  0  0  0  0  0  0
    1.5182    0.8968    1.1851 H   0  0  0  0  0  0  0  0  0  0  0  0
    2.4029    2.3490   -2.1342 H   0  0  0  0  0  0  0  0  0  0  0  0
    0.9319    3.1081    1.8430 H   0  0  0  0  0  0  0  0  0  0  0  0
    2.6615    4.7756   -2.5003 H   0  0  0  0  0  0  0  0  0  0  0  0
    1.1918    5.5339    1.4739 H   0  0  0  0  0  0  0  0  0  0  0  0
    1.8114    7.1415    0.0508 H   0  0  0  0  0  0  0  0  0  0  0  0
    0.5106   -1.4214    0.8877 N   0  0  0  0  0  0  0  0  0  0  0  0
    0.5826   -2.8149    1.2640 C   0  0  2  0  0  0  0  0  0  0  0  0
   -0.7047   -3.4914    0.8115 C   0  0  0  0  0  0  0  0  0  0  0  0
   -1.7491   -2.8765    0.6060 O   0  0  0  0  0  0  0  0  0  0  0  0
    0.7821   -2.9736    2.7633 C   0  0  0  0  0  0  0  0  0  0  0  0
    0.7164   -0.7200    1.5931 H   0  0  0  0  0  0  0  0  0  0  0  0
    1.4319   -3.2453    0.7223 H   0  0  0  0  0  0  0  0  0  0  0  0
   -0.0590   -2.5482    3.3227 H   0  0  0  0  0  0  0  0  0  0  0  0
    0.8650   -4.0290    3.0430 H   0  0  0  0  0  0  0  0  0  0  0  0
    1.6928   -2.4612    3.0917 H   0  0  0  0  0  0  0  0  0  0  0  0
   -0.5617   -4.8678    0.7058 N   0  0  0  0  0  0  0  0  0  0  0  0
   -1.6446   -5.7357    0.3058 C   0  0  0  0  0  0  0  0  0  0  0  0
    0.3459   -5.2905    0.8771 H   0  0  0  0  0  0  0  0  0  0  0  0
   -2.1739   -6.0982    1.1994 H   0  0  0  0  0  0  0  0  0  0  0  0
   -2.3445   -5.1776   -0.3335 H   0  0  0  0  0  0  0  0  0  0  0  0
   -1.2404   -6.5922   -0.2535 H   0  0  0  0  0  0  0  0  0  0  0  0
 23 25  2  0  0  0  0
 22 23  1  0  0  0  0
 24 26  1  0  0  0  0
 22 24  2  0  0  0  0
 25 27  1  0  0  0  0
 26 27  2  0  0  0  0
 21 22  1  0  0  0  0
 27 28  1  0  0  0  0
  1  3  1  0  0  0  0
  1  7  1  0  0  0  0
  1  2  2  0  0  0  0
 39 40  1  0  0  0  0
 40 48  1  0  0  0  0
 40 41  2  0  0  0  0
  8  9  1  0  0  0  0
  9 17  1  0  0  0  0
  9 10  2  0  0  0  0
 18 19  1  0  0  0  0
 19 38  1  0  0  0  0
 19 20  2  0  0  0  0
 39 42  1  0  0  0  0
  8 11  1  0  0  0  0
 48 49  1  0  0  0  0
 18 21  1  0  0  0  0
 38 39  1  0  0  0  0
  7  8  1  0  0  0  0
 17 18  1  0  0  0  0
 23 33  1  0  0  0  0
 24 34  1  0  0  0  0
 25 35  1  0  0  0  0
 26 36  1  0  0  0  0
  3  4  1  0  0  0  0
  3  5  1  0  0  0  0
  3  6  1  0  0  0  0
 42 45  1  0  0  0  0
 42 46  1  0  0  0  0
 42 47  1  0  0  0  0
 11 14  1  0  0  0  0
 11 15  1  0  0  0  0
 11 16  1  0  0  0  0
 49 51  1  0  0  0  0
 49 52  1  0  0  0  0
 49 53  1  0  0  0  0
 21 31  1  0  0  0  0
 21 32  1  0  0  0  0
 39 44  1  0  0  0  0
  8 13  1  0  0  0  0
 18 30  1  0  0  0  0
 48 50  1  0  0  0  0
  7 12  1  0  0  0  0
 38 43  1  0  0  0  0
 17 29  1  0  0  0  0
 28 37  1  0  0  0  0
M  END
$$$$

  -OEChem-05262214473D

 53 53  0     1  0  0  0  0  0999 V2000
   -1.9298    0.2574    3.9747 C   0  0  0  0  0  0  0  0  0  0  0  0
   -0.9825   -0.3573    3.4990 O   0  0  0  0  0  0  0  0  0  0  0  0
   -2.3617   -0.0250    5.3754 C   0  0  0  0  0  0  0  0  0  0  0  0
   -3.1214   -0.8213    5.4288 H   0  0  0  0  0  0  0  0  0  0  0  0
   -1.5305   -0.3726    6.0097 H   0  0  0  0  0  0  0  0  0  0  0  0
   -2.7997    0.8299    5.9150 H   0  0  0  0  0  0  0  0  0  0  0  0
   -2.6795    1.2298    3.3336 N   0  0  0  0  0  0  0  0  0  0  0  0
   -2.4327    1.6559    1.9812 C   0  0  2  0  0  0  0  0  0  0  0  0
   -1.0977    1.0705    1.5400 C   0  0  0  0  0  0  0  0  0  0  0  0
   -0.2256    0.7177    2.3313 O   0  0  0  0  0  0  0  0  0  0  0  0
   -2.4239    3.1726    1.8718 C   0  0  0  0  0  0  0  0  0  0  0  0
   -3.4446    1.6657    3.8454 H   0  0  0  0  0  0  0  0  0  0  0  0
   -3.2368    1.2374    1.3661 H   0  0  0  0  0  0  0  0  0  0  0  0
   -1.6248    3.6099    2.4815 H   0  0  0  0  0  0  0  0  0  0  0  0
   -2.2644    3.4949    0.8375 H   0  0  0  0  0  0  0  0  0  0  0  0
   -3.3741    3.5939    2.2175 H   0  0  0  0  0  0  0  0  0  0  0  0
   -0.9750    1.0274    0.1566 N   0  0  0  0  0  0  0  0  0  0  0  0
    0.2023    0.5266   -0.5070 C   0  0  2  0  0  0  0  0  0  0  0  0
    0.1744   -0.9931   -0.3890 C   0  0  0  0  0  0  0  0  0  0  0  0
    0.1922   -1.7404   -1.3648 O   0  0  0  0  0  0  0  0  0  0  0  0
    1.4928    1.0850    0.1036 C   0  0  0  0  0  0  0  0  0  0  0  0
    1.6505    2.5689   -0.1216 C   0  0  0  0  0  0  0  0  0  0  0  0
    2.1362    3.0419   -1.3407 C   0  0  0  0  0  0  0  0  0  0  0  0
    1.3112    3.4676    0.8898 C   0  0  0  0  0  0  0  0  0  0  0  0
    2.2824    4.4134   -1.5484 C   0  0  0  0  0  0  0  0  0  0  0  0
    1.4575    4.8391    0.6821 C   0  0  0  0  0  0  0  0  0  0  0  0
    1.9431    5.3120   -0.5370 C   0  0  0  0  0  0  0  0  0  0  0  0
    2.0871    6.6502   -0.7395 O   0  0  0  0  0  0  0  0  0  0  0  0
   -1.7582    1.3241   -0.4207 H   0  0  0  0  0  0  0  0  0  0  0  0
    0.1085    0.8063   -1.5629 H   0  0  0  0  0  0  0  0  0  0  0  0
    2.3656    0.5551   -0.3015 H   0  0  0  0  0  0  0  0  0  0  0  0
    1.5182    0.8968    1.1851 H   0  0  0  0  0  0  0  0  0  0  0  0
    2.4029    2.3490   -2.1342 H   0  0  0  0  0  0  0  0  0  0  0  0
    0.9319    3.1081    1.8430 H   0  0  0  0  0  0  0  0  0  0  0  0
    2.6615    4.7756   -2.5003 H   0  0  0  0  0  0  0  0  0  0  0  0
    1.1918    5.5339    1.4739 H   0  0  0  0  0  0  0  0  0  0  0  0
    1.8114    7.1415    0.0508 H   0  0  0  0  0  0  0  0  0  0  0  0
    0.1780   -1.4116    0.9343 N   0  0  0  0  0  0  0  0  0  0  0  0
    0.1775   -2.8026    1.3267 C   0  0  2  0  0  0  0  0  0  0  0  0
   -0.9361   -3.5065    0.5624 C   0  0  0  0  0  0  0  0  0  0  0  0
   -1.9038   -2.9138    0.0900 O   0  0  0  0  0  0  0  0  0  0  0  0
   -0.0136   -2.9540    2.8278 C   0  0  0  0  0  0  0  0  0  0  0  0
    0.1811   -0.7048    1.6637 H   0  0  0  0  0  0  0  0  0  0  0  0
    1.1460   -3.2165    1.0256 H   0  0  0  0  0  0  0  0  0  0  0  0
   -0.9787   -2.5449    3.1482 H   0  0  0  0  0  0  0  0  0  0  0  0
    0.0148   -4.0069    3.1272 H   0  0  0  0  0  0  0  0  0  0  0  0
    0.7714   -2.4222    3.3762 H   0  0  0  0  0  0  0  0  0  0  0  0
   -0.7440   -4.8798    0.5073 N   0  0  0  0  0  0  0  0  0  0  0  0
   -1.6699   -5.7708   -0.1521 C   0  0  0  0  0  0  0  0  0  0  0  0
    0.0967   -5.2834    0.9101 H   0  0  0  0  0  0  0  0  0  0  0  0
   -2.4047   -6.1423    0.5773 H   0  0  0  0  0  0  0  0  0  0  0  0
   -2.1918   -5.2286   -0.9544 H   0  0  0  0  0  0  0  0  0  0  0  0
   -1.1185   -6.6200   -0.5819 H   0  0  0  0  0  0  0  0  0  0  0  0
 23 25  2  0  0  0  0
 22 23  1  0  0  0  0
 24 26  1  0  0  0  0
 22 24  2  0  0  0  0
 25 27  1  0  0  0  0
 26 27  2  0  0  0  0
 21 22  1  0  0  0  0
 27 28  1  0  0  0  0
  1  3  1  0  0  0  0
  1  7  1  0  0  0  0
  1  2  2  0  0  0  0
 39 40  1  0  0  0  0
 40 48  1  0  0  0  0
 40 41  2  0  0  0  0
  8  9  1  0  0  0  0
  9 17  1  0  0  0  0
  9 10  2  0  0  0  0
 18 19  1  0  0  0  0
 19 38  1  0  0  0  0
 19 20  2  0  0  0  0
 39 42  1  0  0  0  0
  8 11  1  0  0  0  0
 48 49  1  0  0  0  0
 18 21  1  0  0  0  0
 38 39  1  0  0  0  0
  7  8  1  0  0  0  0
 17 18  1  0  0  0  0
 23 33  1  0  0  0  0
 24 34  1  0  0  0  0
 25 35  1  0  0  0  0
 26 36  1  0  0  0  0
  3  4  1  0  0  0  0
  3  5  1  0  0  0  0
  3  6  1  0  0  0  0
 42 45  1  0  0  0  0
 42 46  1  0  0  0  0
 42 47  1  0  0  0  0
 11 14  1  0  0  0  0
 11 15  1  0  0  0  0
 11 16  1  0  0  0  0
 49 51  1  0  0  0  0
 49 52  1  0  0  0  0
 49 53  1  0  0  0  0
 21 31  1  0  0  0  0
 21 32  1  0  0  0  0
 39 44  1  0  0  0  0
  8 13  1  0  0  0  0
 18 30  1  0  0  0  0
 48 50  1  0  0  0  0
  7 12  1  0  0  0  0
 38 43  1  0  0  0  0
 17 29  1  0  0  0  0
 28 37  1  0  0  0  0
M  END
$$$$

  -OEChem-05262214473D

 53 53  0     1  0  0  0  0  0999 V2000
   -1.9298    0.2574    3.9747 C   0  0  0  0  0  0  0  0  0  0  0  0
   -0.9825   -0.3573    3.4990 O   0  0  0  0  0  0  0  0  0  0  0  0
   -2.3617   -0.0250    5.3754 C   0  0  0  0  0  0  0  0  0  0  0  0
   -3.1214   -0.8213    5.4288 H   0  0  0  0  0  0  0  0  0  0  0  0
   -1.5305   -0.3726    6.0097 H   0  0  0  0  0  0  0  0  0  0  0  0
   -2.7997    0.8299    5.9150 H   0  0  0  0  0  0  0  0  0  0  0  0
   -2.6795    1.2298    3.3336 N   0  0  0  0  0  0  0  0  0  0  0  0
   -2.4327    1.6559    1.9812 C   0  0  2  0  0  0  0  0  0  0  0  0
   -1.0977    1.0705    1.5400 C   0  0  0  0  0  0  0  0  0  0  0  0
   -0.2256    0.7177    2.3313 O   0  0  0  0  0  0  0  0  0  0  0  0
   -2.4239    3.1726    1.8718 C   0  0  0  0  0  0  0  0  0  0  0  0
   -3.4446    1.6657    3.8454 H   0  0  0  0  0  0  0  0  0  0  0  0
   -3.2368    1.2374    1.3661 H   0  0  0  0  0  0  0  0  0  0  0  0
   -1.6248    3.6099    2.4815 H   0  0  0  0  0  0  0  0  0  0  0  0
   -2.2644    3.4949    0.8375 H   0  0  0  0  0  0  0  0  0  0  0  0
   -3.3741    3.5939    2.2175 H   0  0  0  0  0  0  0  0  0  0  0  0
   -0.9750    1.0274    0.1566 N   0  0  0  0  0  0  0  0  0  0  0  0
    0.2023    0.5266   -0.5070 C   0  0  2  0  0  0  0  0  0  0  0  0
    0.1744   -0.9931   -0.3890 C   0  0  0  0  0  0  0  0  0  0  0  0
    0.4579   -1.7419   -1.3217 O   0  0  0  0  0  0  0  0  0  0  0  0
    1.4928    1.0850    0.1036 C   0  0  0  0  0  0  0  0  0  0  0  0
    1.6505    2.5689   -0.1216 C   0  0  0  0  0  0  0  0  0  0  0  0
    2.1362    3.0419   -1.3407 C   0  0  0  0  0  0  0  0  0  0  0  0
    1.3112    3.4676    0.8898 C   0  0  0  0  0  0  0  0  0  0  0  0
    2.2824    4.4134   -1.5484 C   0  0  0  0  0  0  0  0  0  0  0  0
    1.4575    4.8391    0.6821 C   0  0  0  0  0  0  0  0  0  0  0  0
    1.9431    5.3120   -0.5370 C   0  0  0  0  0  0  0  0  0  0  0  0
    2.0871    6.6502   -0.7395 O   0  0  0  0  0  0  0  0  0  0  0  0
   -1.7582    1.3241   -0.4207 H   0  0  0  0  0  0  0  0  0  0  0  0
    0.1085    0.8063   -1.5629 H   0  0  0  0  0  0  0  0  0  0  0  0
    2.3656    0.5551   -0.3015 H   0  0  0  0  0  0  0  0  0  0  0  0
    1.5182    0.8968    1.1851 H   0  0  0  0  0  0  0  0  0  0  0  0
    2.4029    2.3490   -2.1342 H   0  0  0  0  0  0  0  0  0  0  0  0
    0.9319    3.1081    1.8430 H   0  0  0  0  0  0  0  0  0  0  0  0
    2.6615    4.7756   -2.5003 H   0  0  0  0  0  0  0  0  0  0  0  0
    1.1918    5.5339    1.4739 H   0  0  0  0  0  0  0  0  0  0  0  0
    1.8114    7.1415    0.0508 H   0  0  0  0  0  0  0  0  0  0  0  0
   -0.1555   -1.4087    0.8935 N   0  0  0  0  0  0  0  0  0  0  0  0
   -0.2302   -2.7986    1.2827 C   0  0  2  0  0  0  0  0  0  0  0  0
   -1.0950   -3.5269    0.2622 C   0  0  0  0  0  0  0  0  0  0  0  0
   -1.9193   -2.9553   -0.4482 O   0  0  0  0  0  0  0  0  0  0  0  0
   -0.7992   -2.9508    2.6847 C   0  0  0  0  0  0  0  0  0  0  0  0
   -0.3544   -0.7004    1.5938 H   0  0  0  0  0  0  0  0  0  0  0  0
    0.7911   -3.1930    1.2447 H   0  0  0  0  0  0  0  0  0  0  0  0
   -1.8221   -2.5610    2.7424 H   0  0  0  0  0  0  0  0  0  0  0  0
   -0.8286   -4.0022    2.9891 H   0  0  0  0  0  0  0  0  0  0  0  0
   -0.1928   -2.4017    3.4132 H   0  0  0  0  0  0  0  0  0  0  0  0
   -0.8685   -4.8961    0.2687 N   0  0  0  0  0  0  0  0  0  0  0  0
   -1.5755   -5.8073   -0.6008 C   0  0  0  0  0  0  0  0  0  0  0  0
   -0.1526   -5.2813    0.8775 H   0  0  0  0  0  0  0  0  0  0  0  0
   -2.4662   -6.1924   -0.0828 H   0  0  0  0  0  0  0  0  0  0  0  0
   -1.8831   -5.2778   -1.5145 H   0  0  0  0  0  0  0  0  0  0  0  0
   -0.9154   -6.6459   -0.8675 H   0  0  0  0  0  0  0  0  0  0  0  0
 23 25  2  0  0  0  0
 22 23  1  0  0  0  0
 24 26  1  0  0  0  0
 22 24  2  0  0  0  0
 25 27  1  0  0  0  0
 26 27  2  0  0  0  0
 21 22  1  0  0  0  0
 27 28  1  0  0  0  0
  1  3  1  0  0  0  0
  1  7  1  0  0  0  0
  1  2  2  0  0  0  0
 39 40  1  0  0  0  0
 40 48  1  0  0  0  0
 40 41  2  0  0  0  0
  8  9  1  0  0  0  0
  9 17  1  0  0  0  0
  9 10  2  0  0  0  0
 18 19  1  0  0  0  0
 19 38  1  0  0  0  0
 19 20  2  0  0  0  0
 39 42  1  0  0  0  0
  8 11  1  0  0  0  0
 48 49  1  0  0  0  0
 18 21  1  0  0  0  0
 38 39  1  0  0  0  0
  7  8  1  0  0  0  0
 17 18  1  0  0  0  0
 23 33  1  0  0  0  0
 24 34  1  0  0  0  0
 25 35  1  0  0  0  0
 26 36  1  0  0  0  0
  3  4  1  0  0  0  0
  3  5  1  0  0  0  0
  3  6  1  0  0  0  0
 42 45  1  0  0  0  0
 42 46  1  0  0  0  0
 42 47  1  0  0  0  0
 11 14  1  0  0  0  0
 11 15  1  0  0  0  0
 11 16  1  0  0  0  0
 49 51  1  0  0  0  0
 49 52  1  0  0  0  0
 49 53  1  0  0  0  0
 21 31  1  0  0  0  0
 21 32  1  0  0  0  0
 39 44  1  0  0  0  0
  8 13  1  0  0  0  0
 18 30  1  0  0  0  0
 48 50  1  0  0  0  0
  7 12  1  0  0  0  0
 38 43  1  0  0  0  0
 17 29  1  0  0  0  0
 28 37  1  0  0  0  0
M  END
$$$$

  -OEChem-05262214473D

 53 53  0     1  0  0  0  0  0999 V2000
   -1.9298    0.2574    3.9747 C   0  0  0  0  0  0  0  0  0  0  0  0
   -0.9825   -0.3573    3.4990 O   0  0  0  0  0  0  0  0  0  0  0  0
   -2.3617   -0.0250    5.3754 C   0  0  0  0  0  0  0  0  0  0  0  0
   -3.1214   -0.8213    5.4288 H   0  0  0  0  0  0  0  0  0  0  0  0
   -1.5305   -0.3726    6.0097 H   0  0  0  0  0  0  0  0  0  0  0  0
   -2.7997    0.8299    5.9150 H   0  0  0  0  0  0  0  0  0  0  0  0
   -2.6795    1.2298    3.3336 N   0  0  0  0  0  0  0  0  0  0  0  0
   -2.4327    1.6559    1.9812 C   0  0  2  0  0  0  0  0  0  0  0  0
   -1.0977    1.0705    1.5400 C   0  0  0  0  0  0  0  0  0  0  0  0
   -0.2256    0.7177    2.3313 O   0  0  0  0  0  0  0  0  0  0  0  0
   -2.4239    3.1726    1.8718 C   0  0  0  0  0  0  0  0  0  0  0  0
   -3.4446    1.6657    3.8454 H   0  0  0  0  0  0  0  0  0  0  0  0
   -3.2368    1.2374    1.3661 H   0  0  0  0  0  0  0  0  0  0  0  0
   -1.6248    3.6099    2.4815 H   0  0  0  0  0  0  0  0  0  0  0  0
   -2.2644    3.4949    0.8375 H   0  0  0  0  0  0  0  0  0  0  0  0
   -3.3741    3.5939    2.2175 H   0  0  0  0  0  0  0  0  0  0  0  0
   -0.9750    1.0274    0.1566 N   0  0  0  0  0  0  0  0  0  0  0  0
    0.2023    0.5266   -0.5070 C   0  0  2  0  0  0  0  0  0  0  0  0
    0.1744   -0.9931   -0.3890 C   0  0  0  0  0  0  0  0  0  0  0  0
    0.7034   -1.7379   -1.2114 O   0  0  0  0  0  0  0  0  0  0  0  0
    1.4928    1.0850    0.1036 C   0  0  0  0  0  0  0  0  0  0  0  0
    1.6505    2.5689   -0.1216 C   0  0  0  0  0  0  0  0  0  0  0  0
    2.1362    3.0419   -1.3407 C   0  0  0  0  0  0  0  0  0  0  0  0
    1.3112    3.4676    0.8898 C   0  0  0  0  0  0  0  0  0  0  0  0
    2.2824    4.4134   -1.5484 C   0  0  0  0  0  0  0  0  0  0  0  0
    1.4575    4.8391    0.6821 C   0  0  0  0  0  0  0  0  0  0  0  0
    1.9431    5.3120   -0.5370 C   0  0  0  0  0  0  0  0  0  0  0  0
    2.0871    6.6502   -0.7395 O   0  0  0  0  0  0  0  0  0  0  0  0
   -1.7582    1.3241   -0.4207 H   0  0  0  0  0  0  0  0  0  0  0  0
    0.1085    0.8063   -1.5629 H   0  0  0  0  0  0  0  0  0  0  0  0
    2.3656    0.5551   -0.3015 H   0  0  0  0  0  0  0  0  0  0  0  0
    1.5182    0.8968    1.1851 H   0  0  0  0  0  0  0  0  0  0  0  0
    2.4029    2.3490   -2.1342 H   0  0  0  0  0  0  0  0  0  0  0  0
    0.9319    3.1081    1.8430 H   0  0  0  0  0  0  0  0  0  0  0  0
    2.6615    4.7756   -2.5003 H   0  0  0  0  0  0  0  0  0  0  0  0
    1.1918    5.5339    1.4739 H   0  0  0  0  0  0  0  0  0  0  0  0
    1.8114    7.1415    0.0508 H   0  0  0  0  0  0  0  0  0  0  0  0
   -0.4671   -1.4128    0.7680 N   0  0  0  0  0  0  0  0  0  0  0  0
   -0.6128   -2.8031    1.1350 C   0  0  2  0  0  0  0  0  0  0  0  0
   -1.1706   -3.5512   -0.0686 C   0  0  0  0  0  0  0  0  0  0  0  0
   -1.7947   -2.9982   -0.9719 O   0  0  0  0  0  0  0  0  0  0  0  0
   -1.5212   -2.9640    2.3439 C   0  0  0  0  0  0  0  0  0  0  0  0
   -0.8537   -0.7072    1.3881 H   0  0  0  0  0  0  0  0  0  0  0  0
    0.3912   -3.1764    1.3645 H   0  0  0  0  0  0  0  0  0  0  0  0
   -2.5317   -2.5953    2.1328 H   0  0  0  0  0  0  0  0  0  0  0  0
   -1.6077   -4.0152    2.6380 H   0  0  0  0  0  0  0  0  0  0  0  0
   -1.1341   -2.4011    3.2000 H   0  0  0  0  0  0  0  0  0  0  0  0
   -0.9270   -4.9154    0.0060 N   0  0  0  0  0  0  0  0  0  0  0  0
   -1.3678   -5.8429   -1.0096 C   0  0  0  0  0  0  0  0  0  0  0  0
   -0.3850   -5.2845    0.7818 H   0  0  0  0  0  0  0  0  0  0  0  0
   -2.3544   -6.2452   -0.7361 H   0  0  0  0  0  0  0  0  0  0  0  0
   -1.4394   -5.3217   -1.9757 H   0  0  0  0  0  0  0  0  0  0  0  0
   -0.6451   -6.6682   -1.0909 H   0  0  0  0  0  0  0  0  0  0  0  0
 23 25  2  0  0  0  0
 22 23  1  0  0  0  0
 24 26  1  0  0  0  0
 22 24  2  0  0  0  0
 25 27  1  0  0  0  0
 26 27  2  0  0  0  0
 21 22  1  0  0  0  0
 27 28  1  0  0  0  0
  1  3  1  0  0  0  0
  1  7  1  0  0  0  0
  1  2  2  0  0  0  0
 39 40  1  0  0  0  0
 40 48  1  0  0  0  0
 40 41  2  0  0  0  0
  8  9  1  0  0  0  0
  9 17  1  0  0  0  0
  9 10  2  0  0  0  0
 18 19  1  0  0  0  0
 19 38  1  0  0  0  0
 19 20  2  0  0  0  0
 39 42  1  0  0  0  0
  8 11  1  0  0  0  0
 48 49  1  0  0  0  0
 18 21  1  0  0  0  0
 38 39  1  0  0  0  0
  7  8  1  0  0  0  0
 17 18  1  0  0  0  0
 23 33  1  0  0  0  0
 24 34  1  0  0  0  0
 25 35  1  0  0  0  0
 26 36  1  0  0  0  0
  3  4  1  0  0  0  0
  3  5  1  0  0  0  0
  3  6  1  0  0  0  0
 42 45  1  0  0  0  0
 42 46  1  0  0  0  0
 42 47  1  0  0  0  0
 11 14  1  0  0  0  0
 11 15  1  0  0  0  0
 11 16  1  0  0  0  0
 49 51  1  0  0  0  0
 49 52  1  0  0  0  0
 49 53  1  0  0  0  0
 21 31  1  0  0  0  0
 21 32  1  0  0  0  0
 39 44  1  0  0  0  0
  8 13  1  0  0  0  0
 18 30  1  0  0  0  0
 48 50  1  0  0  0  0
  7 12  1  0  0  0  0
 38 43  1  0  0  0  0
 17 29  1  0  0  0  0
 28 37  1  0  0  0  0
M  END
$$$$

  -OEChem-05262214473D

 53 53  0     1  0  0  0  0  0999 V2000
   -1.9298    0.2574    3.9747 C   0  0  0  0  0  0  0  0  0  0  0  0
   -0.9825   -0.3573    3.4990 O   0  0  0  0  0  0  0  0  0  0  0  0
   -2.3617   -0.0250    5.3754 C   0  0  0  0  0  0  0  0  0  0  0  0
   -3.1214   -0.8213    5.4288 H   0  0  0  0  0  0  0  0  0  0  0  0
   -1.5305   -0.3726    6.0097 H   0  0  0  0  0  0  0  0  0  0  0  0
   -2.7997    0.8299    5.9150 H   0  0  0  0  0  0  0  0  0  0  0  0
   -2.6795    1.2298    3.3336 N   0  0  0  0  0  0  0  0  0  0  0  0
   -2.4327    1.6559    1.9812 C   0  0  2  0  0  0  0  0  0  0  0  0
   -1.0977    1.0705    1.5400 C   0  0  0  0  0  0  0  0  0  0  0  0
   -0.2256    0.7177    2.3313 O   0  0  0  0  0  0  0  0  0  0  0  0
   -2.4239    3.1726    1.8718 C   0  0  0  0  0  0  0  0  0  0  0  0
   -3.4446    1.6657    3.8454 H   0  0  0  0  0  0  0  0  0  0  0  0
   -3.2368    1.2374    1.3661 H   0  0  0  0  0  0  0  0  0  0  0  0
   -1.6248    3.6099    2.4815 H   0  0  0  0  0  0  0  0  0  0  0  0
   -2.2644    3.4949    0.8375 H   0  0  0  0  0  0  0  0  0  0  0  0
   -3.3741    3.5939    2.2175 H   0  0  0  0  0  0  0  0  0  0  0  0
   -0.9750    1.0274    0.1566 N   0  0  0  0  0  0  0  0  0  0  0  0
    0.2023    0.5266   -0.5070 C   0  0  2  0  0  0  0  0  0  0  0  0
    0.1744   -0.9931   -0.3890 C   0  0  0  0  0  0  0  0  0  0  0  0
    0.9121   -1.7285   -1.0417 O   0  0  0  0  0  0  0  0  0  0  0  0
    1.4928    1.0850    0.1036 C   0  0  0  0  0  0  0  0  0  0  0  0
    1.6505    2.5689   -0.1216 C   0  0  0  0  0  0  0  0  0  0  0  0
    2.1362    3.0419   -1.3407 C   0  0  0  0  0  0  0  0  0  0  0  0
    1.3112    3.4676    0.8898 C   0  0  0  0  0  0  0  0  0  0  0  0
    2.2824    4.4134   -1.5484 C   0  0  0  0  0  0  0  0  0  0  0  0
    1.4575    4.8391    0.6821 C   0  0  0  0  0  0  0  0  0  0  0  0
    1.9431    5.3120   -0.5370 C   0  0  0  0  0  0  0  0  0  0  0  0
    2.0871    6.6502   -0.7395 O   0  0  0  0  0  0  0  0  0  0  0  0
   -1.7582    1.3241   -0.4207 H   0  0  0  0  0  0  0  0  0  0  0  0
    0.1085    0.8063   -1.5629 H   0  0  0  0  0  0  0  0  0  0  0  0
    2.3656    0.5551   -0.3015 H   0  0  0  0  0  0  0  0  0  0  0  0
    1.5182    0.8968    1.1851 H   0  0  0  0  0  0  0  0  0  0  0  0
    2.4029    2.3490   -2.1342 H   0  0  0  0  0  0  0  0  0  0  0  0
    0.9319    3.1081    1.8430 H   0  0  0  0  0  0  0  0  0  0  0  0
    2.6615    4.7756   -2.5003 H   0  0  0  0  0  0  0  0  0  0  0  0
    1.1918    5.5339    1.4739 H   0  0  0  0  0  0  0  0  0  0  0  0
    1.8114    7.1415    0.0508 H   0  0  0  0  0  0  0  0  0  0  0  0
   -0.7357   -1.4235    0.5664 N   0  0  0  0  0  0  0  0  0  0  0  0
   -0.9441   -2.8157    0.8936 C   0  0  2  0  0  0  0  0  0  0  0  0
   -1.1578   -3.5777   -0.4076 C   0  0  0  0  0  0  0  0  0  0  0  0
   -1.5383   -3.0397   -1.4453 O   0  0  0  0  0  0  0  0  0  0  0  0
   -2.1304   -2.9929    1.8284 C   0  0  0  0  0  0  0  0  0  0  0  0
   -1.2829   -0.7248    1.0606 H   0  0  0  0  0  0  0  0  0  0  0  0
   -0.0263   -3.1678    1.3771 H   0  0  0  0  0  0  0  0  0  0  0  0
   -3.0592   -2.6456    1.3611 H   0  0  0  0  0  0  0  0  0  0  0  0
   -2.2695   -4.0450    2.0980 H   0  0  0  0  0  0  0  0  0  0  0  0
   -1.9884   -2.4203    2.7513 H   0  0  0  0  0  0  0  0  0  0  0  0
   -0.9152   -4.9365   -0.2626 N   0  0  0  0  0  0  0  0  0  0  0  0
   -1.0610   -5.8750   -1.3507 C   0  0  0  0  0  0  0  0  0  0  0  0
   -0.5848   -5.2927    0.6294 H   0  0  0  0  0  0  0  0  0  0  0  0
   -2.0767   -6.2970   -1.3381 H   0  0  0  0  0  0  0  0  0  0  0  0
   -0.8910   -5.3574   -2.3064 H   0  0  0  0  0  0  0  0  0  0  0  0
   -0.3259   -6.6853   -1.2368 H   0  0  0  0  0  0  0  0  0  0  0  0
 23 25  2  0  0  0  0
 22 23  1  0  0  0  0
 24 26  1  0  0  0  0
 22 24  2  0  0  0  0
 25 27  1  0  0  0  0
 26 27  2  0  0  0  0
 21 22  1  0  0  0  0
 27 28  1  0  0  0  0
  1  3  1  0  0  0  0
  1  7  1  0  0  0  0
  1  2  2  0  0  0  0
 39 40  1  0  0  0  0
 40 48  1  0  0  0  0
 40 41  2  0  0  0  0
  8  9  1  0  0  0  0
  9 17  1  0  0  0  0
  9 10  2  0  0  0  0
 18 19  1  0  0  0  0
 19 38  1  0  0  0  0
 19 20  2  0  0  0  0
 39 42  1  0  0  0  0
  8 11  1  0  0  0  0
 48 49  1  0  0  0  0
 18 21  1  0  0  0  0
 38 39  1  0  0  0  0
  7  8  1  0  0  0  0
 17 18  1  0  0  0  0
 23 33  1  0  0  0  0
 24 34  1  0  0  0  0
 25 35  1  0  0  0  0
 26 36  1  0  0  0  0
  3  4  1  0  0  0  0
  3  5  1  0  0  0  0
  3  6  1  0  0  0  0
 42 45  1  0  0  0  0
 42 46  1  0  0  0  0
 42 47  1  0  0  0  0
 11 14  1  0  0  0  0
 11 15  1  0  0  0  0
 11 16  1  0  0  0  0
 49 51  1  0  0  0  0
 49 52  1  0  0  0  0
 49 53  1  0  0  0  0
 21 31  1  0  0  0  0
 21 32  1  0  0  0  0
 39 44  1  0  0  0  0
  8 13  1  0  0  0  0
 18 30  1  0  0  0  0
 48 50  1  0  0  0  0
  7 12  1  0  0  0  0
 38 43  1  0  0  0  0
 17 29  1  0  0  0  0
 28 37  1  0  0  0  0
M  END
$$$$

  -OEChem-05262214473D

 53 53  0     1  0  0  0  0  0999 V2000
   -1.9298    0.2574    3.9747 C   0  0  0  0  0  0  0  0  0  0  0  0
   -0.9825   -0.3573    3.4990 O   0  0  0  0  0  0  0  0  0  0  0  0
   -2.3617   -0.0250    5.3754 C   0  0  0  0  0  0  0  0  0  0  0  0
   -3.1214   -0.8213    5.4288 H   0  0  0  0  0  0  0  0  0  0  0  0
   -1.5305   -0.3726    6.0097 H   0  0  0  0  0  0  0  0  0  0  0  0
   -2.7997    0.8299    5.9150 H   0  0  0  0  0  0  0  0  0  0  0  0
   -2.6795    1.2298    3.3336 N   0  0  0  0  0  0  0  0  0  0  0  0
   -2.4327    1.6559    1.9812 C   0  0  2  0  0  0  0  0  0  0  0  0
   -1.0977    1.0705    1.5400 C   0  0  0  0  0  0  0  0  0  0  0  0
   -0.2256    0.7177    2.3313 O   0  0  0  0  0  0  0  0  0  0  0  0
   -2.4239    3.1726    1.8718 C   0  0  0  0  0  0  0  0  0  0  0  0
   -3.4446    1.6657    3.8454 H   0  0  0  0  0  0  0  0  0  0  0  0
   -3.2368    1.2374    1.3661 H   0  0  0  0  0  0  0  0  0  0  0  0
   -1.6248    3.6099    2.4815 H   0  0  0  0  0  0  0  0  0  0  0  0
   -2.2644    3.4949    0.8375 H   0  0  0  0  0  0  0  0  0  0  0  0
   -3.3741    3.5939    2.2175 H   0  0  0  0  0  0  0  0  0  0  0  0
   -0.9750    1.0274    0.1566 N   0  0  0  0  0  0  0  0  0  0  0  0
    0.2023    0.5266   -0.5070 C   0  0  2  0  0  0  0  0  0  0  0  0
    0.1744   -0.9931   -0.3890 C   0  0  0  0  0  0  0  0  0  0  0  0
    1.0697   -1.7145   -0.8239 O   0  0  0  0  0  0  0  0  0  0  0  0
    1.4928    1.0850    0.1036 C   0  0  0  0  0  0  0  0  0  0  0  0
    1.6505    2.5689   -0.1216 C   0  0  0  0  0  0  0  0  0  0  0  0
    2.1362    3.0419   -1.3407 C   0  0  0  0  0  0  0  0  0  0  0  0
    1.3112    3.4676    0.8898 C   0  0  0  0  0  0  0  0  0  0  0  0
    2.2824    4.4134   -1.5484 C   0  0  0  0  0  0  0  0  0  0  0  0
    1.4575    4.8391    0.6821 C   0  0  0  0  0  0  0  0  0  0  0  0
    1.9431    5.3120   -0.5370 C   0  0  0  0  0  0  0  0  0  0  0  0
    2.0871    6.6502   -0.7395 O   0  0  0  0  0  0  0  0  0  0  0  0
   -1.7582    1.3241   -0.4207 H   0  0  0  0  0  0  0  0  0  0  0  0
    0.1085    0.8063   -1.5629 H   0  0  0  0  0  0  0  0  0  0  0  0
    2.3656    0.5551   -0.3015 H   0  0  0  0  0  0  0  0  0  0  0  0
    1.5182    0.8968    1.1851 H   0  0  0  0  0  0  0  0  0  0  0  0
    2.4029    2.3490   -2.1342 H   0  0  0  0  0  0  0  0  0  0  0  0
    0.9319    3.1081    1.8430 H   0  0  0  0  0  0  0  0  0  0  0  0
    2.6615    4.7756   -2.5003 H   0  0  0  0  0  0  0  0  0  0  0  0
    1.1918    5.5339    1.4739 H   0  0  0  0  0  0  0  0  0  0  0  0
    1.8114    7.1415    0.0508 H   0  0  0  0  0  0  0  0  0  0  0  0
   -0.9429   -1.4402    0.3024 N   0  0  0  0  0  0  0  0  0  0  0  0
   -1.2016   -2.8357    0.5750 C   0  0  2  0  0  0  0  0  0  0  0  0
   -1.0575   -3.6047   -0.7317 C   0  0  0  0  0  0  0  0  0  0  0  0
   -1.1676   -3.0768   -1.8363 O   0  0  0  0  0  0  0  0  0  0  0  0
   -2.5853   -3.0354    1.1734 C   0  0  0  0  0  0  0  0  0  0  0  0
   -1.6125   -0.7519    0.6336 H   0  0  0  0  0  0  0  0  0  0  0  0
   -0.4330   -3.1678    1.2815 H   0  0  0  0  0  0  0  0  0  0  0  0
   -3.3686   -2.7083    0.4799 H   0  0  0  0  0  0  0  0  0  0  0  0
   -2.7688   -4.0896    1.4058 H   0  0  0  0  0  0  0  0  0  0  0  0
   -2.6973   -2.4580    2.0975 H   0  0  0  0  0  0  0  0  0  0  0  0
   -0.8342   -4.9579   -0.5190 N   0  0  0  0  0  0  0  0  0  0  0  0
   -0.6760   -5.9014   -1.6010 C   0  0  0  0  0  0  0  0  0  0  0  0
   -0.7383   -5.3053    0.4307 H   0  0  0  0  0  0  0  0  0  0  0  0
   -1.6522   -6.3443   -1.8476 H   0  0  0  0  0  0  0  0  0  0  0  0
   -0.2752   -5.3825   -2.4842 H   0  0  0  0  0  0  0  0  0  0  0  0
    0.0204   -6.6962   -1.2953 H   0  0  0  0  0  0  0  0  0  0  0  0
 23 25  2  0  0  0  0
 22 23  1  0  0  0  0
 24 26  1  0  0  0  0
 22 24  2  0  0  0  0
 25 27  1  0  0  0  0
 26 27  2  0  0  0  0
 21 22  1  0  0  0  0
 27 28  1  0  0  0  0
  1  3  1  0  0  0  0
  1  7  1  0  0  0  0
  1  2  2  0  0  0  0
 39 40  1  0  0  0  0
 40 48  1  0  0  0  0
 40 41  2  0  0  0  0
  8  9  1  0  0  0  0
  9 17  1  0  0  0  0
  9 10  2  0  0  0  0
 18 19  1  0  0  0  0
 19 38  1  0  0  0  0
 19 20  2  0  0  0  0
 39 42  1  0  0  0  0
  8 11  1  0  0  0  0
 48 49  1  0  0  0  0
 18 21  1  0  0  0  0
 38 39  1  0  0  0  0
  7  8  1  0  0  0  0
 17 18  1  0  0  0  0
 23 33  1  0  0  0  0
 24 34  1  0  0  0  0
 25 35  1  0  0  0  0
 26 36  1  0  0  0  0
  3  4  1  0  0  0  0
  3  5  1  0  0  0  0
  3  6  1  0  0  0  0
 42 45  1  0  0  0  0
 42 46  1  0  0  0  0
 42 47  1  0  0  0  0
 11 14  1  0  0  0  0
 11 15  1  0  0  0  0
 11 16  1  0  0  0  0
 49 51  1  0  0  0  0
 49 52  1  0  0  0  0
 49 53  1  0  0  0  0
 21 31  1  0  0  0  0
 21 32  1  0  0  0  0
 39 44  1  0  0  0  0
  8 13  1  0  0  0  0
 18 30  1  0  0  0  0
 48 50  1  0  0  0  0
  7 12  1  0  0  0  0
 38 43  1  0  0  0  0
 17 29  1  0  0  0  0
 28 37  1  0  0  0  0
M  END
$$$$

  -OEChem-05262214473D

 53 53  0     1  0  0  0  0  0999 V2000
   -1.9298    0.2574    3.9747 C   0  0  0  0  0  0  0  0  0  0  0  0
   -0.9825   -0.3573    3.4990 O   0  0  0  0  0  0  0  0  0  0  0  0
   -2.3617   -0.0250    5.3754 C   0  0  0  0  0  0  0  0  0  0  0  0
   -3.1214   -0.8213    5.4288 H   0  0  0  0  0  0  0  0  0  0  0  0
   -1.5305   -0.3726    6.0097 H   0  0  0  0  0  0  0  0  0  0  0  0
   -2.7997    0.8299    5.9150 H   0  0  0  0  0  0  0  0  0  0  0  0
   -2.6795    1.2298    3.3336 N   0  0  0  0  0  0  0  0  0  0  0  0
   -2.4327    1.6559    1.9812 C   0  0  2  0  0  0  0  0  0  0  0  0
   -1.0977    1.0705    1.5400 C   0  0  0  0  0  0  0  0  0  0  0  0
   -0.2256    0.7177    2.3313 O   0  0  0  0  0  0  0  0  0  0  0  0
   -2.4239    3.1726    1.8718 C   0  0  0  0  0  0  0  0  0  0  0  0
   -3.4446    1.6657    3.8454 H   0  0  0  0  0  0  0  0  0  0  0  0
   -3.2368    1.2374    1.3661 H   0  0  0  0  0  0  0  0  0  0  0  0
   -1.6248    3.6099    2.4815 H   0  0  0  0  0  0  0  0  0  0  0  0
   -2.2644    3.4949    0.8375 H   0  0  0  0  0  0  0  0  0  0  0  0
   -3.3741    3.5939    2.2175 H   0  0  0  0  0  0  0  0  0  0  0  0
   -0.9750    1.0274    0.1566 N   0  0  0  0  0  0  0  0  0  0  0  0
    0.2023    0.5266   -0.5070 C   0  0  2  0  0  0  0  0  0  0  0  0
    0.1744   -0.9931   -0.3890 C   0  0  0  0  0  0  0  0  0  0  0  0
    1.1654   -1.6968   -0.5729 O   0  0  0  0  0  0  0  0  0  0  0  0
    1.4928    1.0850    0.1036 C   0  0  0  0  0  0  0  0  0  0  0  0
    1.6505    2.5689   -0.1216 C   0  0  0  0  0  0  0  0  0  0  0  0
    2.1362    3.0419   -1.3407 C   0  0  0  0  0  0  0  0  0  0  0  0
    1.3112    3.4676    0.8898 C   0  0  0  0  0  0  0  0  0  0  0  0
    2.2824    4.4134   -1.5484 C   0  0  0  0  0  0  0  0  0  0  0  0
    1.4575    4.8391    0.6821 C   0  0  0  0  0  0  0  0  0  0  0  0
    1.9431    5.3120   -0.5370 C   0  0  0  0  0  0  0  0  0  0  0  0
    2.0871    6.6502   -0.7395 O   0  0  0  0  0  0  0  0  0  0  0  0
   -1.7582    1.3241   -0.4207 H   0  0  0  0  0  0  0  0  0  0  0  0
    0.1085    0.8063   -1.5629 H   0  0  0  0  0  0  0  0  0  0  0  0
    2.3656    0.5551   -0.3015 H   0  0  0  0  0  0  0  0  0  0  0  0
    1.5182    0.8968    1.1851 H   0  0  0  0  0  0  0  0  0  0  0  0
    2.4029    2.3490   -2.1342 H   0  0  0  0  0  0  0  0  0  0  0  0
    0.9319    3.1081    1.8430 H   0  0  0  0  0  0  0  0  0  0  0  0
    2.6615    4.7756   -2.5003 H   0  0  0  0  0  0  0  0  0  0  0  0
    1.1918    5.5339    1.4739 H   0  0  0  0  0  0  0  0  0  0  0  0
    1.8114    7.1415    0.0508 H   0  0  0  0  0  0  0  0  0  0  0  0
   -1.0746   -1.4617   -0.0059 N   0  0  0  0  0  0  0  0  0  0  0  0
   -1.3677   -2.8618    0.2010 C   0  0  2  0  0  0  0  0  0  0  0  0
   -0.8764   -3.6303   -1.0186 C   0  0  0  0  0  0  0  0  0  0  0  0
   -0.7080   -3.1071   -2.1182 O   0  0  0  0  0  0  0  0  0  0  0  0
   -2.8548   -3.0887    0.4236 C   0  0  0  0  0  0  0  0  0  0  0  0
   -1.8202   -0.7867    0.1363 H   0  0  0  0  0  0  0  0  0  0  0  0
   -0.8012   -3.1763    1.0842 H   0  0  0  0  0  0  0  0  0  0  0  0
   -3.4388   -2.7793   -0.4509 H   0  0  0  0  0  0  0  0  0  0  0  0
   -3.0715   -4.1460    0.6085 H   0  0  0  0  0  0  0  0  0  0  0  0
   -3.2127   -2.5118    1.2833 H   0  0  0  0  0  0  0  0  0  0  0  0
   -0.6893   -4.9781   -0.7456 N   0  0  0  0  0  0  0  0  0  0  0  0
   -0.2390   -5.9205   -1.7432 C   0  0  0  0  0  0  0  0  0  0  0  0
   -0.8350   -5.3215    0.1992 H   0  0  0  0  0  0  0  0  0  0  0  0
   -1.1097   -6.3840   -2.2301 H   0  0  0  0  0  0  0  0  0  0  0  0
    0.3660   -5.3952   -2.4970 H   0  0  0  0  0  0  0  0  0  0  0  0
    0.3702   -6.7001   -1.2624 H   0  0  0  0  0  0  0  0  0  0  0  0
 23 25  2  0  0  0  0
 22 23  1  0  0  0  0
 24 26  1  0  0  0  0
 22 24  2  0  0  0  0
 25 27  1  0  0  0  0
 26 27  2  0  0  0  0
 21 22  1  0  0  0  0
 27 28  1  0  0  0  0
  1  3  1  0  0  0  0
  1  7  1  0  0  0  0
  1  2  2  0  0  0  0
 39 40  1  0  0  0  0
 40 48  1  0  0  0  0
 40 41  2  0  0  0  0
  8  9  1  0  0  0  0
  9 17  1  0  0  0  0
  9 10  2  0  0  0  0
 18 19  1  0  0  0  0
 19 38  1  0  0  0  0
 19 20  2  0  0  0  0
 39 42  1  0  0  0  0
  8 11  1  0  0  0  0
 48 49  1  0  0  0  0
 18 21  1  0  0  0  0
 38 39  1  0  0  0  0
  7  8  1  0  0  0  0
 17 18  1  0  0  0  0
 23 33  1  0  0  0  0
 24 34  1  0  0  0  0
 25 35  1  0  0  0  0
 26 36  1  0  0  0  0
  3  4  1  0  0  0  0
  3  5  1  0  0  0  0
  3  6  1  0  0  0  0
 42 45  1  0  0  0  0
 42 46  1  0  0  0  0
 42 47  1  0  0  0  0
 11 14  1  0  0  0  0
 11 15  1  0  0  0  0
 11 16  1  0  0  0  0
 49 51  1  0  0  0  0
 49 52  1  0  0  0  0
 49 53  1  0  0  0  0
 21 31  1  0  0  0  0
 21 32  1  0  0  0  0
 39 44  1  0  0  0  0
  8 13  1  0  0  0  0
 18 30  1  0  0  0  0
 48 50  1  0  0  0  0
  7 12  1  0  0  0  0
 38 43  1  0  0  0  0
 17 29  1  0  0  0  0
 28 37  1  0  0  0  0
M  END
$$$$

  -OEChem-05262214473D

 53 53  0     1  0  0  0  0  0999 V2000
   -1.9298    0.2574    3.9747 C   0  0  0  0  0  0  0  0  0  0  0  0
   -0.9825   -0.3573    3.4990 O   0  0  0  0  0  0  0  0  0  0  0  0
   -2.3617   -0.0250    5.3754 C   0  0  0  0  0  0  0  0  0  0  0  0
   -3.1214   -0.8213    5.4288 H   0  0  0  0  0  0  0  0  0  0  0  0
   -1.5305   -0.3726    6.0097 H   0  0  0  0  0  0  0  0  0  0  0  0
   -2.7997    0.8299    5.9150 H   0  0  0  0  0  0  0  0  0  0  0  0
   -2.6795    1.2298    3.3336 N   0  0  0  0  0  0  0  0  0  0  0  0
   -2.4327    1.6559    1.9812 C   0  0  2  0  0  0  0  0  0  0  0  0
   -1.0977    1.0705    1.5400 C   0  0  0  0  0  0  0  0  0  0  0  0
   -0.2256    0.7177    2.3313 O   0  0  0  0  0  0  0  0  0  0  0  0
   -2.4239    3.1726    1.8718 C   0  0  0  0  0  0  0  0  0  0  0  0
   -3.4446    1.6657    3.8454 H   0  0  0  0  0  0  0  0  0  0  0  0
   -3.2368    1.2374    1.3661 H   0  0  0  0  0  0  0  0  0  0  0  0
   -1.6248    3.6099    2.4815 H   0  0  0  0  0  0  0  0  0  0  0  0
   -2.2644    3.4949    0.8375 H   0  0  0  0  0  0  0  0  0  0  0  0
   -3.3741    3.5939    2.2175 H   0  0  0  0  0  0  0  0  0  0  0  0
   -0.9750    1.0274    0.1566 N   0  0  0  0  0  0  0  0  0  0  0  0
    0.2023    0.5266   -0.5070 C   0  0  2  0  0  0  0  0  0  0  0  0
    0.1744   -0.9931   -0.3890 C   0  0  0  0  0  0  0  0  0  0  0  0
    1.1927   -1.6765   -0.3059 O   0  0  0  0  0  0  0  0  0  0  0  0
    1.4928    1.0850    0.1036 C   0  0  0  0  0  0  0  0  0  0  0  0
    1.6505    2.5689   -0.1216 C   0  0  0  0  0  0  0  0  0  0  0  0
    2.1362    3.0419   -1.3407 C   0  0  0  0  0  0  0  0  0  0  0  0
    1.3112    3.4676    0.8898 C   0  0  0  0  0  0  0  0  0  0  0  0
    2.2824    4.4134   -1.5484 C   0  0  0  0  0  0  0  0  0  0  0  0
    1.4575    4.8391    0.6821 C   0  0  0  0  0  0  0  0  0  0  0  0
    1.9431    5.3120   -0.5370 C   0  0  0  0  0  0  0  0  0  0  0  0
    2.0871    6.6502   -0.7395 O   0  0  0  0  0  0  0  0  0  0  0  0
   -1.7582    1.3241   -0.4207 H   0  0  0  0  0  0  0  0  0  0  0  0
    0.1085    0.8063   -1.5629 H   0  0  0  0  0  0  0  0  0  0  0  0
    2.3656    0.5551   -0.3015 H   0  0  0  0  0  0  0  0  0  0  0  0
    1.5182    0.8968    1.1851 H   0  0  0  0  0  0  0  0  0  0  0  0
    2.4029    2.3490   -2.1342 H   0  0  0  0  0  0  0  0  0  0  0  0
    0.9319    3.1081    1.8430 H   0  0  0  0  0  0  0  0  0  0  0  0
    2.6615    4.7756   -2.5003 H   0  0  0  0  0  0  0  0  0  0  0  0
    1.1918    5.5339    1.4739 H   0  0  0  0  0  0  0  0  0  0  0  0
    1.8114    7.1415    0.0508 H   0  0  0  0  0  0  0  0  0  0  0  0
   -1.1218   -1.4866   -0.3376 N   0  0  0  0  0  0  0  0  0  0  0  0
   -1.4311   -2.8920   -0.2031 C   0  0  2  0  0  0  0  0  0  0  0  0
   -0.6269   -3.6528   -1.2490 C   0  0  0  0  0  0  0  0  0  0  0  0
   -0.1907   -3.1285   -2.2717 O   0  0  0  0  0  0  0  0  0  0  0  0
   -2.9207   -3.1491   -0.3699 C   0  0  0  0  0  0  0  0  0  0  0  0
   -1.8918   -0.8269   -0.3976 H   0  0  0  0  0  0  0  0  0  0  0  0
   -1.1057   -3.1929    0.7987 H   0  0  0  0  0  0  0  0  0  0  0  0
   -3.2651   -2.8537   -1.3677 H   0  0  0  0  0  0  0  0  0  0  0  0
   -3.1572   -4.2103   -0.2394 H   0  0  0  0  0  0  0  0  0  0  0  0
   -3.4994   -2.5779    0.3641 H   0  0  0  0  0  0  0  0  0  0  0  0
   -0.4905   -4.9959   -0.9271 N   0  0  0  0  0  0  0  0  0  0  0  0
    0.2202   -5.9308   -1.7678 C   0  0  0  0  0  0  0  0  0  0  0  0
   -0.8684   -5.3402   -0.0493 H   0  0  0  0  0  0  0  0  0  0  0  0
   -0.4862   -6.4132   -2.4593 H   0  0  0  0  0  0  0  0  0  0  0  0
    0.9888   -5.3947   -2.3438 H   0  0  0  0  0  0  0  0  0  0  0  0
    0.6997   -6.6966   -1.1404 H   0  0  0  0  0  0  0  0  0  0  0  0
 23 25  2  0  0  0  0
 22 23  1  0  0  0  0
 24 26  1  0  0  0  0
 22 24  2  0  0  0  0
 25 27  1  0  0  0  0
 26 27  2  0  0  0  0
 21 22  1  0  0  0  0
 27 28  1  0  0  0  0
  1  3  1  0  0  0  0
  1  7  1  0  0  0  0
  1  2  2  0  0  0  0
 39 40  1  0  0  0  0
 40 48  1  0  0  0  0
 40 41  2  0  0  0  0
  8  9  1  0  0  0  0
  9 17  1  0  0  0  0
  9 10  2  0  0  0  0
 18 19  1  0  0  0  0
 19 38  1  0  0  0  0
 19 20  2  0  0  0  0
 39 42  1  0  0  0  0
  8 11  1  0  0  0  0
 48 49  1  0  0  0  0
 18 21  1  0  0  0  0
 38 39  1  0  0  0  0
  7  8  1  0  0  0  0
 17 18  1  0  0  0  0
 23 33  1  0  0  0  0
 24 34  1  0  0  0  0
 25 35  1  0  0  0  0
 26 36  1  0  0  0  0
  3  4  1  0  0  0  0
  3  5  1  0  0  0  0
  3  6  1  0  0  0  0
 42 45  1  0  0  0  0
 42 46  1  0  0  0  0
 42 47  1  0  0  0  0
 11 14  1  0  0  0  0
 11 15  1  0  0  0  0
 11 16  1  0  0  0  0
 49 51  1  0  0  0  0
 49 52  1  0  0  0  0
 49 53  1  0  0  0  0
 21 31  1  0  0  0  0
 21 32  1  0  0  0  0
 39 44  1  0  0  0  0
  8 13  1  0  0  0  0
 18 30  1  0  0  0  0
 48 50  1  0  0  0  0
  7 12  1  0  0  0  0
 38 43  1  0  0  0  0
 17 29  1  0  0  0  0
 28 37  1  0  0  0  0
M  END
$$$$

  -OEChem-05262214473D

 53 53  0     1  0  0  0  0  0999 V2000
   -1.9298    0.2574    3.9747 C   0  0  0  0  0  0  0  0  0  0  0  0
   -0.9825   -0.3573    3.4990 O   0  0  0  0  0  0  0  0  0  0  0  0
   -2.3617   -0.0250    5.3754 C   0  0  0  0  0  0  0  0  0  0  0  0
   -3.1214   -0.8213    5.4288 H   0  0  0  0  0  0  0  0  0  0  0  0
   -1.5305   -0.3726    6.0097 H   0  0  0  0  0  0  0  0  0  0  0  0
   -2.7997    0.8299    5.9150 H   0  0  0  0  0  0  0  0  0  0  0  0
   -2.6795    1.2298    3.3336 N   0  0  0  0  0  0  0  0  0  0  0  0
   -2.4327    1.6559    1.9812 C   0  0  2  0  0  0  0  0  0  0  0  0
   -1.0977    1.0705    1.5400 C   0  0  0  0  0  0  0  0  0  0  0  0
   -0.2256    0.7177    2.3313 O   0  0  0  0  0  0  0  0  0  0  0  0
   -2.4239    3.1726    1.8718 C   0  0  0  0  0  0  0  0  0  0  0  0
   -3.4446    1.6657    3.8454 H   0  0  0  0  0  0  0  0  0  0  0  0
   -3.2368    1.2374    1.3661 H   0  0  0  0  0  0  0  0  0  0  0  0
   -1.6248    3.6099    2.4815 H   0  0  0  0  0  0  0  0  0  0  0  0
   -2.2644    3.4949    0.8375 H   0  0  0  0  0  0  0  0  0  0  0  0
   -3.3741    3.5939    2.2175 H   0  0  0  0  0  0  0  0  0  0  0  0
   -0.9750    1.0274    0.1566 N   0  0  0  0  0  0  0  0  0  0  0  0
    0.2023    0.5266   -0.5070 C   0  0  2  0  0  0  0  0  0  0  0  0
    0.1744   -0.9931   -0.3890 C   0  0  0  0  0  0  0  0  0  0  0  0
    1.1499   -1.6552   -0.0410 O   0  0  0  0  0  0  0  0  0  0  0  0
    1.4928    1.0850    0.1036 C   0  0  0  0  0  0  0  0  0  0  0  0
    1.6505    2.5689   -0.1216 C   0  0  0  0  0  0  0  0  0  0  0  0
    2.1362    3.0419   -1.3407 C   0  0  0  0  0  0  0  0  0  0  0  0
    1.3112    3.4676    0.8898 C   0  0  0  0  0  0  0  0  0  0  0  0
    2.2824    4.4134   -1.5484 C   0  0  0  0  0  0  0  0  0  0  0  0
    1.4575    4.8391    0.6821 C   0  0  0  0  0  0  0  0  0  0  0  0
    1.9431    5.3120   -0.5370 C   0  0  0  0  0  0  0  0  0  0  0  0
    2.0871    6.6502   -0.7395 O   0  0  0  0  0  0  0  0  0  0  0  0
   -1.7582    1.3241   -0.4207 H   0  0  0  0  0  0  0  0  0  0  0  0
    0.1085    0.8063   -1.5629 H   0  0  0  0  0  0  0  0  0  0  0  0
    2.3656    0.5551   -0.3015 H   0  0  0  0  0  0  0  0  0  0  0  0
    1.5182    0.8968    1.1851 H   0  0  0  0  0  0  0  0  0  0  0  0
    2.4029    2.3490   -2.1342 H   0  0  0  0  0  0  0  0  0  0  0  0
    0.9319    3.1081    1.8430 H   0  0  0  0  0  0  0  0  0  0  0  0
    2.6615    4.7756   -2.5003 H   0  0  0  0  0  0  0  0  0  0  0  0
    1.1918    5.5339    1.4739 H   0  0  0  0  0  0  0  0  0  0  0  0
    1.8114    7.1415    0.0508 H   0  0  0  0  0  0  0  0  0  0  0  0
   -1.0813   -1.5132   -0.6701 N   0  0  0  0  0  0  0  0  0  0  0  0
   -1.3876   -2.9243   -0.6096 C   0  0  2  0  0  0  0  0  0  0  0  0
   -0.3261   -3.6705   -1.4070 C   0  0  0  0  0  0  0  0  0  0  0  0
    0.3490   -3.1395   -2.2864 O   0  0  0  0  0  0  0  0  0  0  0  0
   -2.7783   -3.2125   -1.1531 C   0  0  0  0  0  0  0  0  0  0  0  0
   -1.8224   -0.8696   -0.9315 H   0  0  0  0  0  0  0  0  0  0  0  0
   -1.3259   -3.2164    0.4444 H   0  0  0  0  0  0  0  0  0  0  0  0
   -2.8593   -2.9264   -2.2081 H   0  0  0  0  0  0  0  0  0  0  0  0
   -3.0199   -4.2781   -1.0802 H   0  0  0  0  0  0  0  0  0  0  0  0
   -3.5378   -2.6519   -0.5975 H   0  0  0  0  0  0  0  0  0  0  0  0
   -0.2513   -5.0099   -1.0510 N   0  0  0  0  0  0  0  0  0  0  0  0
    0.6703   -5.9317   -1.6730 C   0  0  0  0  0  0  0  0  0  0  0  0
   -0.8361   -5.3601   -0.2979 H   0  0  0  0  0  0  0  0  0  0  0  0
    0.1757   -6.4300   -2.5198 H   0  0  0  0  0  0  0  0  0  0  0  0
    1.5510   -5.3811   -2.0352 H   0  0  0  0  0  0  0  0  0  0  0  0
    0.9864   -6.6861   -0.9375 H   0  0  0  0  0  0  0  0  0  0  0  0
 23 25  2  0  0  0  0
 22 23  1  0  0  0  0
 24 26  1  0  0  0  0
 22 24  2  0  0  0  0
 25 27  1  0  0  0  0
 26 27  2  0  0  0  0
 21 22  1  0  0  0  0
 27 28  1  0  0  0  0
  1  3  1  0  0  0  0
  1  7  1  0  0  0  0
  1  2  2  0  0  0  0
 39 40  1  0  0  0  0
 40 48  1  0  0  0  0
 40 41  2  0  0  0  0
  8  9  1  0  0  0  0
  9 17  1  0  0  0  0
  9 10  2  0  0  0  0
 18 19  1  0  0  0  0
 19 38  1  0  0  0  0
 19 20  2  0  0  0  0
 39 42  1  0  0  0  0
  8 11  1  0  0  0  0
 48 49  1  0  0  0  0
 18 21  1  0  0  0  0
 38 39  1  0  0  0  0
  7  8  1  0  0  0  0
 17 18  1  0  0  0  0
 23 33  1  0  0  0  0
 24 34  1  0  0  0  0
 25 35  1  0  0  0  0
 26 36  1  0  0  0  0
  3  4  1  0  0  0  0
  3  5  1  0  0  0  0
  3  6  1  0  0  0  0
 42 45  1  0  0  0  0
 42 46  1  0  0  0  0
 42 47  1  0  0  0  0
 11 14  1  0  0  0  0
 11 15  1  0  0  0  0
 11 16  1  0  0  0  0
 49 51  1  0  0  0  0
 49 52  1  0  0  0  0
 49 53  1  0  0  0  0
 21 31  1  0  0  0  0
 21 32  1  0  0  0  0
 39 44  1  0  0  0  0
  8 13  1  0  0  0  0
 18 30  1  0  0  0  0
 48 50  1  0  0  0  0
  7 12  1  0  0  0  0
 38 43  1  0  0  0  0
 17 29  1  0  0  0  0
 28 37  1  0  0  0  0
M  END
$$$$

  -OEChem-05262214473D

 53 53  0     1  0  0  0  0  0999 V2000
   -1.9298    0.2574    3.9747 C   0  0  0  0  0  0  0  0  0  0  0  0
   -0.9825   -0.3573    3.4990 O   0  0  0  0  0  0  0  0  0  0  0  0
   -2.3617   -0.0250    5.3754 C   0  0  0  0  0  0  0  0  0  0  0  0
   -3.1214   -0.8213    5.4288 H   0  0  0  0  0  0  0  0  0  0  0  0
   -1.5305   -0.3726    6.0097 H   0  0  0  0  0  0  0  0  0  0  0  0
   -2.7997    0.8299    5.9150 H   0  0  0  0  0  0  0  0  0  0  0  0
   -2.6795    1.2298    3.3336 N   0  0  0  0  0  0  0  0  0  0  0  0
   -2.4327    1.6559    1.9812 C   0  0  2  0  0  0  0  0  0  0  0  0
   -1.0977    1.0705    1.5400 C   0  0  0  0  0  0  0  0  0  0  0  0
   -0.2256    0.7177    2.3313 O   0  0  0  0  0  0  0  0  0  0  0  0
   -2.4239    3.1726    1.8718 C   0  0  0  0  0  0  0  0  0  0  0  0
   -3.4446    1.6657    3.8454 H   0  0  0  0  0  0  0  0  0  0  0  0
   -3.2368    1.2374    1.3661 H   0  0  0  0  0  0  0  0  0  0  0  0
   -1.6248    3.6099    2.4815 H   0  0  0  0  0  0  0  0  0  0  0  0
   -2.2644    3.4949    0.8375 H   0  0  0  0  0  0  0  0  0  0  0  0
   -3.3741    3.5939    2.2175 H   0  0  0  0  0  0  0  0  0  0  0  0
   -0.9750    1.0274    0.1566 N   0  0  0  0  0  0  0  0  0  0  0  0
    0.2023    0.5266   -0.5070 C   0  0  2  0  0  0  0  0  0  0  0  0
    0.1744   -0.9931   -0.3890 C   0  0  0  0  0  0  0  0  0  0  0  0
    1.0397   -1.6342    0.2037 O   0  0  0  0  0  0  0  0  0  0  0  0
    1.4928    1.0850    0.1036 C   0  0  0  0  0  0  0  0  0  0  0  0
    1.6505    2.5689   -0.1216 C   0  0  0  0  0  0  0  0  0  0  0  0
    2.1362    3.0419   -1.3407 C   0  0  0  0  0  0  0  0  0  0  0  0
    1.3112    3.4676    0.8898 C   0  0  0  0  0  0  0  0  0  0  0  0
    2.2824    4.4134   -1.5484 C   0  0  0  0  0  0  0  0  0  0  0  0
    1.4575    4.8391    0.6821 C   0  0  0  0  0  0  0  0  0  0  0  0
    1.9431    5.3120   -0.5370 C   0  0  0  0  0  0  0  0  0  0  0  0
    2.0871    6.6502   -0.7395 O   0  0  0  0  0  0  0  0  0  0  0  0
   -1.7582    1.3241   -0.4207 H   0  0  0  0  0  0  0  0  0  0  0  0
    0.1085    0.8063   -1.5629 H   0  0  0  0  0  0  0  0  0  0  0  0
    2.3656    0.5551   -0.3015 H   0  0  0  0  0  0  0  0  0  0  0  0
    1.5182    0.8968    1.1851 H   0  0  0  0  0  0  0  0  0  0  0  0
    2.4029    2.3490   -2.1342 H   0  0  0  0  0  0  0  0  0  0  0  0
    0.9319    3.1081    1.8430 H   0  0  0  0  0  0  0  0  0  0  0  0
    2.6615    4.7756   -2.5003 H   0  0  0  0  0  0  0  0  0  0  0  0
    1.1918    5.5339    1.4739 H   0  0  0  0  0  0  0  0  0  0  0  0
    1.8114    7.1415    0.0508 H   0  0  0  0  0  0  0  0  0  0  0  0
   -0.9559   -1.5396   -0.9807 N   0  0  0  0  0  0  0  0  0  0  0  0
   -1.2400   -2.9566   -0.9908 C   0  0  2  0  0  0  0  0  0  0  0  0
    0.0056   -3.6824   -1.4820 C   0  0  0  0  0  0  0  0  0  0  0  0
    0.8743   -3.1394   -2.1613 O   0  0  0  0  0  0  0  0  0  0  0  0
   -2.4375   -3.2746   -1.8726 C   0  0  0  0  0  0  0  0  0  0  0  0
   -1.6168   -0.9120   -1.4291 H   0  0  0  0  0  0  0  0  0  0  0  0
   -1.4467   -3.2452    0.0455 H   0  0  0  0  0  0  0  0  0  0  0  0
   -2.2490   -2.9924   -2.9148 H   0  0  0  0  0  0  0  0  0  0  0  0
   -2.6690   -4.3448   -1.8566 H   0  0  0  0  0  0  0  0  0  0  0  0
   -3.3254   -2.7286   -1.5358 H   0  0  0  0  0  0  0  0  0  0  0  0
    0.0119   -5.0192   -1.1088 N   0  0  0  0  0  0  0  0  0  0  0  0
    1.0806   -5.9231   -1.4653 C   0  0  0  0  0  0  0  0  0  0  0  0
   -0.7405   -5.3798   -0.5295 H   0  0  0  0  0  0  0  0  0  0  0  0
    0.8311   -6.4333   -2.4073 H   0  0  0  0  0  0  0  0  0  0  0  0
    2.0140   -5.3551   -1.5921 H   0  0  0  0  0  0  0  0  0  0  0  0
    1.2108   -6.6693   -0.6676 H   0  0  0  0  0  0  0  0  0  0  0  0
 23 25  2  0  0  0  0
 22 23  1  0  0  0  0
 24 26  1  0  0  0  0
 22 24  2  0  0  0  0
 25 27  1  0  0  0  0
 26 27  2  0  0  0  0
 21 22  1  0  0  0  0
 27 28  1  0  0  0  0
  1  3  1  0  0  0  0
  1  7  1  0  0  0  0
  1  2  2  0  0  0  0
 39 40  1  0  0  0  0
 40 48  1  0  0  0  0
 40 41  2  0  0  0  0
  8  9  1  0  0  0  0
  9 17  1  0  0  0  0
  9 10  2  0  0  0  0
 18 19  1  0  0  0  0
 19 38  1  0  0  0  0
 19 20  2  0  0  0  0
 39 42  1  0  0  0  0
  8 11  1  0  0  0  0
 48 49  1  0  0  0  0
 18 21  1  0  0  0  0
 38 39  1  0  0  0  0
  7  8  1  0  0  0  0
 17 18  1  0  0  0  0
 23 33  1  0  0  0  0
 24 34  1  0  0  0  0
 25 35  1  0  0  0  0
 26 36  1  0  0  0  0
  3  4  1  0  0  0  0
  3  5  1  0  0  0  0
  3  6  1  0  0  0  0
 42 45  1  0  0  0  0
 42 46  1  0  0  0  0
 42 47  1  0  0  0  0
 11 14  1  0  0  0  0
 11 15  1  0  0  0  0
 11 16  1  0  0  0  0
 49 51  1  0  0  0  0
 49 52  1  0  0  0  0
 49 53  1  0  0  0  0
 21 31  1  0  0  0  0
 21 32  1  0  0  0  0
 39 44  1  0  0  0  0
  8 13  1  0  0  0  0
 18 30  1  0  0  0  0
 48 50  1  0  0  0  0
  7 12  1  0  0  0  0
 38 43  1  0  0  0  0
 17 29  1  0  0  0  0
 28 37  1  0  0  0  0
M  END
$$$$

  -OEChem-05262214473D

 53 53  0     1  0  0  0  0  0999 V2000
   -1.9298    0.2574    3.9747 C   0  0  0  0  0  0  0  0  0  0  0  0
   -0.9825   -0.3573    3.4990 O   0  0  0  0  0  0  0  0  0  0  0  0
   -2.3617   -0.0250    5.3754 C   0  0  0  0  0  0  0  0  0  0  0  0
   -3.1214   -0.8213    5.4288 H   0  0  0  0  0  0  0  0  0  0  0  0
   -1.5305   -0.3726    6.0097 H   0  0  0  0  0  0  0  0  0  0  0  0
   -2.7997    0.8299    5.9150 H   0  0  0  0  0  0  0  0  0  0  0  0
   -2.6795    1.2298    3.3336 N   0  0  0  0  0  0  0  0  0  0  0  0
   -2.4327    1.6559    1.9812 C   0  0  2  0  0  0  0  0  0  0  0  0
   -1.0977    1.0705    1.5400 C   0  0  0  0  0  0  0  0  0  0  0  0
   -0.2256    0.7177    2.3313 O   0  0  0  0  0  0  0  0  0  0  0  0
   -2.4239    3.1726    1.8718 C   0  0  0  0  0  0  0  0  0  0  0  0
   -3.4446    1.6657    3.8454 H   0  0  0  0  0  0  0  0  0  0  0  0
   -3.2368    1.2374    1.3661 H   0  0  0  0  0  0  0  0  0  0  0  0
   -1.6248    3.6099    2.4815 H   0  0  0  0  0  0  0  0  0  0  0  0
   -2.2644    3.4949    0.8375 H   0  0  0  0  0  0  0  0  0  0  0  0
   -3.3741    3.5939    2.2175 H   0  0  0  0  0  0  0  0  0  0  0  0
   -0.9750    1.0274    0.1566 N   0  0  0  0  0  0  0  0  0  0  0  0
    0.2023    0.5266   -0.5070 C   0  0  2  0  0  0  0  0  0  0  0  0
    0.1744   -0.9931   -0.3890 C   0  0  0  0  0  0  0  0  0  0  0  0
    0.8697   -1.6149    0.4115 O   0  0  0  0  0  0  0  0  0  0  0  0
    1.4928    1.0850    0.1036 C   0  0  0  0  0  0  0  0  0  0  0  0
    1.6505    2.5689   -0.1216 C   0  0  0  0  0  0  0  0  0  0  0  0
    2.1362    3.0419   -1.3407 C   0  0  0  0  0  0  0  0  0  0  0  0
    1.3112    3.4676    0.8898 C   0  0  0  0  0  0  0  0  0  0  0  0
    2.2824    4.4134   -1.5484 C   0  0  0  0  0  0  0  0  0  0  0  0
    1.4575    4.8391    0.6821 C   0  0  0  0  0  0  0  0  0  0  0  0
    1.9431    5.3120   -0.5370 C   0  0  0  0  0  0  0  0  0  0  0  0
    2.0871    6.6502   -0.7395 O   0  0  0  0  0  0  0  0  0  0  0  0
   -1.7582    1.3241   -0.4207 H   0  0  0  0  0  0  0  0  0  0  0  0
    0.1085    0.8063   -1.5629 H   0  0  0  0  0  0  0  0  0  0  0  0
    2.3656    0.5551   -0.3015 H   0  0  0  0  0  0  0  0  0  0  0  0
    1.5182    0.8968    1.1851 H   0  0  0  0  0  0  0  0  0  0  0  0
    2.4029    2.3490   -2.1342 H   0  0  0  0  0  0  0  0  0  0  0  0
    0.9319    3.1081    1.8430 H   0  0  0  0  0  0  0  0  0  0  0  0
    2.6615    4.7756   -2.5003 H   0  0  0  0  0  0  0  0  0  0  0  0
    1.1918    5.5339    1.4739 H   0  0  0  0  0  0  0  0  0  0  0  0
    1.8114    7.1415    0.0508 H   0  0  0  0  0  0  0  0  0  0  0  0
   -0.7541   -1.5640   -1.2482 N   0  0  0  0  0  0  0  0  0  0  0  0
   -0.9984   -2.9867   -1.3209 C   0  0  2  0  0  0  0  0  0  0  0  0
    0.3456   -3.6876   -1.4687 C   0  0  0  0  0  0  0  0  0  0  0  0
    1.3495   -3.1282   -1.9050 O   0  0  0  0  0  0  0  0  0  0  0  0
   -1.9214   -3.3312   -2.4793 C   0  0  0  0  0  0  0  0  0  0  0  0
   -1.2890   -0.9512   -1.8566 H   0  0  0  0  0  0  0  0  0  0  0  0
   -1.4599   -3.2772   -0.3708 H   0  0  0  0  0  0  0  0  0  0  0  0
   -1.4759   -3.0473   -3.4397 H   0  0  0  0  0  0  0  0  0  0  0  0
   -2.1283   -4.4058   -2.5157 H   0  0  0  0  0  0  0  0  0  0  0  0
   -2.8766   -2.8029   -2.3870 H   0  0  0  0  0  0  0  0  0  0  0  0
    0.2814   -5.0232   -1.0968 N   0  0  0  0  0  0  0  0  0  0  0  0
    1.4231   -5.9055   -1.1588 C   0  0  0  0  0  0  0  0  0  0  0  0
   -0.5879   -5.3981   -0.7285 H   0  0  0  0  0  0  0  0  0  0  0  0
    1.4351   -6.4227   -2.1296 H   0  0  0  0  0  0  0  0  0  0  0  0
    2.3465   -5.3187   -1.0447 H   0  0  0  0  0  0  0  0  0  0  0  0
    1.3576   -6.6472   -0.3491 H   0  0  0  0  0  0  0  0  0  0  0  0
 23 25  2  0  0  0  0
 22 23  1  0  0  0  0
 24 26  1  0  0  0  0
 22 24  2  0  0  0  0
 25 27  1  0  0  0  0
 26 27  2  0  0  0  0
 21 22  1  0  0  0  0
 27 28  1  0  0  0  0
  1  3  1  0  0  0  0
  1  7  1  0  0  0  0
  1  2  2  0  0  0  0
 39 40  1  0  0  0  0
 40 48  1  0  0  0  0
 40 41  2  0  0  0  0
  8  9  1  0  0  0  0
  9 17  1  0  0  0  0
  9 10  2  0  0  0  0
 18 19  1  0  0  0  0
 19 38  1  0  0  0  0
 19 20  2  0  0  0  0
 39 42  1  0  0  0  0
  8 11  1  0  0  0  0
 48 49  1  0  0  0  0
 18 21  1  0  0  0  0
 38 39  1  0  0  0  0
  7  8  1  0  0  0  0
 17 18  1  0  0  0  0
 23 33  1  0  0  0  0
 24 34  1  0  0  0  0
 25 35  1  0  0  0  0
 26 36  1  0  0  0  0
  3  4  1  0  0  0  0
  3  5  1  0  0  0  0
  3  6  1  0  0  0  0
 42 45  1  0  0  0  0
 42 46  1  0  0  0  0
 42 47  1  0  0  0  0
 11 14  1  0  0  0  0
 11 15  1  0  0  0  0
 11 16  1  0  0  0  0
 49 51  1  0  0  0  0
 49 52  1  0  0  0  0
 49 53  1  0  0  0  0
 21 31  1  0  0  0  0
 21 32  1  0  0  0  0
 39 44  1  0  0  0  0
  8 13  1  0  0  0  0
 18 30  1  0  0  0  0
 48 50  1  0  0  0  0
  7 12  1  0  0  0  0
 38 43  1  0  0  0  0
 17 29  1  0  0  0  0
 28 37  1  0  0  0  0
M  END
$$$$

  -OEChem-05262214473D

 53 53  0     1  0  0  0  0  0999 V2000
   -1.9298    0.2574    3.9747 C   0  0  0  0  0  0  0  0  0  0  0  0
   -0.9825   -0.3573    3.4990 O   0  0  0  0  0  0  0  0  0  0  0  0
   -2.3617   -0.0250    5.3754 C   0  0  0  0  0  0  0  0  0  0  0  0
   -3.1214   -0.8213    5.4288 H   0  0  0  0  0  0  0  0  0  0  0  0
   -1.5305   -0.3726    6.0097 H   0  0  0  0  0  0  0  0  0  0  0  0
   -2.7997    0.8299    5.9150 H   0  0  0  0  0  0  0  0  0  0  0  0
   -2.6795    1.2298    3.3336 N   0  0  0  0  0  0  0  0  0  0  0  0
   -2.4327    1.6559    1.9812 C   0  0  2  0  0  0  0  0  0  0  0  0
   -1.0977    1.0705    1.5400 C   0  0  0  0  0  0  0  0  0  0  0  0
   -0.2256    0.7177    2.3313 O   0  0  0  0  0  0  0  0  0  0  0  0
   -2.4239    3.1726    1.8718 C   0  0  0  0  0  0  0  0  0  0  0  0
   -3.4446    1.6657    3.8454 H   0  0  0  0  0  0  0  0  0  0  0  0
   -3.2368    1.2374    1.3661 H   0  0  0  0  0  0  0  0  0  0  0  0
   -1.6248    3.6099    2.4815 H   0  0  0  0  0  0  0  0  0  0  0  0
   -2.2644    3.4949    0.8375 H   0  0  0  0  0  0  0  0  0  0  0  0
   -3.3741    3.5939    2.2175 H   0  0  0  0  0  0  0  0  0  0  0  0
   -0.9750    1.0274    0.1566 N   0  0  0  0  0  0  0  0  0  0  0  0
    0.2023    0.5266   -0.5070 C   0  0  2  0  0  0  0  0  0  0  0  0
    0.1744   -0.9931   -0.3890 C   0  0  0  0  0  0  0  0  0  0  0  0
    0.6515   -1.5987    0.5683 O   0  0  0  0  0  0  0  0  0  0  0  0
    1.4928    1.0850    0.1036 C   0  0  0  0  0  0  0  0  0  0  0  0
    1.6505    2.5689   -0.1216 C   0  0  0  0  0  0  0  0  0  0  0  0
    2.1362    3.0419   -1.3407 C   0  0  0  0  0  0  0  0  0  0  0  0
    1.3112    3.4676    0.8898 C   0  0  0  0  0  0  0  0  0  0  0  0
    2.2824    4.4134   -1.5484 C   0  0  0  0  0  0  0  0  0  0  0  0
    1.4575    4.8391    0.6821 C   0  0  0  0  0  0  0  0  0  0  0  0
    1.9431    5.3120   -0.5370 C   0  0  0  0  0  0  0  0  0  0  0  0
    2.0871    6.6502   -0.7395 O   0  0  0  0  0  0  0  0  0  0  0  0
   -1.7582    1.3241   -0.4207 H   0  0  0  0  0  0  0  0  0  0  0  0
    0.1085    0.8063   -1.5629 H   0  0  0  0  0  0  0  0  0  0  0  0
    2.3656    0.5551   -0.3015 H   0  0  0  0  0  0  0  0  0  0  0  0
    1.5182    0.8968    1.1851 H   0  0  0  0  0  0  0  0  0  0  0  0
    2.4029    2.3490   -2.1342 H   0  0  0  0  0  0  0  0  0  0  0  0
    0.9319    3.1081    1.8430 H   0  0  0  0  0  0  0  0  0  0  0  0
    2.6615    4.7756   -2.5003 H   0  0  0  0  0  0  0  0  0  0  0  0
    1.1918    5.5339    1.4739 H   0  0  0  0  0  0  0  0  0  0  0  0
    1.8114    7.1415    0.0508 H   0  0  0  0  0  0  0  0  0  0  0  0
   -0.4897   -1.5849   -1.4545 N   0  0  0  0  0  0  0  0  0  0  0  0
   -0.6793   -3.0124   -1.5772 C   0  0  2  0  0  0  0  0  0  0  0  0
    0.6707   -3.6858   -1.3682 C   0  0  0  0  0  0  0  0  0  0  0  0
    1.7421   -3.1066   -1.5348 O   0  0  0  0  0  0  0  0  0  0  0  0
   -1.2653   -3.3783   -2.9320 C   0  0  0  0  0  0  0  0  0  0  0  0
   -0.8613   -0.9845   -2.1847 H   0  0  0  0  0  0  0  0  0  0  0  0
   -1.3646   -3.3105   -0.7762 H   0  0  0  0  0  0  0  0  0  0  0  0
   -0.5926   -3.0873   -3.7470 H   0  0  0  0  0  0  0  0  0  0  0  0
   -1.4349   -4.4571   -3.0126 H   0  0  0  0  0  0  0  0  0  0  0  0
   -2.2219   -2.8697   -3.0930 H   0  0  0  0  0  0  0  0  0  0  0  0
    0.5386   -5.0216   -1.0156 N   0  0  0  0  0  0  0  0  0  0  0  0
    1.6746   -5.8803   -0.7746 C   0  0  0  0  0  0  0  0  0  0  0  0
   -0.3888   -5.4136   -0.8813 H   0  0  0  0  0  0  0  0  0  0  0  0
    1.9467   -6.3992   -1.7055 H   0  0  0  0  0  0  0  0  0  0  0  0
    2.5257   -5.2743   -0.4304 H   0  0  0  0  0  0  0  0  0  0  0  0
    1.4168   -6.6215   -0.0037 H   0  0  0  0  0  0  0  0  0  0  0  0
 23 25  2  0  0  0  0
 22 23  1  0  0  0  0
 24 26  1  0  0  0  0
 22 24  2  0  0  0  0
 25 27  1  0  0  0  0
 26 27  2  0  0  0  0
 21 22  1  0  0  0  0
 27 28  1  0  0  0  0
  1  3  1  0  0  0  0
  1  7  1  0  0  0  0
  1  2  2  0  0  0  0
 39 40  1  0  0  0  0
 40 48  1  0  0  0  0
 40 41  2  0  0  0  0
  8  9  1  0  0  0  0
  9 17  1  0  0  0  0
  9 10  2  0  0  0  0
 18 19  1  0  0  0  0
 19 38  1  0  0  0  0
 19 20  2  0  0  0  0
 39 42  1  0  0  0  0
  8 11  1  0  0  0  0
 48 49  1  0  0  0  0
 18 21  1  0  0  0  0
 38 39  1  0  0  0  0
  7  8  1  0  0  0  0
 17 18  1  0  0  0  0
 23 33  1  0  0  0  0
 24 34  1  0  0  0  0
 25 35  1  0  0  0  0
 26 36  1  0  0  0  0
  3  4  1  0  0  0  0
  3  5  1  0  0  0  0
  3  6  1  0  0  0  0
 42 45  1  0  0  0  0
 42 46  1  0  0  0  0
 42 47  1  0  0  0  0
 11 14  1  0  0  0  0
 11 15  1  0  0  0  0
 11 16  1  0  0  0  0
 49 51  1  0  0  0  0
 49 52  1  0  0  0  0
 49 53  1  0  0  0  0
 21 31  1  0  0  0  0
 21 32  1  0  0  0  0
 39 44  1  0  0  0  0
  8 13  1  0  0  0  0
 18 30  1  0  0  0  0
 48 50  1  0  0  0  0
  7 12  1  0  0  0  0
 38 43  1  0  0  0  0
 17 29  1  0  0  0  0
 28 37  1  0  0  0  0
M  END
$$$$

  -OEChem-05262214473D

 53 53  0     1  0  0  0  0  0999 V2000
   -1.9298    0.2574    3.9747 C   0  0  0  0  0  0  0  0  0  0  0  0
   -0.9825   -0.3573    3.4990 O   0  0  0  0  0  0  0  0  0  0  0  0
   -2.3617   -0.0250    5.3754 C   0  0  0  0  0  0  0  0  0  0  0  0
   -3.1214   -0.8213    5.4288 H   0  0  0  0  0  0  0  0  0  0  0  0
   -1.5305   -0.3726    6.0097 H   0  0  0  0  0  0  0  0  0  0  0  0
   -2.7997    0.8299    5.9150 H   0  0  0  0  0  0  0  0  0  0  0  0
   -2.6795    1.2298    3.3336 N   0  0  0  0  0  0  0  0  0  0  0  0
   -2.4327    1.6559    1.9812 C   0  0  2  0  0  0  0  0  0  0  0  0
   -1.0977    1.0705    1.5400 C   0  0  0  0  0  0  0  0  0  0  0  0
   -0.2256    0.7177    2.3313 O   0  0  0  0  0  0  0  0  0  0  0  0
   -2.4239    3.1726    1.8718 C   0  0  0  0  0  0  0  0  0  0  0  0
   -3.4446    1.6657    3.8454 H   0  0  0  0  0  0  0  0  0  0  0  0
   -3.2368    1.2374    1.3661 H   0  0  0  0  0  0  0  0  0  0  0  0
   -1.6248    3.6099    2.4815 H   0  0  0  0  0  0  0  0  0  0  0  0
   -2.2644    3.4949    0.8375 H   0  0  0  0  0  0  0  0  0  0  0  0
   -3.3741    3.5939    2.2175 H   0  0  0  0  0  0  0  0  0  0  0  0
   -0.9750    1.0274    0.1566 N   0  0  0  0  0  0  0  0  0  0  0  0
    0.2023    0.5266   -0.5070 C   0  0  2  0  0  0  0  0  0  0  0  0
    0.1744   -0.9931   -0.3890 C   0  0  0  0  0  0  0  0  0  0  0  0
    0.4000   -1.5868    0.6634 O   0  0  0  0  0  0  0  0  0  0  0  0
    1.4928    1.0850    0.1036 C   0  0  0  0  0  0  0  0  0  0  0  0
    1.6505    2.5689   -0.1216 C   0  0  0  0  0  0  0  0  0  0  0  0
    2.1362    3.0419   -1.3407 C   0  0  0  0  0  0  0  0  0  0  0  0
    1.3112    3.4676    0.8898 C   0  0  0  0  0  0  0  0  0  0  0  0
    2.2824    4.4134   -1.5484 C   0  0  0  0  0  0  0  0  0  0  0  0
    1.4575    4.8391    0.6821 C   0  0  0  0  0  0  0  0  0  0  0  0
    1.9431    5.3120   -0.5370 C   0  0  0  0  0  0  0  0  0  0  0  0
    2.0871    6.6502   -0.7395 O   0  0  0  0  0  0  0  0  0  0  0  0
   -1.7582    1.3241   -0.4207 H   0  0  0  0  0  0  0  0  0  0  0  0
    0.1085    0.8063   -1.5629 H   0  0  0  0  0  0  0  0  0  0  0  0
    2.3656    0.5551   -0.3015 H   0  0  0  0  0  0  0  0  0  0  0  0
    1.5182    0.8968    1.1851 H   0  0  0  0  0  0  0  0  0  0  0  0
    2.4029    2.3490   -2.1342 H   0  0  0  0  0  0  0  0  0  0  0  0
    0.9319    3.1081    1.8430 H   0  0  0  0  0  0  0  0  0  0  0  0
    2.6615    4.7756   -2.5003 H   0  0  0  0  0  0  0  0  0  0  0  0
    1.1918    5.5339    1.4739 H   0  0  0  0  0  0  0  0  0  0  0  0
    1.8114    7.1415    0.0508 H   0  0  0  0  0  0  0  0  0  0  0  0
   -0.1807   -1.6007   -1.5853 N   0  0  0  0  0  0  0  0  0  0  0  0
   -0.3044   -3.0321   -1.7423 C   0  0  2  0  0  0  0  0  0  0  0  0
    0.9587   -3.6770   -1.1872 C   0  0  0  0  0  0  0  0  0  0  0  0
    2.0254   -3.0762   -1.0761 O   0  0  0  0  0  0  0  0  0  0  0  0
   -0.5137   -3.4129   -3.1997 C   0  0  0  0  0  0  0  0  0  0  0  0
   -0.3628   -1.0096   -2.3911 H   0  0  0  0  0  0  0  0  0  0  0  0
   -1.1673   -3.3426   -1.1431 H   0  0  0  0  0  0  0  0  0  0  0  0
    0.3407   -3.1098   -3.8157 H   0  0  0  0  0  0  0  0  0  0  0  0
   -0.6358   -4.4951   -3.3134 H   0  0  0  0  0  0  0  0  0  0  0  0
   -1.4061   -2.9245   -3.6058 H   0  0  0  0  0  0  0  0  0  0  0  0
    0.7661   -5.0145   -0.8708 N   0  0  0  0  0  0  0  0  0  0  0  0
    1.8178   -5.8491   -0.3386 C   0  0  0  0  0  0  0  0  0  0  0  0
   -0.1568   -5.4253   -0.9774 H   0  0  0  0  0  0  0  0  0  0  0  0
    2.3310   -6.3642   -1.1640 H   0  0  0  0  0  0  0  0  0  0  0  0
    2.5394   -5.2249    0.2089 H   0  0  0  0  0  0  0  0  0  0  0  0
    1.3843   -6.5938    0.3451 H   0  0  0  0  0  0  0  0  0  0  0  0
 23 25  2  0  0  0  0
 22 23  1  0  0  0  0
 24 26  1  0  0  0  0
 22 24  2  0  0  0  0
 25 27  1  0  0  0  0
 26 27  2  0  0  0  0
 21 22  1  0  0  0  0
 27 28  1  0  0  0  0
  1  3  1  0  0  0  0
  1  7  1  0  0  0  0
  1  2  2  0  0  0  0
 39 40  1  0  0  0  0
 40 48  1  0  0  0  0
 40 41  2  0  0  0  0
  8  9  1  0  0  0  0
  9 17  1  0  0  0  0
  9 10  2  0  0  0  0
 18 19  1  0  0  0  0
 19 38  1  0  0  0  0
 19 20  2  0  0  0  0
 39 42  1  0  0  0  0
  8 11  1  0  0  0  0
 48 49  1  0  0  0  0
 18 21  1  0  0  0  0
 38 39  1  0  0  0  0
  7  8  1  0  0  0  0
 17 18  1  0  0  0  0
 23 33  1  0  0  0  0
 24 34  1  0  0  0  0
 25 35  1  0  0  0  0
 26 36  1  0  0  0  0
  3  4  1  0  0  0  0
  3  5  1  0  0  0  0
  3  6  1  0  0  0  0
 42 45  1  0  0  0  0
 42 46  1  0  0  0  0
 42 47  1  0  0  0  0
 11 14  1  0  0  0  0
 11 15  1  0  0  0  0
 11 16  1  0  0  0  0
 49 51  1  0  0  0  0
 49 52  1  0  0  0  0
 49 53  1  0  0  0  0
 21 31  1  0  0  0  0
 21 32  1  0  0  0  0
 39 44  1  0  0  0  0
  8 13  1  0  0  0  0
 18 30  1  0  0  0  0
 48 50  1  0  0  0  0
  7 12  1  0  0  0  0
 38 43  1  0  0  0  0
 17 29  1  0  0  0  0
 28 37  1  0  0  0  0
M  END
$$$$

  -OEChem-05262214473D

 53 53  0     1  0  0  0  0  0999 V2000
   -1.9298    0.2574    3.9747 C   0  0  0  0  0  0  0  0  0  0  0  0
   -0.9825   -0.3573    3.4990 O   0  0  0  0  0  0  0  0  0  0  0  0
   -2.3617   -0.0250    5.3754 C   0  0  0  0  0  0  0  0  0  0  0  0
   -3.1214   -0.8213    5.4288 H   0  0  0  0  0  0  0  0  0  0  0  0
   -1.5305   -0.3726    6.0097 H   0  0  0  0  0  0  0  0  0  0  0  0
   -2.7997    0.8299    5.9150 H   0  0  0  0  0  0  0  0  0  0  0  0
   -2.6795    1.2298    3.3336 N   0  0  0  0  0  0  0  0  0  0  0  0
   -2.4327    1.6559    1.9812 C   0  0  2  0  0  0  0  0  0  0  0  0
   -1.0977    1.0705    1.5400 C   0  0  0  0  0  0  0  0  0  0  0  0
   -0.2256    0.7177    2.3313 O   0  0  0  0  0  0  0  0  0  0  0  0
   -2.4239    3.1726    1.8718 C   0  0  0  0  0  0  0  0  0  0  0  0
   -3.4446    1.6657    3.8454 H   0  0  0  0  0  0  0  0  0  0  0  0
   -3.2368    1.2374    1.3661 H   0  0  0  0  0  0  0  0  0  0  0  0
   -1.6248    3.6099    2.4815 H   0  0  0  0  0  0  0  0  0  0  0  0
   -2.2644    3.4949    0.8375 H   0  0  0  0  0  0  0  0  0  0  0  0
   -3.3741    3.5939    2.2175 H   0  0  0  0  0  0  0  0  0  0  0  0
   -0.9750    1.0274    0.1566 N   0  0  0  0  0  0  0  0  0  0  0  0
    0.2023    0.5266   -0.5070 C   0  0  2  0  0  0  0  0  0  0  0  0
    0.1744   -0.9931   -0.3890 C   0  0  0  0  0  0  0  0  0  0  0  0
    0.1323   -1.5798    0.6903 O   0  0  0  0  0  0  0  0  0  0  0  0
    1.4928    1.0850    0.1036 C   0  0  0  0  0  0  0  0  0  0  0  0
    1.6505    2.5689   -0.1216 C   0  0  0  0  0  0  0  0  0  0  0  0
    2.1362    3.0419   -1.3407 C   0  0  0  0  0  0  0  0  0  0  0  0
    1.3112    3.4676    0.8898 C   0  0  0  0  0  0  0  0  0  0  0  0
    2.2824    4.4134   -1.5484 C   0  0  0  0  0  0  0  0  0  0  0  0
    1.4575    4.8391    0.6821 C   0  0  0  0  0  0  0  0  0  0  0  0
    1.9431    5.3120   -0.5370 C   0  0  0  0  0  0  0  0  0  0  0  0
    2.0871    6.6502   -0.7395 O   0  0  0  0  0  0  0  0  0  0  0  0
   -1.7582    1.3241   -0.4207 H   0  0  0  0  0  0  0  0  0  0  0  0
    0.1085    0.8063   -1.5629 H   0  0  0  0  0  0  0  0  0  0  0  0
    2.3656    0.5551   -0.3015 H   0  0  0  0  0  0  0  0  0  0  0  0
    1.5182    0.8968    1.1851 H   0  0  0  0  0  0  0  0  0  0  0  0
    2.4029    2.3490   -2.1342 H   0  0  0  0  0  0  0  0  0  0  0  0
    0.9319    3.1081    1.8430 H   0  0  0  0  0  0  0  0  0  0  0  0
    2.6615    4.7756   -2.5003 H   0  0  0  0  0  0  0  0  0  0  0  0
    1.1918    5.5339    1.4739 H   0  0  0  0  0  0  0  0  0  0  0  0
    1.8114    7.1415    0.0508 H   0  0  0  0  0  0  0  0  0  0  0  0
    0.1519   -1.6104   -1.6320 N   0  0  0  0  0  0  0  0  0  0  0  0
    0.1007   -3.0444   -1.8050 C   0  0  2  0  0  0  0  0  0  0  0  0
    1.1901   -3.6619   -0.9382 C   0  0  0  0  0  0  0  0  0  0  0  0
    2.1801   -3.0390   -0.5601 O   0  0  0  0  0  0  0  0  0  0  0  0
    0.2820   -3.4324   -3.2642 C   0  0  0  0  0  0  0  0  0  0  0  0
    0.1724   -1.0249   -2.4617 H   0  0  0  0  0  0  0  0  0  0  0  0
   -0.8814   -3.3713   -1.4464 H   0  0  0  0  0  0  0  0  0  0  0  0
    1.2604   -3.1130   -3.6412 H   0  0  0  0  0  0  0  0  0  0  0  0
    0.2144   -4.5172   -3.3976 H   0  0  0  0  0  0  0  0  0  0  0  0
   -0.4847   -2.9635   -3.8903 H   0  0  0  0  0  0  0  0  0  0  0  0
    0.9483   -5.0024   -0.6723 N   0  0  0  0  0  0  0  0  0  0  0  0
    1.8431   -5.8140    0.1193 C   0  0  0  0  0  0  0  0  0  0  0  0
    0.0924   -5.4324   -1.0103 H   0  0  0  0  0  0  0  0  0  0  0  0
    2.5618   -6.3201   -0.5420 H   0  0  0  0  0  0  0  0  0  0  0  0
    2.3867   -5.1739    0.8298 H   0  0  0  0  0  0  0  0  0  0  0  0
    1.2624   -6.5661    0.6734 H   0  0  0  0  0  0  0  0  0  0  0  0
 23 25  2  0  0  0  0
 22 23  1  0  0  0  0
 24 26  1  0  0  0  0
 22 24  2  0  0  0  0
 25 27  1  0  0  0  0
 26 27  2  0  0  0  0
 21 22  1  0  0  0  0
 27 28  1  0  0  0  0
  1  3  1  0  0  0  0
  1  7  1  0  0  0  0
  1  2  2  0  0  0  0
 39 40  1  0  0  0  0
 40 48  1  0  0  0  0
 40 41  2  0  0  0  0
  8  9  1  0  0  0  0
  9 17  1  0  0  0  0
  9 10  2  0  0  0  0
 18 19  1  0  0  0  0
 19 38  1  0  0  0  0
 19 20  2  0  0  0  0
 39 42  1  0  0  0  0
  8 11  1  0  0  0  0
 48 49  1  0  0  0  0
 18 21  1  0  0  0  0
 38 39  1  0  0  0  0
  7  8  1  0  0  0  0
 17 18  1  0  0  0  0
 23 33  1  0  0  0  0
 24 34  1  0  0  0  0
 25 35  1  0  0  0  0
 26 36  1  0  0  0  0
  3  4  1  0  0  0  0
  3  5  1  0  0  0  0
  3  6  1  0  0  0  0
 42 45  1  0  0  0  0
 42 46  1  0  0  0  0
 42 47  1  0  0  0  0
 11 14  1  0  0  0  0
 11 15  1  0  0  0  0
 11 16  1  0  0  0  0
 49 51  1  0  0  0  0
 49 52  1  0  0  0  0
 49 53  1  0  0  0  0
 21 31  1  0  0  0  0
 21 32  1  0  0  0  0
 39 44  1  0  0  0  0
  8 13  1  0  0  0  0
 18 30  1  0  0  0  0
 48 50  1  0  0  0  0
  7 12  1  0  0  0  0
 38 43  1  0  0  0  0
 17 29  1  0  0  0  0
 28 37  1  0  0  0  0
M  END
$$$$

  -OEChem-05262214473D

 53 53  0     1  0  0  0  0  0999 V2000
   -1.9298    0.2574    3.9747 C   0  0  0  0  0  0  0  0  0  0  0  0
   -0.9825   -0.3573    3.4990 O   0  0  0  0  0  0  0  0  0  0  0  0
   -2.3617   -0.0250    5.3754 C   0  0  0  0  0  0  0  0  0  0  0  0
   -3.1214   -0.8213    5.4288 H   0  0  0  0  0  0  0  0  0  0  0  0
   -1.5305   -0.3726    6.0097 H   0  0  0  0  0  0  0  0  0  0  0  0
   -2.7997    0.8299    5.9150 H   0  0  0  0  0  0  0  0  0  0  0  0
   -2.6795    1.2298    3.3336 N   0  0  0  0  0  0  0  0  0  0  0  0
   -2.4327    1.6559    1.9812 C   0  0  2  0  0  0  0  0  0  0  0  0
   -1.0977    1.0705    1.5400 C   0  0  0  0  0  0  0  0  0  0  0  0
   -0.2256    0.7177    2.3313 O   0  0  0  0  0  0  0  0  0  0  0  0
   -2.4239    3.1726    1.8718 C   0  0  0  0  0  0  0  0  0  0  0  0
   -3.4446    1.6657    3.8454 H   0  0  0  0  0  0  0  0  0  0  0  0
   -3.2368    1.2374    1.3661 H   0  0  0  0  0  0  0  0  0  0  0  0
   -1.6248    3.6099    2.4815 H   0  0  0  0  0  0  0  0  0  0  0  0
   -2.2644    3.4949    0.8375 H   0  0  0  0  0  0  0  0  0  0  0  0
   -3.3741    3.5939    2.2175 H   0  0  0  0  0  0  0  0  0  0  0  0
   -0.9750    1.0274    0.1566 N   0  0  0  0  0  0  0  0  0  0  0  0
    0.2023    0.5266   -0.5070 C   0  0  2  0  0  0  0  0  0  0  0  0
    0.1744   -0.9931   -0.3890 C   0  0  0  0  0  0  0  0  0  0  0  0
   -0.1334   -1.5783    0.6472 O   0  0  0  0  0  0  0  0  0  0  0  0
    1.4928    1.0850    0.1036 C   0  0  0  0  0  0  0  0  0  0  0  0
    1.6505    2.5689   -0.1216 C   0  0  0  0  0  0  0  0  0  0  0  0
    2.1362    3.0419   -1.3407 C   0  0  0  0  0  0  0  0  0  0  0  0
    1.3112    3.4676    0.8898 C   0  0  0  0  0  0  0  0  0  0  0  0
    2.2824    4.4134   -1.5484 C   0  0  0  0  0  0  0  0  0  0  0  0
    1.4575    4.8391    0.6821 C   0  0  0  0  0  0  0  0  0  0  0  0
    1.9431    5.3120   -0.5370 C   0  0  0  0  0  0  0  0  0  0  0  0
    2.0871    6.6502   -0.7395 O   0  0  0  0  0  0  0  0  0  0  0  0
   -1.7582    1.3241   -0.4207 H   0  0  0  0  0  0  0  0  0  0  0  0
    0.1085    0.8063   -1.5629 H   0  0  0  0  0  0  0  0  0  0  0  0
    2.3656    0.5551   -0.3015 H   0  0  0  0  0  0  0  0  0  0  0  0
    1.5182    0.8968    1.1851 H   0  0  0  0  0  0  0  0  0  0  0  0
    2.4029    2.3490   -2.1342 H   0  0  0  0  0  0  0  0  0  0  0  0
    0.9319    3.1081    1.8430 H   0  0  0  0  0  0  0  0  0  0  0  0
    2.6615    4.7756   -2.5003 H   0  0  0  0  0  0  0  0  0  0  0  0
    1.1918    5.5339    1.4739 H   0  0  0  0  0  0  0  0  0  0  0  0
    1.8114    7.1415    0.0508 H   0  0  0  0  0  0  0  0  0  0  0  0
    0.4854   -1.6134   -1.5911 N   0  0  0  0  0  0  0  0  0  0  0  0
    0.5084   -3.0484   -1.7610 C   0  0  2  0  0  0  0  0  0  0  0  0
    1.3490   -3.6415   -0.6379 C   0  0  0  0  0  0  0  0  0  0  0  0
    2.1956   -2.9975   -0.0219 O   0  0  0  0  0  0  0  0  0  0  0  0
    1.0676   -3.4357   -3.1211 C   0  0  0  0  0  0  0  0  0  0  0  0
    0.7080   -1.0293   -2.3918 H   0  0  0  0  0  0  0  0  0  0  0  0
   -0.5264   -3.3949   -1.6654 H   0  0  0  0  0  0  0  0  0  0  0  0
    2.1038   -3.0970   -3.2354 H   0  0  0  0  0  0  0  0  0  0  0  0
    1.0578   -4.5219   -3.2595 H   0  0  0  0  0  0  0  0  0  0  0  0
    0.4795   -2.9840   -3.9273 H   0  0  0  0  0  0  0  0  0  0  0  0
    1.0729   -4.9862   -0.4336 N   0  0  0  0  0  0  0  0  0  0  0  0
    1.7487   -5.7774    0.5680 C   0  0  0  0  0  0  0  0  0  0  0  0
    0.3417   -5.4344   -0.9778 H   0  0  0  0  0  0  0  0  0  0  0  0
    2.6234   -6.2700    0.1182 H   0  0  0  0  0  0  0  0  0  0  0  0
    2.0779   -5.1248    1.3899 H   0  0  0  0  0  0  0  0  0  0  0  0
    1.0593   -6.5402    0.9590 H   0  0  0  0  0  0  0  0  0  0  0  0
 23 25  2  0  0  0  0
 22 23  1  0  0  0  0
 24 26  1  0  0  0  0
 22 24  2  0  0  0  0
 25 27  1  0  0  0  0
 26 27  2  0  0  0  0
 21 22  1  0  0  0  0
 27 28  1  0  0  0  0
  1  3  1  0  0  0  0
  1  7  1  0  0  0  0
  1  2  2  0  0  0  0
 39 40  1  0  0  0  0
 40 48  1  0  0  0  0
 40 41  2  0  0  0  0
  8  9  1  0  0  0  0
  9 17  1  0  0  0  0
  9 10  2  0  0  0  0
 18 19  1  0  0  0  0
 19 38  1  0  0  0  0
 19 20  2  0  0  0  0
 39 42  1  0  0  0  0
  8 11  1  0  0  0  0
 48 49  1  0  0  0  0
 18 21  1  0  0  0  0
 38 39  1  0  0  0  0
  7  8  1  0  0  0  0
 17 18  1  0  0  0  0
 23 33  1  0  0  0  0
 24 34  1  0  0  0  0
 25 35  1  0  0  0  0
 26 36  1  0  0  0  0
  3  4  1  0  0  0  0
  3  5  1  0  0  0  0
  3  6  1  0  0  0  0
 42 45  1  0  0  0  0
 42 46  1  0  0  0  0
 42 47  1  0  0  0  0
 11 14  1  0  0  0  0
 11 15  1  0  0  0  0
 11 16  1  0  0  0  0
 49 51  1  0  0  0  0
 49 52  1  0  0  0  0
 49 53  1  0  0  0  0
 21 31  1  0  0  0  0
 21 32  1  0  0  0  0
 39 44  1  0  0  0  0
  8 13  1  0  0  0  0
 18 30  1  0  0  0  0
 48 50  1  0  0  0  0
  7 12  1  0  0  0  0
 38 43  1  0  0  0  0
 17 29  1  0  0  0  0
 28 37  1  0  0  0  0
M  END
$$$$

  -OEChem-05262214473D

 53 53  0     1  0  0  0  0  0999 V2000
   -1.9298    0.2574    3.9747 C   0  0  0  0  0  0  0  0  0  0  0  0
   -0.9825   -0.3573    3.4990 O   0  0  0  0  0  0  0  0  0  0  0  0
   -2.3617   -0.0250    5.3754 C   0  0  0  0  0  0  0  0  0  0  0  0
   -3.1214   -0.8213    5.4288 H   0  0  0  0  0  0  0  0  0  0  0  0
   -1.5305   -0.3726    6.0097 H   0  0  0  0  0  0  0  0  0  0  0  0
   -2.7997    0.8299    5.9150 H   0  0  0  0  0  0  0  0  0  0  0  0
   -2.6795    1.2298    3.3336 N   0  0  0  0  0  0  0  0  0  0  0  0
   -2.4327    1.6559    1.9812 C   0  0  2  0  0  0  0  0  0  0  0  0
   -1.0977    1.0705    1.5400 C   0  0  0  0  0  0  0  0  0  0  0  0
   -0.2256    0.7177    2.3313 O   0  0  0  0  0  0  0  0  0  0  0  0
   -2.4239    3.1726    1.8718 C   0  0  0  0  0  0  0  0  0  0  0  0
   -3.4446    1.6657    3.8454 H   0  0  0  0  0  0  0  0  0  0  0  0
   -3.2368    1.2374    1.3661 H   0  0  0  0  0  0  0  0  0  0  0  0
   -1.6248    3.6099    2.4815 H   0  0  0  0  0  0  0  0  0  0  0  0
   -2.2644    3.4949    0.8375 H   0  0  0  0  0  0  0  0  0  0  0  0
   -3.3741    3.5939    2.2175 H   0  0  0  0  0  0  0  0  0  0  0  0
   -0.9750    1.0274    0.1566 N   0  0  0  0  0  0  0  0  0  0  0  0
    0.2023    0.5266   -0.5070 C   0  0  2  0  0  0  0  0  0  0  0  0
    0.1744   -0.9931   -0.3890 C   0  0  0  0  0  0  0  0  0  0  0  0
   -0.3790   -1.5823    0.5370 O   0  0  0  0  0  0  0  0  0  0  0  0
    1.4928    1.0850    0.1036 C   0  0  0  0  0  0  0  0  0  0  0  0
    1.6505    2.5689   -0.1216 C   0  0  0  0  0  0  0  0  0  0  0  0
    2.1362    3.0419   -1.3407 C   0  0  0  0  0  0  0  0  0  0  0  0
    1.3112    3.4676    0.8898 C   0  0  0  0  0  0  0  0  0  0  0  0
    2.2824    4.4134   -1.5484 C   0  0  0  0  0  0  0  0  0  0  0  0
    1.4575    4.8391    0.6821 C   0  0  0  0  0  0  0  0  0  0  0  0
    1.9431    5.3120   -0.5370 C   0  0  0  0  0  0  0  0  0  0  0  0
    2.0871    6.6502   -0.7395 O   0  0  0  0  0  0  0  0  0  0  0  0
   -1.7582    1.3241   -0.4207 H   0  0  0  0  0  0  0  0  0  0  0  0
    0.1085    0.8063   -1.5629 H   0  0  0  0  0  0  0  0  0  0  0  0
    2.3656    0.5551   -0.3015 H   0  0  0  0  0  0  0  0  0  0  0  0
    1.5182    0.8968    1.1851 H   0  0  0  0  0  0  0  0  0  0  0  0
    2.4029    2.3490   -2.1342 H   0  0  0  0  0  0  0  0  0  0  0  0
    0.9319    3.1081    1.8430 H   0  0  0  0  0  0  0  0  0  0  0  0
    2.6615    4.7756   -2.5003 H   0  0  0  0  0  0  0  0  0  0  0  0
    1.1918    5.5339    1.4739 H   0  0  0  0  0  0  0  0  0  0  0  0
    1.8114    7.1415    0.0508 H   0  0  0  0  0  0  0  0  0  0  0  0
    0.7970   -1.6093   -1.4656 N   0  0  0  0  0  0  0  0  0  0  0  0
    0.8910   -3.0440   -1.6133 C   0  0  2  0  0  0  0  0  0  0  0  0
    1.4246   -3.6172   -0.3071 C   0  0  0  0  0  0  0  0  0  0  0  0
    2.0709   -2.9545    0.5018 O   0  0  0  0  0  0  0  0  0  0  0  0
    1.7896   -3.4225   -2.7803 C   0  0  0  0  0  0  0  0  0  0  0  0
    1.2073   -1.0225   -2.1861 H   0  0  0  0  0  0  0  0  0  0  0  0
   -0.1265   -3.4115   -1.7853 H   0  0  0  0  0  0  0  0  0  0  0  0
    2.8134   -3.0626   -2.6258 H   0  0  0  0  0  0  0  0  0  0  0  0
    1.8369   -4.5089   -2.9085 H   0  0  0  0  0  0  0  0  0  0  0  0
    1.4208   -2.9846   -3.7141 H   0  0  0  0  0  0  0  0  0  0  0  0
    1.1313   -4.9668   -0.1710 N   0  0  0  0  0  0  0  0  0  0  0  0
    1.5410   -5.7419    0.9768 C   0  0  0  0  0  0  0  0  0  0  0  0
    0.5741   -5.4312   -0.8821 H   0  0  0  0  0  0  0  0  0  0  0  0
    2.5115   -6.2172    0.7715 H   0  0  0  0  0  0  0  0  0  0  0  0
    1.6342   -5.0809    1.8511 H   0  0  0  0  0  0  0  0  0  0  0  0
    0.7890   -6.5179    1.1824 H   0  0  0  0  0  0  0  0  0  0  0  0
 23 25  2  0  0  0  0
 22 23  1  0  0  0  0
 24 26  1  0  0  0  0
 22 24  2  0  0  0  0
 25 27  1  0  0  0  0
 26 27  2  0  0  0  0
 21 22  1  0  0  0  0
 27 28  1  0  0  0  0
  1  3  1  0  0  0  0
  1  7  1  0  0  0  0
  1  2  2  0  0  0  0
 39 40  1  0  0  0  0
 40 48  1  0  0  0  0
 40 41  2  0  0  0  0
  8  9  1  0  0  0  0
  9 17  1  0  0  0  0
  9 10  2  0  0  0  0
 18 19  1  0  0  0  0
 19 38  1  0  0  0  0
 19 20  2  0  0  0  0
 39 42  1  0  0  0  0
  8 11  1  0  0  0  0
 48 49  1  0  0  0  0
 18 21  1  0  0  0  0
 38 39  1  0  0  0  0
  7  8  1  0  0  0  0
 17 18  1  0  0  0  0
 23 33  1  0  0  0  0
 24 34  1  0  0  0  0
 25 35  1  0  0  0  0
 26 36  1  0  0  0  0
  3  4  1  0  0  0  0
  3  5  1  0  0  0  0
  3  6  1  0  0  0  0
 42 45  1  0  0  0  0
 42 46  1  0  0  0  0
 42 47  1  0  0  0  0
 11 14  1  0  0  0  0
 11 15  1  0  0  0  0
 11 16  1  0  0  0  0
 49 51  1  0  0  0  0
 49 52  1  0  0  0  0
 49 53  1  0  0  0  0
 21 31  1  0  0  0  0
 21 32  1  0  0  0  0
 39 44  1  0  0  0  0
  8 13  1  0  0  0  0
 18 30  1  0  0  0  0
 48 50  1  0  0  0  0
  7 12  1  0  0  0  0
 38 43  1  0  0  0  0
 17 29  1  0  0  0  0
 28 37  1  0  0  0  0
M  END
$$$$

  -OEChem-05262214473D

 53 53  0     1  0  0  0  0  0999 V2000
   -1.9298    0.2574    3.9747 C   0  0  0  0  0  0  0  0  0  0  0  0
   -0.9825   -0.3573    3.4990 O   0  0  0  0  0  0  0  0  0  0  0  0
   -2.3617   -0.0250    5.3754 C   0  0  0  0  0  0  0  0  0  0  0  0
   -3.1214   -0.8213    5.4288 H   0  0  0  0  0  0  0  0  0  0  0  0
   -1.5305   -0.3726    6.0097 H   0  0  0  0  0  0  0  0  0  0  0  0
   -2.7997    0.8299    5.9150 H   0  0  0  0  0  0  0  0  0  0  0  0
   -2.6795    1.2298    3.3336 N   0  0  0  0  0  0  0  0  0  0  0  0
   -2.4327    1.6559    1.9812 C   0  0  2  0  0  0  0  0  0  0  0  0
   -1.0977    1.0705    1.5400 C   0  0  0  0  0  0  0  0  0  0  0  0
   -0.2256    0.7177    2.3313 O   0  0  0  0  0  0  0  0  0  0  0  0
   -2.4239    3.1726    1.8718 C   0  0  0  0  0  0  0  0  0  0  0  0
   -3.4446    1.6657    3.8454 H   0  0  0  0  0  0  0  0  0  0  0  0
   -3.2368    1.2374    1.3661 H   0  0  0  0  0  0  0  0  0  0  0  0
   -1.6248    3.6099    2.4815 H   0  0  0  0  0  0  0  0  0  0  0  0
   -2.2644    3.4949    0.8375 H   0  0  0  0  0  0  0  0  0  0  0  0
   -3.3741    3.5939    2.2175 H   0  0  0  0  0  0  0  0  0  0  0  0
   -0.9750    1.0274    0.1566 N   0  0  0  0  0  0  0  0  0  0  0  0
    0.2023    0.5266   -0.5070 C   0  0  2  0  0  0  0  0  0  0  0  0
    0.1744   -0.9931   -0.3890 C   0  0  0  0  0  0  0  0  0  0  0  0
   -0.5876   -1.5917    0.3672 O   0  0  0  0  0  0  0  0  0  0  0  0
    1.4928    1.0850    0.1036 C   0  0  0  0  0  0  0  0  0  0  0  0
    1.6505    2.5689   -0.1216 C   0  0  0  0  0  0  0  0  0  0  0  0
    2.1362    3.0419   -1.3407 C   0  0  0  0  0  0  0  0  0  0  0  0
    1.3112    3.4676    0.8898 C   0  0  0  0  0  0  0  0  0  0  0  0
    2.2824    4.4134   -1.5484 C   0  0  0  0  0  0  0  0  0  0  0  0
    1.4575    4.8391    0.6821 C   0  0  0  0  0  0  0  0  0  0  0  0
    1.9431    5.3120   -0.5370 C   0  0  0  0  0  0  0  0  0  0  0  0
    2.0871    6.6502   -0.7395 O   0  0  0  0  0  0  0  0  0  0  0  0
   -1.7582    1.3241   -0.4207 H   0  0  0  0  0  0  0  0  0  0  0  0
    0.1085    0.8063   -1.5629 H   0  0  0  0  0  0  0  0  0  0  0  0
    2.3656    0.5551   -0.3015 H   0  0  0  0  0  0  0  0  0  0  0  0
    1.5182    0.8968    1.1851 H   0  0  0  0  0  0  0  0  0  0  0  0
    2.4029    2.3490   -2.1342 H   0  0  0  0  0  0  0  0  0  0  0  0
    0.9319    3.1081    1.8430 H   0  0  0  0  0  0  0  0  0  0  0  0
    2.6615    4.7756   -2.5003 H   0  0  0  0  0  0  0  0  0  0  0  0
    1.1918    5.5339    1.4739 H   0  0  0  0  0  0  0  0  0  0  0  0
    1.8114    7.1415    0.0508 H   0  0  0  0  0  0  0  0  0  0  0  0
    1.0656   -1.5986   -1.2641 N   0  0  0  0  0  0  0  0  0  0  0  0
    1.2223   -3.0313   -1.3719 C   0  0  2  0  0  0  0  0  0  0  0  0
    1.4118   -3.5906    0.0319 C   0  0  0  0  0  0  0  0  0  0  0  0
    1.8145   -2.9131    0.9753 O   0  0  0  0  0  0  0  0  0  0  0  0
    2.3988   -3.3936   -2.2648 C   0  0  0  0  0  0  0  0  0  0  0  0
    1.6364   -1.0049   -1.8586 H   0  0  0  0  0  0  0  0  0  0  0  0
    0.2910   -3.4201   -1.7979 H   0  0  0  0  0  0  0  0  0  0  0  0
    3.3409   -3.0124   -1.8541 H   0  0  0  0  0  0  0  0  0  0  0  0
    2.4987   -4.4791   -2.3684 H   0  0  0  0  0  0  0  0  0  0  0  0
    2.2750   -2.9654   -3.2654 H   0  0  0  0  0  0  0  0  0  0  0  0
    1.1196   -4.9458    0.0976 N   0  0  0  0  0  0  0  0  0  0  0  0
    1.2342   -5.7098    1.3179 C   0  0  0  0  0  0  0  0  0  0  0  0
    0.7739   -5.4231   -0.7297 H   0  0  0  0  0  0  0  0  0  0  0  0
    2.2338   -6.1654    1.3734 H   0  0  0  0  0  0  0  0  0  0  0  0
    1.0858   -5.0451    2.1818 H   0  0  0  0  0  0  0  0  0  0  0  0
    0.4698   -6.5007    1.3283 H   0  0  0  0  0  0  0  0  0  0  0  0
 23 25  2  0  0  0  0
 22 23  1  0  0  0  0
 24 26  1  0  0  0  0
 22 24  2  0  0  0  0
 25 27  1  0  0  0  0
 26 27  2  0  0  0  0
 21 22  1  0  0  0  0
 27 28  1  0  0  0  0
  1  3  1  0  0  0  0
  1  7  1  0  0  0  0
  1  2  2  0  0  0  0
 39 40  1  0  0  0  0
 40 48  1  0  0  0  0
 40 41  2  0  0  0  0
  8  9  1  0  0  0  0
  9 17  1  0  0  0  0
  9 10  2  0  0  0  0
 18 19  1  0  0  0  0
 19 38  1  0  0  0  0
 19 20  2  0  0  0  0
 39 42  1  0  0  0  0
  8 11  1  0  0  0  0
 48 49  1  0  0  0  0
 18 21  1  0  0  0  0
 38 39  1  0  0  0  0
  7  8  1  0  0  0  0
 17 18  1  0  0  0  0
 23 33  1  0  0  0  0
 24 34  1  0  0  0  0
 25 35  1  0  0  0  0
 26 36  1  0  0  0  0
  3  4  1  0  0  0  0
  3  5  1  0  0  0  0
  3  6  1  0  0  0  0
 42 45  1  0  0  0  0
 42 46  1  0  0  0  0
 42 47  1  0  0  0  0
 11 14  1  0  0  0  0
 11 15  1  0  0  0  0
 11 16  1  0  0  0  0
 49 51  1  0  0  0  0
 49 52  1  0  0  0  0
 49 53  1  0  0  0  0
 21 31  1  0  0  0  0
 21 32  1  0  0  0  0
 39 44  1  0  0  0  0
  8 13  1  0  0  0  0
 18 30  1  0  0  0  0
 48 50  1  0  0  0  0
  7 12  1  0  0  0  0
 38 43  1  0  0  0  0
 17 29  1  0  0  0  0
 28 37  1  0  0  0  0
M  END
$$$$

  -OEChem-05262214473D

 53 53  0     1  0  0  0  0  0999 V2000
   -1.9298    0.2574    3.9747 C   0  0  0  0  0  0  0  0  0  0  0  0
   -0.9825   -0.3573    3.4990 O   0  0  0  0  0  0  0  0  0  0  0  0
   -2.3617   -0.0250    5.3754 C   0  0  0  0  0  0  0  0  0  0  0  0
   -3.1214   -0.8213    5.4288 H   0  0  0  0  0  0  0  0  0  0  0  0
   -1.5305   -0.3726    6.0097 H   0  0  0  0  0  0  0  0  0  0  0  0
   -2.7997    0.8299    5.9150 H   0  0  0  0  0  0  0  0  0  0  0  0
   -2.6795    1.2298    3.3336 N   0  0  0  0  0  0  0  0  0  0  0  0
   -2.4327    1.6559    1.9812 C   0  0  2  0  0  0  0  0  0  0  0  0
   -1.0977    1.0705    1.5400 C   0  0  0  0  0  0  0  0  0  0  0  0
   -0.2256    0.7177    2.3313 O   0  0  0  0  0  0  0  0  0  0  0  0
   -2.4239    3.1726    1.8718 C   0  0  0  0  0  0  0  0  0  0  0  0
   -3.4446    1.6657    3.8454 H   0  0  0  0  0  0  0  0  0  0  0  0
   -3.2368    1.2374    1.3661 H   0  0  0  0  0  0  0  0  0  0  0  0
   -1.6248    3.6099    2.4815 H   0  0  0  0  0  0  0  0  0  0  0  0
   -2.2644    3.4949    0.8375 H   0  0  0  0  0  0  0  0  0  0  0  0
   -3.3741    3.5939    2.2175 H   0  0  0  0  0  0  0  0  0  0  0  0
   -0.9750    1.0274    0.1566 N   0  0  0  0  0  0  0  0  0  0  0  0
    0.2023    0.5266   -0.5070 C   0  0  2  0  0  0  0  0  0  0  0  0
   -0.0038   -0.9683   -0.7239 C   0  0  0  0  0  0  0  0  0  0  0  0
   -1.0354   -1.5549   -0.4037 O   0  0  0  0  0  0  0  0  0  0  0  0
    1.4766    0.7762    0.3078 C   0  0  0  0  0  0  0  0  0  0  0  0
    1.8181    2.2418    0.4227 C   0  0  0  0  0  0  0  0  0  0  0  0
    2.4753    2.8890   -0.6237 C   0  0  0  0  0  0  0  0  0  0  0  0
    1.4772    2.9489    1.5756 C   0  0  0  0  0  0  0  0  0  0  0  0
    2.7914    4.2434   -0.5172 C   0  0  0  0  0  0  0  0  0  0  0  0
    1.7933    4.3033    1.6822 C   0  0  0  0  0  0  0  0  0  0  0  0
    2.4505    4.9505    0.6358 C   0  0  0  0  0  0  0  0  0  0  0  0
    2.7602    6.2718    0.7401 O   0  0  0  0  0  0  0  0  0  0  0  0
   -1.7582    1.3241   -0.4207 H   0  0  0  0  0  0  0  0  0  0  0  0
    0.2487    1.0275   -1.4812 H   0  0  0  0  0  0  0  0  0  0  0  0
    2.3231    0.2331   -0.1340 H   0  0  0  0  0  0  0  0  0  0  0  0
    1.3699    0.3676    1.3214 H   0  0  0  0  0  0  0  0  0  0  0  0
    2.7447    2.3459   -1.5256 H   0  0  0  0  0  0  0  0  0  0  0  0
    0.9649    2.4528    2.3960 H   0  0  0  0  0  0  0  0  0  0  0  0
    3.3038    4.7420   -1.3357 H   0  0  0  0  0  0  0  0  0  0  0  0
    1.5254    4.8484    2.5829 H   0  0  0  0  0  0  0  0  0  0  0  0
    2.4602    6.6211    1.5944 H   0  0  0  0  0  0  0  0  0  0  0  0
    1.0804   -1.5551   -1.3615 N   0  0  0  0  0  0  0  0  0  0  0  0
    1.1340   -2.9574   -1.7074 C   0  0  2  0  0  0  0  0  0  0  0  0
    0.7623   -3.7617   -0.4687 C   0  0  0  0  0  0  0  0  0  0  0  0
    0.8647   -3.3198    0.6738 O   0  0  0  0  0  0  0  0  0  0  0  0
    2.5123   -3.3494   -2.2167 C   0  0  0  0  0  0  0  0  0  0  0  0
    1.8763   -0.9695   -1.5970 H   0  0  0  0  0  0  0  0  0  0  0  0
    0.3827   -3.1195   -2.4879 H   0  0  0  0  0  0  0  0  0  0  0  0
    3.2784   -3.1938   -1.4484 H   0  0  0  0  0  0  0  0  0  0  0  0
    2.5431   -4.4053   -2.5051 H   0  0  0  0  0  0  0  0  0  0  0  0
    2.7904   -2.7491   -3.0897 H   0  0  0  0  0  0  0  0  0  0  0  0
    0.3437   -5.0462   -0.7868 N   0  0  0  0  0  0  0  0  0  0  0  0
   -0.0514   -6.0080    0.2156 C   0  0  0  0  0  0  0  0  0  0  0  0
    0.2715   -5.3211   -1.7619 H   0  0  0  0  0  0  0  0  0  0  0  0
    0.8179   -6.6183    0.5017 H   0  0  0  0  0  0  0  0  0  0  0  0
   -0.4349   -5.4788    1.1004 H   0  0  0  0  0  0  0  0  0  0  0  0
   -0.8386   -6.6595   -0.1917 H   0  0  0  0  0  0  0  0  0  0  0  0
 23 25  2  0  0  0  0
 22 23  1  0  0  0  0
 24 26  1  0  0  0  0
 22 24  2  0  0  0  0
 25 27  1  0  0  0  0
 26 27  2  0  0  0  0
 21 22  1  0  0  0  0
 27 28  1  0  0  0  0
  1  3  1  0  0  0  0
  1  7  1  0  0  0  0
  1  2  2  0  0  0  0
 39 40  1  0  0  0  0
 40 48  1  0  0  0  0
 40 41  2  0  0  0  0
  8  9  1  0  0  0  0
  9 17  1  0  0  0  0
  9 10  2  0  0  0  0
 18 19  1  0  0  0  0
 19 38  1  0  0  0  0
 19 20  2  0  0  0  0
 39 42  1  0  0  0  0
  8 11  1  0  0  0  0
 48 49  1  0  0  0  0
 18 21  1  0  0  0  0
 38 39  1  0  0  0  0
  7  8  1  0  0  0  0
 17 18  1  0  0  0  0
 23 33  1  0  0  0  0
 24 34  1  0  0  0  0
 25 35  1  0  0  0  0
 26 36  1  0  0  0  0
  3  4  1  0  0  0  0
  3  5  1  0  0  0  0
  3  6  1  0  0  0  0
 42 45  1  0  0  0  0
 42 46  1  0  0  0  0
 42 47  1  0  0  0  0
 11 14  1  0  0  0  0
 11 15  1  0  0  0  0
 11 16  1  0  0  0  0
 49 51  1  0  0  0  0
 49 52  1  0  0  0  0
 49 53  1  0  0  0  0
 21 31  1  0  0  0  0
 21 32  1  0  0  0  0
 39 44  1  0  0  0  0
  8 13  1  0  0  0  0
 18 30  1  0  0  0  0
 48 50  1  0  0  0  0
  7 12  1  0  0  0  0
 38 43  1  0  0  0  0
 17 29  1  0  0  0  0
 28 37  1  0  0  0  0
M  END
$$$$

  -OEChem-05262214473D

 53 53  0     1  0  0  0  0  0999 V2000
   -1.9298    0.2574    3.9747 C   0  0  0  0  0  0  0  0  0  0  0  0
   -0.9825   -0.3573    3.4990 O   0  0  0  0  0  0  0  0  0  0  0  0
   -2.3617   -0.0250    5.3754 C   0  0  0  0  0  0  0  0  0  0  0  0
   -3.1214   -0.8213    5.4288 H   0  0  0  0  0  0  0  0  0  0  0  0
   -1.5305   -0.3726    6.0097 H   0  0  0  0  0  0  0  0  0  0  0  0
   -2.7997    0.8299    5.9150 H   0  0  0  0  0  0  0  0  0  0  0  0
   -2.6795    1.2298    3.3336 N   0  0  0  0  0  0  0  0  0  0  0  0
   -2.4327    1.6559    1.9812 C   0  0  2  0  0  0  0  0  0  0  0  0
   -1.0977    1.0705    1.5400 C   0  0  0  0  0  0  0  0  0  0  0  0
   -0.2256    0.7177    2.3313 O   0  0  0  0  0  0  0  0  0  0  0  0
   -2.4239    3.1726    1.8718 C   0  0  0  0  0  0  0  0  0  0  0  0
   -3.4446    1.6657    3.8454 H   0  0  0  0  0  0  0  0  0  0  0  0
   -3.2368    1.2374    1.3661 H   0  0  0  0  0  0  0  0  0  0  0  0
   -1.6248    3.6099    2.4815 H   0  0  0  0  0  0  0  0  0  0  0  0
   -2.2644    3.4949    0.8375 H   0  0  0  0  0  0  0  0  0  0  0  0
   -3.3741    3.5939    2.2175 H   0  0  0  0  0  0  0  0  0  0  0  0
   -0.9750    1.0274    0.1566 N   0  0  0  0  0  0  0  0  0  0  0  0
    0.2023    0.5266   -0.5070 C   0  0  2  0  0  0  0  0  0  0  0  0
   -0.0038   -0.9683   -0.7239 C   0  0  0  0  0  0  0  0  0  0  0  0
   -1.1062   -1.5081   -0.6592 O   0  0  0  0  0  0  0  0  0  0  0  0
    1.4766    0.7762    0.3078 C   0  0  0  0  0  0  0  0  0  0  0  0
    1.8181    2.2418    0.4227 C   0  0  0  0  0  0  0  0  0  0  0  0
    2.4753    2.8890   -0.6237 C   0  0  0  0  0  0  0  0  0  0  0  0
    1.4772    2.9489    1.5756 C   0  0  0  0  0  0  0  0  0  0  0  0
    2.7914    4.2434   -0.5172 C   0  0  0  0  0  0  0  0  0  0  0  0
    1.7933    4.3033    1.6822 C   0  0  0  0  0  0  0  0  0  0  0  0
    2.4505    4.9505    0.6358 C   0  0  0  0  0  0  0  0  0  0  0  0
    2.7602    6.2718    0.7401 O   0  0  0  0  0  0  0  0  0  0  0  0
   -1.7582    1.3241   -0.4207 H   0  0  0  0  0  0  0  0  0  0  0  0
    0.2487    1.0275   -1.4812 H   0  0  0  0  0  0  0  0  0  0  0  0
    2.3231    0.2331   -0.1340 H   0  0  0  0  0  0  0  0  0  0  0  0
    1.3699    0.3676    1.3214 H   0  0  0  0  0  0  0  0  0  0  0  0
    2.7447    2.3459   -1.5256 H   0  0  0  0  0  0  0  0  0  0  0  0
    0.9649    2.4528    2.3960 H   0  0  0  0  0  0  0  0  0  0  0  0
    3.3038    4.7420   -1.3357 H   0  0  0  0  0  0  0  0  0  0  0  0
    1.5254    4.8484    2.5829 H   0  0  0  0  0  0  0  0  0  0  0  0
    2.4602    6.6211    1.5944 H   0  0  0  0  0  0  0  0  0  0  0  0
    1.1813   -1.6147   -1.0467 N   0  0  0  0  0  0  0  0  0  0  0  0
    1.2627   -3.0306   -1.3249 C   0  0  2  0  0  0  0  0  0  0  0  0
    0.5566   -3.7727   -0.1979 C   0  0  0  0  0  0  0  0  0  0  0  0
    0.3847   -3.2892    0.9192 O   0  0  0  0  0  0  0  0  0  0  0  0
    2.7075   -3.4869   -1.4547 C   0  0  0  0  0  0  0  0  0  0  0  0
    2.0344   -1.0650   -1.0894 H   0  0  0  0  0  0  0  0  0  0  0  0
    0.7273   -3.1993   -2.2656 H   0  0  0  0  0  0  0  0  0  0  0  0
    3.2599   -3.3257   -0.5218 H   0  0  0  0  0  0  0  0  0  0  0  0
    2.7667   -4.5538   -1.6937 H   0  0  0  0  0  0  0  0  0  0  0  0
    3.2222   -2.9311   -2.2459 H   0  0  0  0  0  0  0  0  0  0  0  0
    0.1794   -5.0545   -0.5730 N   0  0  0  0  0  0  0  0  0  0  0  0
   -0.4960   -5.9625    0.3245 C   0  0  0  0  0  0  0  0  0  0  0  0
    0.3451   -5.3655   -1.5257 H   0  0  0  0  0  0  0  0  0  0  0  0
    0.2466   -6.5887    0.8407 H   0  0  0  0  0  0  0  0  0  0  0  0
   -1.0688   -5.3865    1.0661 H   0  0  0  0  0  0  0  0  0  0  0  0
   -1.1806   -6.6040   -0.2499 H   0  0  0  0  0  0  0  0  0  0  0  0
 23 25  2  0  0  0  0
 22 23  1  0  0  0  0
 24 26  1  0  0  0  0
 22 24  2  0  0  0  0
 25 27  1  0  0  0  0
 26 27  2  0  0  0  0
 21 22  1  0  0  0  0
 27 28  1  0  0  0  0
  1  3  1  0  0  0  0
  1  7  1  0  0  0  0
  1  2  2  0  0  0  0
 39 40  1  0  0  0  0
 40 48  1  0  0  0  0
 40 41  2  0  0  0  0
  8  9  1  0  0  0  0
  9 17  1  0  0  0  0
  9 10  2  0  0  0  0
 18 19  1  0  0  0  0
 19 38  1  0  0  0  0
 19 20  2  0  0  0  0
 39 42  1  0  0  0  0
  8 11  1  0  0  0  0
 48 49  1  0  0  0  0
 18 21  1  0  0  0  0
 38 39  1  0  0  0  0
  7  8  1  0  0  0  0
 17 18  1  0  0  0  0
 23 33  1  0  0  0  0
 24 34  1  0  0  0  0
 25 35  1  0  0  0  0
 26 36  1  0  0  0  0
  3  4  1  0  0  0  0
  3  5  1  0  0  0  0
  3  6  1  0  0  0  0
 42 45  1  0  0  0  0
 42 46  1  0  0  0  0
 42 47  1  0  0  0  0
 11 14  1  0  0  0  0
 11 15  1  0  0  0  0
 11 16  1  0  0  0  0
 49 51  1  0  0  0  0
 49 52  1  0  0  0  0
 49 53  1  0  0  0  0
 21 31  1  0  0  0  0
 21 32  1  0  0  0  0
 39 44  1  0  0  0  0
  8 13  1  0  0  0  0
 18 30  1  0  0  0  0
 48 50  1  0  0  0  0
  7 12  1  0  0  0  0
 38 43  1  0  0  0  0
 17 29  1  0  0  0  0
 28 37  1  0  0  0  0
M  END
$$$$

  -OEChem-05262214473D

 53 53  0     1  0  0  0  0  0999 V2000
   -1.9298    0.2574    3.9747 C   0  0  0  0  0  0  0  0  0  0  0  0
   -0.9825   -0.3573    3.4990 O   0  0  0  0  0  0  0  0  0  0  0  0
   -2.3617   -0.0250    5.3754 C   0  0  0  0  0  0  0  0  0  0  0  0
   -3.1214   -0.8213    5.4288 H   0  0  0  0  0  0  0  0  0  0  0  0
   -1.5305   -0.3726    6.0097 H   0  0  0  0  0  0  0  0  0  0  0  0
   -2.7997    0.8299    5.9150 H   0  0  0  0  0  0  0  0  0  0  0  0
   -2.6795    1.2298    3.3336 N   0  0  0  0  0  0  0  0  0  0  0  0
   -2.4327    1.6559    1.9812 C   0  0  2  0  0  0  0  0  0  0  0  0
   -1.0977    1.0705    1.5400 C   0  0  0  0  0  0  0  0  0  0  0  0
   -0.2256    0.7177    2.3313 O   0  0  0  0  0  0  0  0  0  0  0  0
   -2.4239    3.1726    1.8718 C   0  0  0  0  0  0  0  0  0  0  0  0
   -3.4446    1.6657    3.8454 H   0  0  0  0  0  0  0  0  0  0  0  0
   -3.2368    1.2374    1.3661 H   0  0  0  0  0  0  0  0  0  0  0  0
   -1.6248    3.6099    2.4815 H   0  0  0  0  0  0  0  0  0  0  0  0
   -2.2644    3.4949    0.8375 H   0  0  0  0  0  0  0  0  0  0  0  0
   -3.3741    3.5939    2.2175 H   0  0  0  0  0  0  0  0  0  0  0  0
   -0.9750    1.0274    0.1566 N   0  0  0  0  0  0  0  0  0  0  0  0
    0.2023    0.5266   -0.5070 C   0  0  2  0  0  0  0  0  0  0  0  0
   -0.0038   -0.9683   -0.7239 C   0  0  0  0  0  0  0  0  0  0  0  0
   -1.1080   -1.4692   -0.9255 O   0  0  0  0  0  0  0  0  0  0  0  0
    1.4766    0.7762    0.3078 C   0  0  0  0  0  0  0  0  0  0  0  0
    1.8181    2.2418    0.4227 C   0  0  0  0  0  0  0  0  0  0  0  0
    2.4753    2.8890   -0.6237 C   0  0  0  0  0  0  0  0  0  0  0  0
    1.4772    2.9489    1.5756 C   0  0  0  0  0  0  0  0  0  0  0  0
    2.7914    4.2434   -0.5172 C   0  0  0  0  0  0  0  0  0  0  0  0
    1.7933    4.3033    1.6822 C   0  0  0  0  0  0  0  0  0  0  0  0
    2.4505    4.9505    0.6358 C   0  0  0  0  0  0  0  0  0  0  0  0
    2.7602    6.2718    0.7401 O   0  0  0  0  0  0  0  0  0  0  0  0
   -1.7582    1.3241   -0.4207 H   0  0  0  0  0  0  0  0  0  0  0  0
    0.2487    1.0275   -1.4812 H   0  0  0  0  0  0  0  0  0  0  0  0
    2.3231    0.2331   -0.1340 H   0  0  0  0  0  0  0  0  0  0  0  0
    1.3699    0.3676    1.3214 H   0  0  0  0  0  0  0  0  0  0  0  0
    2.7447    2.3459   -1.5256 H   0  0  0  0  0  0  0  0  0  0  0  0
    0.9649    2.4528    2.3960 H   0  0  0  0  0  0  0  0  0  0  0  0
    3.3038    4.7420   -1.3357 H   0  0  0  0  0  0  0  0  0  0  0  0
    1.5254    4.8484    2.5829 H   0  0  0  0  0  0  0  0  0  0  0  0
    2.4602    6.6211    1.5944 H   0  0  0  0  0  0  0  0  0  0  0  0
    1.1966   -1.6650   -0.7148 N   0  0  0  0  0  0  0  0  0  0  0  0
    1.2872   -3.0927   -0.9203 C   0  0  2  0  0  0  0  0  0  0  0  0
    0.2888   -3.7662    0.0119 C   0  0  0  0  0  0  0  0  0  0  0  0
   -0.1402   -3.2335    1.0333 O   0  0  0  0  0  0  0  0  0  0  0  0
    2.6977   -3.6002   -0.6643 C   0  0  0  0  0  0  0  0  0  0  0  0
    2.0547   -1.1452   -0.5557 H   0  0  0  0  0  0  0  0  0  0  0  0
    1.0009   -3.2812   -1.9607 H   0  0  0  0  0  0  0  0  0  0  0  0
    3.0021   -3.4200    0.3732 H   0  0  0  0  0  0  0  0  0  0  0  0
    2.7713   -4.6771   -0.8480 H   0  0  0  0  0  0  0  0  0  0  0  0
    3.4184   -3.0932   -1.3150 H   0  0  0  0  0  0  0  0  0  0  0  0
   -0.0339   -5.0491   -0.4079 N   0  0  0  0  0  0  0  0  0  0  0  0
   -0.9513   -5.8984    0.3152 C   0  0  0  0  0  0  0  0  0  0  0  0
    0.3546   -5.4029   -1.2772 H   0  0  0  0  0  0  0  0  0  0  0  0
   -0.3902   -6.5273    1.0220 H   0  0  0  0  0  0  0  0  0  0  0  0
   -1.6689   -5.2751    0.8689 H   0  0  0  0  0  0  0  0  0  0  0  0
   -1.4942   -6.5397   -0.3948 H   0  0  0  0  0  0  0  0  0  0  0  0
 23 25  2  0  0  0  0
 22 23  1  0  0  0  0
 24 26  1  0  0  0  0
 22 24  2  0  0  0  0
 25 27  1  0  0  0  0
 26 27  2  0  0  0  0
 21 22  1  0  0  0  0
 27 28  1  0  0  0  0
  1  3  1  0  0  0  0
  1  7  1  0  0  0  0
  1  2  2  0  0  0  0
 39 40  1  0  0  0  0
 40 48  1  0  0  0  0
 40 41  2  0  0  0  0
  8  9  1  0  0  0  0
  9 17  1  0  0  0  0
  9 10  2  0  0  0  0
 18 19  1  0  0  0  0
 19 38  1  0  0  0  0
 19 20  2  0  0  0  0
 39 42  1  0  0  0  0
  8 11  1  0  0  0  0
 48 49  1  0  0  0  0
 18 21  1  0  0  0  0
 38 39  1  0  0  0  0
  7  8  1  0  0  0  0
 17 18  1  0  0  0  0
 23 33  1  0  0  0  0
 24 34  1  0  0  0  0
 25 35  1  0  0  0  0
 26 36  1  0  0  0  0
  3  4  1  0  0  0  0
  3  5  1  0  0  0  0
  3  6  1  0  0  0  0
 42 45  1  0  0  0  0
 42 46  1  0  0  0  0
 42 47  1  0  0  0  0
 11 14  1  0  0  0  0
 11 15  1  0  0  0  0
 11 16  1  0  0  0  0
 49 51  1  0  0  0  0
 49 52  1  0  0  0  0
 49 53  1  0  0  0  0
 21 31  1  0  0  0  0
 21 32  1  0  0  0  0
 39 44  1  0  0  0  0
  8 13  1  0  0  0  0
 18 30  1  0  0  0  0
 48 50  1  0  0  0  0
  7 12  1  0  0  0  0
 38 43  1  0  0  0  0
 17 29  1  0  0  0  0
 28 37  1  0  0  0  0
M  END
$$$$

  -OEChem-05262214473D

 53 53  0     1  0  0  0  0  0999 V2000
   -1.9298    0.2574    3.9747 C   0  0  0  0  0  0  0  0  0  0  0  0
   -0.9825   -0.3573    3.4990 O   0  0  0  0  0  0  0  0  0  0  0  0
   -2.3617   -0.0250    5.3754 C   0  0  0  0  0  0  0  0  0  0  0  0
   -3.1214   -0.8213    5.4288 H   0  0  0  0  0  0  0  0  0  0  0  0
   -1.5305   -0.3726    6.0097 H   0  0  0  0  0  0  0  0  0  0  0  0
   -2.7997    0.8299    5.9150 H   0  0  0  0  0  0  0  0  0  0  0  0
   -2.6795    1.2298    3.3336 N   0  0  0  0  0  0  0  0  0  0  0  0
   -2.4327    1.6559    1.9812 C   0  0  2  0  0  0  0  0  0  0  0  0
   -1.0977    1.0705    1.5400 C   0  0  0  0  0  0  0  0  0  0  0  0
   -0.2256    0.7177    2.3313 O   0  0  0  0  0  0  0  0  0  0  0  0
   -2.4239    3.1726    1.8718 C   0  0  0  0  0  0  0  0  0  0  0  0
   -3.4446    1.6657    3.8454 H   0  0  0  0  0  0  0  0  0  0  0  0
   -3.2368    1.2374    1.3661 H   0  0  0  0  0  0  0  0  0  0  0  0
   -1.6248    3.6099    2.4815 H   0  0  0  0  0  0  0  0  0  0  0  0
   -2.2644    3.4949    0.8375 H   0  0  0  0  0  0  0  0  0  0  0  0
   -3.3741    3.5939    2.2175 H   0  0  0  0  0  0  0  0  0  0  0  0
   -0.9750    1.0274    0.1566 N   0  0  0  0  0  0  0  0  0  0  0  0
    0.2023    0.5266   -0.5070 C   0  0  2  0  0  0  0  0  0  0  0  0
   -0.0038   -0.9683   -0.7239 C   0  0  0  0  0  0  0  0  0  0  0  0
   -1.0408   -1.4409   -1.1846 O   0  0  0  0  0  0  0  0  0  0  0  0
    1.4766    0.7762    0.3078 C   0  0  0  0  0  0  0  0  0  0  0  0
    1.8181    2.2418    0.4227 C   0  0  0  0  0  0  0  0  0  0  0  0
    2.4753    2.8890   -0.6237 C   0  0  0  0  0  0  0  0  0  0  0  0
    1.4772    2.9489    1.5756 C   0  0  0  0  0  0  0  0  0  0  0  0
    2.7914    4.2434   -0.5172 C   0  0  0  0  0  0  0  0  0  0  0  0
    1.7933    4.3033    1.6822 C   0  0  0  0  0  0  0  0  0  0  0  0
    2.4505    4.9505    0.6358 C   0  0  0  0  0  0  0  0  0  0  0  0
    2.7602    6.2718    0.7401 O   0  0  0  0  0  0  0  0  0  0  0  0
   -1.7582    1.3241   -0.4207 H   0  0  0  0  0  0  0  0  0  0  0  0
    0.2487    1.0275   -1.4812 H   0  0  0  0  0  0  0  0  0  0  0  0
    2.3231    0.2331   -0.1340 H   0  0  0  0  0  0  0  0  0  0  0  0
    1.3699    0.3676    1.3214 H   0  0  0  0  0  0  0  0  0  0  0  0
    2.7447    2.3459   -1.5256 H   0  0  0  0  0  0  0  0  0  0  0  0
    0.9649    2.4528    2.3960 H   0  0  0  0  0  0  0  0  0  0  0  0
    3.3038    4.7420   -1.3357 H   0  0  0  0  0  0  0  0  0  0  0  0
    1.5254    4.8484    2.5829 H   0  0  0  0  0  0  0  0  0  0  0  0
    2.4602    6.6211    1.5944 H   0  0  0  0  0  0  0  0  0  0  0  0
    1.1254   -1.7025   -0.3886 N   0  0  0  0  0  0  0  0  0  0  0  0
    1.2059   -3.1394   -0.5210 C   0  0  2  0  0  0  0  0  0  0  0  0
   -0.0229   -3.7428    0.1464 C   0  0  0  0  0  0  0  0  0  0  0  0
   -0.6741   -3.1563    1.0084 O   0  0  0  0  0  0  0  0  0  0  0  0
    2.4835   -3.6816    0.1006 C   0  0  0  0  0  0  0  0  0  0  0  0
    1.9360   -1.2048   -0.0322 H   0  0  0  0  0  0  0  0  0  0  0  0
    1.1848   -3.3598   -1.5939 H   0  0  0  0  0  0  0  0  0  0  0  0
    2.5225   -3.4703    1.1755 H   0  0  0  0  0  0  0  0  0  0  0  0
    2.5566   -4.7669   -0.0257 H   0  0  0  0  0  0  0  0  0  0  0  0
    3.3657   -3.2244   -0.3603 H   0  0  0  0  0  0  0  0  0  0  0  0
   -0.2815   -5.0302   -0.3028 N   0  0  0  0  0  0  0  0  0  0  0  0
   -1.3865   -5.8201    0.1884 C   0  0  0  0  0  0  0  0  0  0  0  0
    0.2993   -5.4306   -1.0335 H   0  0  0  0  0  0  0  0  0  0  0  0
   -1.0490   -6.4381    1.0334 H   0  0  0  0  0  0  0  0  0  0  0  0
   -2.1944   -5.1524    0.5223 H   0  0  0  0  0  0  0  0  0  0  0  0
   -1.7580   -6.4712   -0.6166 H   0  0  0  0  0  0  0  0  0  0  0  0
 23 25  2  0  0  0  0
 22 23  1  0  0  0  0
 24 26  1  0  0  0  0
 22 24  2  0  0  0  0
 25 27  1  0  0  0  0
 26 27  2  0  0  0  0
 21 22  1  0  0  0  0
 27 28  1  0  0  0  0
  1  3  1  0  0  0  0
  1  7  1  0  0  0  0
  1  2  2  0  0  0  0
 39 40  1  0  0  0  0
 40 48  1  0  0  0  0
 40 41  2  0  0  0  0
  8  9  1  0  0  0  0
  9 17  1  0  0  0  0
  9 10  2  0  0  0  0
 18 19  1  0  0  0  0
 19 38  1  0  0  0  0
 19 20  2  0  0  0  0
 39 42  1  0  0  0  0
  8 11  1  0  0  0  0
 48 49  1  0  0  0  0
 18 21  1  0  0  0  0
 38 39  1  0  0  0  0
  7  8  1  0  0  0  0
 17 18  1  0  0  0  0
 23 33  1  0  0  0  0
 24 34  1  0  0  0  0
 25 35  1  0  0  0  0
 26 36  1  0  0  0  0
  3  4  1  0  0  0  0
  3  5  1  0  0  0  0
  3  6  1  0  0  0  0
 42 45  1  0  0  0  0
 42 46  1  0  0  0  0
 42 47  1  0  0  0  0
 11 14  1  0  0  0  0
 11 15  1  0  0  0  0
 11 16  1  0  0  0  0
 49 51  1  0  0  0  0
 49 52  1  0  0  0  0
 49 53  1  0  0  0  0
 21 31  1  0  0  0  0
 21 32  1  0  0  0  0
 39 44  1  0  0  0  0
  8 13  1  0  0  0  0
 18 30  1  0  0  0  0
 48 50  1  0  0  0  0
  7 12  1  0  0  0  0
 38 43  1  0  0  0  0
 17 29  1  0  0  0  0
 28 37  1  0  0  0  0
M  END
$$$$

  -OEChem-05262214473D

 53 53  0     1  0  0  0  0  0999 V2000
   -1.9298    0.2574    3.9747 C   0  0  0  0  0  0  0  0  0  0  0  0
   -0.9825   -0.3573    3.4990 O   0  0  0  0  0  0  0  0  0  0  0  0
   -2.3617   -0.0250    5.3754 C   0  0  0  0  0  0  0  0  0  0  0  0
   -3.1214   -0.8213    5.4288 H   0  0  0  0  0  0  0  0  0  0  0  0
   -1.5305   -0.3726    6.0097 H   0  0  0  0  0  0  0  0  0  0  0  0
   -2.7997    0.8299    5.9150 H   0  0  0  0  0  0  0  0  0  0  0  0
   -2.6795    1.2298    3.3336 N   0  0  0  0  0  0  0  0  0  0  0  0
   -2.4327    1.6559    1.9812 C   0  0  2  0  0  0  0  0  0  0  0  0
   -1.0977    1.0705    1.5400 C   0  0  0  0  0  0  0  0  0  0  0  0
   -0.2256    0.7177    2.3313 O   0  0  0  0  0  0  0  0  0  0  0  0
   -2.4239    3.1726    1.8718 C   0  0  0  0  0  0  0  0  0  0  0  0
   -3.4446    1.6657    3.8454 H   0  0  0  0  0  0  0  0  0  0  0  0
   -3.2368    1.2374    1.3661 H   0  0  0  0  0  0  0  0  0  0  0  0
   -1.6248    3.6099    2.4815 H   0  0  0  0  0  0  0  0  0  0  0  0
   -2.2644    3.4949    0.8375 H   0  0  0  0  0  0  0  0  0  0  0  0
   -3.3741    3.5939    2.2175 H   0  0  0  0  0  0  0  0  0  0  0  0
   -0.9750    1.0274    0.1566 N   0  0  0  0  0  0  0  0  0  0  0  0
    0.2023    0.5266   -0.5070 C   0  0  2  0  0  0  0  0  0  0  0  0
   -0.0038   -0.9683   -0.7239 C   0  0  0  0  0  0  0  0  0  0  0  0
   -0.9090   -1.4251   -1.4188 O   0  0  0  0  0  0  0  0  0  0  0  0
    1.4766    0.7762    0.3078 C   0  0  0  0  0  0  0  0  0  0  0  0
    1.8181    2.2418    0.4227 C   0  0  0  0  0  0  0  0  0  0  0  0
    2.4753    2.8890   -0.6237 C   0  0  0  0  0  0  0  0  0  0  0  0
    1.4772    2.9489    1.5756 C   0  0  0  0  0  0  0  0  0  0  0  0
    2.7914    4.2434   -0.5172 C   0  0  0  0  0  0  0  0  0  0  0  0
    1.7933    4.3033    1.6822 C   0  0  0  0  0  0  0  0  0  0  0  0
    2.4505    4.9505    0.6358 C   0  0  0  0  0  0  0  0  0  0  0  0
    2.7602    6.2718    0.7401 O   0  0  0  0  0  0  0  0  0  0  0  0
   -1.7582    1.3241   -0.4207 H   0  0  0  0  0  0  0  0  0  0  0  0
    0.2487    1.0275   -1.4812 H   0  0  0  0  0  0  0  0  0  0  0  0
    2.3231    0.2331   -0.1340 H   0  0  0  0  0  0  0  0  0  0  0  0
    1.3699    0.3676    1.3214 H   0  0  0  0  0  0  0  0  0  0  0  0
    2.7447    2.3459   -1.5256 H   0  0  0  0  0  0  0  0  0  0  0  0
    0.9649    2.4528    2.3960 H   0  0  0  0  0  0  0  0  0  0  0  0
    3.3038    4.7420   -1.3357 H   0  0  0  0  0  0  0  0  0  0  0  0
    1.5254    4.8484    2.5829 H   0  0  0  0  0  0  0  0  0  0  0  0
    2.4602    6.6211    1.5944 H   0  0  0  0  0  0  0  0  0  0  0  0
    0.9724   -1.7246   -0.0903 N   0  0  0  0  0  0  0  0  0  0  0  0
    1.0243   -3.1676   -0.1544 C   0  0  2  0  0  0  0  0  0  0  0  0
   -0.3573   -3.7039    0.1963 C   0  0  0  0  0  0  0  0  0  0  0  0
   -1.1806   -3.0629    0.8462 O   0  0  0  0  0  0  0  0  0  0  0  0
    2.0794   -3.7257    0.7880 C   0  0  0  0  0  0  0  0  0  0  0  0
    1.6862   -1.2397    0.4454 H   0  0  0  0  0  0  0  0  0  0  0  0
    1.2664   -3.4296   -1.1901 H   0  0  0  0  0  0  0  0  0  0  0  0
    1.8538   -3.4732    1.8305 H   0  0  0  0  0  0  0  0  0  0  0  0
    2.1372   -4.8169    0.7173 H   0  0  0  0  0  0  0  0  0  0  0  0
    3.0677   -3.3159    0.5531 H   0  0  0  0  0  0  0  0  0  0  0  0
   -0.5468   -4.9992   -0.2647 N   0  0  0  0  0  0  0  0  0  0  0  0
   -1.7717   -5.7328   -0.0472 C   0  0  0  0  0  0  0  0  0  0  0  0
    0.1831   -5.4468   -0.8112 H   0  0  0  0  0  0  0  0  0  0  0  0
   -1.6850   -6.3274    0.8742 H   0  0  0  0  0  0  0  0  0  0  0  0
   -2.6096   -5.0266    0.0498 H   0  0  0  0  0  0  0  0  0  0  0  0
   -1.9539   -6.4030   -0.9002 H   0  0  0  0  0  0  0  0  0  0  0  0
 23 25  2  0  0  0  0
 22 23  1  0  0  0  0
 24 26  1  0  0  0  0
 22 24  2  0  0  0  0
 25 27  1  0  0  0  0
 26 27  2  0  0  0  0
 21 22  1  0  0  0  0
 27 28  1  0  0  0  0
  1  3  1  0  0  0  0
  1  7  1  0  0  0  0
  1  2  2  0  0  0  0
 39 40  1  0  0  0  0
 40 48  1  0  0  0  0
 40 41  2  0  0  0  0
  8  9  1  0  0  0  0
  9 17  1  0  0  0  0
  9 10  2  0  0  0  0
 18 19  1  0  0  0  0
 19 38  1  0  0  0  0
 19 20  2  0  0  0  0
 39 42  1  0  0  0  0
  8 11  1  0  0  0  0
 48 49  1  0  0  0  0
 18 21  1  0  0  0  0
 38 39  1  0  0  0  0
  7  8  1  0  0  0  0
 17 18  1  0  0  0  0
 23 33  1  0  0  0  0
 24 34  1  0  0  0  0
 25 35  1  0  0  0  0
 26 36  1  0  0  0  0
  3  4  1  0  0  0  0
  3  5  1  0  0  0  0
  3  6  1  0  0  0  0
 42 45  1  0  0  0  0
 42 46  1  0  0  0  0
 42 47  1  0  0  0  0
 11 14  1  0  0  0  0
 11 15  1  0  0  0  0
 11 16  1  0  0  0  0
 49 51  1  0  0  0  0
 49 52  1  0  0  0  0
 49 53  1  0  0  0  0
 21 31  1  0  0  0  0
 21 32  1  0  0  0  0
 39 44  1  0  0  0  0
  8 13  1  0  0  0  0
 18 30  1  0  0  0  0
 48 50  1  0  0  0  0
  7 12  1  0  0  0  0
 38 43  1  0  0  0  0
 17 29  1  0  0  0  0
 28 37  1  0  0  0  0
M  END
$$$$

  -OEChem-05262214473D

 53 53  0     1  0  0  0  0  0999 V2000
   -1.9298    0.2574    3.9747 C   0  0  0  0  0  0  0  0  0  0  0  0
   -0.9825   -0.3573    3.4990 O   0  0  0  0  0  0  0  0  0  0  0  0
   -2.3617   -0.0250    5.3754 C   0  0  0  0  0  0  0  0  0  0  0  0
   -3.1214   -0.8213    5.4288 H   0  0  0  0  0  0  0  0  0  0  0  0
   -1.5305   -0.3726    6.0097 H   0  0  0  0  0  0  0  0  0  0  0  0
   -2.7997    0.8299    5.9150 H   0  0  0  0  0  0  0  0  0  0  0  0
   -2.6795    1.2298    3.3336 N   0  0  0  0  0  0  0  0  0  0  0  0
   -2.4327    1.6559    1.9812 C   0  0  2  0  0  0  0  0  0  0  0  0
   -1.0977    1.0705    1.5400 C   0  0  0  0  0  0  0  0  0  0  0  0
   -0.2256    0.7177    2.3313 O   0  0  0  0  0  0  0  0  0  0  0  0
   -2.4239    3.1726    1.8718 C   0  0  0  0  0  0  0  0  0  0  0  0
   -3.4446    1.6657    3.8454 H   0  0  0  0  0  0  0  0  0  0  0  0
   -3.2368    1.2374    1.3661 H   0  0  0  0  0  0  0  0  0  0  0  0
   -1.6248    3.6099    2.4815 H   0  0  0  0  0  0  0  0  0  0  0  0
   -2.2644    3.4949    0.8375 H   0  0  0  0  0  0  0  0  0  0  0  0
   -3.3741    3.5939    2.2175 H   0  0  0  0  0  0  0  0  0  0  0  0
   -0.9750    1.0274    0.1566 N   0  0  0  0  0  0  0  0  0  0  0  0
    0.2023    0.5266   -0.5070 C   0  0  2  0  0  0  0  0  0  0  0  0
   -0.0038   -0.9683   -0.7239 C   0  0  0  0  0  0  0  0  0  0  0  0
   -0.7217   -1.4229   -1.6121 O   0  0  0  0  0  0  0  0  0  0  0  0
    1.4766    0.7762    0.3078 C   0  0  0  0  0  0  0  0  0  0  0  0
    1.8181    2.2418    0.4227 C   0  0  0  0  0  0  0  0  0  0  0  0
    2.4753    2.8890   -0.6237 C   0  0  0  0  0  0  0  0  0  0  0  0
    1.4772    2.9489    1.5756 C   0  0  0  0  0  0  0  0  0  0  0  0
    2.7914    4.2434   -0.5172 C   0  0  0  0  0  0  0  0  0  0  0  0
    1.7933    4.3033    1.6822 C   0  0  0  0  0  0  0  0  0  0  0  0
    2.4505    4.9505    0.6358 C   0  0  0  0  0  0  0  0  0  0  0  0
    2.7602    6.2718    0.7401 O   0  0  0  0  0  0  0  0  0  0  0  0
   -1.7582    1.3241   -0.4207 H   0  0  0  0  0  0  0  0  0  0  0  0
    0.2487    1.0275   -1.4812 H   0  0  0  0  0  0  0  0  0  0  0  0
    2.3231    0.2331   -0.1340 H   0  0  0  0  0  0  0  0  0  0  0  0
    1.3699    0.3676    1.3214 H   0  0  0  0  0  0  0  0  0  0  0  0
    2.7447    2.3459   -1.5256 H   0  0  0  0  0  0  0  0  0  0  0  0
    0.9649    2.4528    2.3960 H   0  0  0  0  0  0  0  0  0  0  0  0
    3.3038    4.7420   -1.3357 H   0  0  0  0  0  0  0  0  0  0  0  0
    1.5254    4.8484    2.5829 H   0  0  0  0  0  0  0  0  0  0  0  0
    2.4602    6.6211    1.5944 H   0  0  0  0  0  0  0  0  0  0  0  0
    0.7481   -1.7300    0.1598 N   0  0  0  0  0  0  0  0  0  0  0  0
    0.7548   -3.1753    0.1547 C   0  0  2  0  0  0  0  0  0  0  0  0
   -0.6915   -3.6523    0.1583 C   0  0  0  0  0  0  0  0  0  0  0  0
   -1.6253   -2.9598    0.5576 O   0  0  0  0  0  0  0  0  0  0  0  0
    1.5130   -3.7293    1.3509 C   0  0  0  0  0  0  0  0  0  0  0  0
    1.3225   -1.2474    0.8446 H   0  0  0  0  0  0  0  0  0  0  0  0
    1.2401   -3.4859   -0.7770 H   0  0  0  0  0  0  0  0  0  0  0  0
    1.0415   -3.4284    2.2936 H   0  0  0  0  0  0  0  0  0  0  0  0
    1.5417   -4.8237    1.3303 H   0  0  0  0  0  0  0  0  0  0  0  0
    2.5446   -3.3613    1.3630 H   0  0  0  0  0  0  0  0  0  0  0  0
   -0.8115   -4.9581   -0.2964 N   0  0  0  0  0  0  0  0  0  0  0  0
   -2.0808   -5.6425   -0.3756 C   0  0  0  0  0  0  0  0  0  0  0  0
    0.0138   -5.4505   -0.6253 H   0  0  0  0  0  0  0  0  0  0  0  0
   -2.2548   -6.2025    0.5550 H   0  0  0  0  0  0  0  0  0  0  0  0
   -2.8860   -4.9064   -0.5164 H   0  0  0  0  0  0  0  0  0  0  0  0
   -2.0687   -6.3399   -1.2262 H   0  0  0  0  0  0  0  0  0  0  0  0
 23 25  2  0  0  0  0
 22 23  1  0  0  0  0
 24 26  1  0  0  0  0
 22 24  2  0  0  0  0
 25 27  1  0  0  0  0
 26 27  2  0  0  0  0
 21 22  1  0  0  0  0
 27 28  1  0  0  0  0
  1  3  1  0  0  0  0
  1  7  1  0  0  0  0
  1  2  2  0  0  0  0
 39 40  1  0  0  0  0
 40 48  1  0  0  0  0
 40 41  2  0  0  0  0
  8  9  1  0  0  0  0
  9 17  1  0  0  0  0
  9 10  2  0  0  0  0
 18 19  1  0  0  0  0
 19 38  1  0  0  0  0
 19 20  2  0  0  0  0
 39 42  1  0  0  0  0
  8 11  1  0  0  0  0
 48 49  1  0  0  0  0
 18 21  1  0  0  0  0
 38 39  1  0  0  0  0
  7  8  1  0  0  0  0
 17 18  1  0  0  0  0
 23 33  1  0  0  0  0
 24 34  1  0  0  0  0
 25 35  1  0  0  0  0
 26 36  1  0  0  0  0
  3  4  1  0  0  0  0
  3  5  1  0  0  0  0
  3  6  1  0  0  0  0
 42 45  1  0  0  0  0
 42 46  1  0  0  0  0
 42 47  1  0  0  0  0
 11 14  1  0  0  0  0
 11 15  1  0  0  0  0
 11 16  1  0  0  0  0
 49 51  1  0  0  0  0
 49 52  1  0  0  0  0
 49 53  1  0  0  0  0
 21 31  1  0  0  0  0
 21 32  1  0  0  0  0
 39 44  1  0  0  0  0
  8 13  1  0  0  0  0
 18 30  1  0  0  0  0
 48 50  1  0  0  0  0
  7 12  1  0  0  0  0
 38 43  1  0  0  0  0
 17 29  1  0  0  0  0
 28 37  1  0  0  0  0
M  END
$$$$

  -OEChem-05262214473D

 53 53  0     1  0  0  0  0  0999 V2000
   -1.9298    0.2574    3.9747 C   0  0  0  0  0  0  0  0  0  0  0  0
   -0.9825   -0.3573    3.4990 O   0  0  0  0  0  0  0  0  0  0  0  0
   -2.3617   -0.0250    5.3754 C   0  0  0  0  0  0  0  0  0  0  0  0
   -3.1214   -0.8213    5.4288 H   0  0  0  0  0  0  0  0  0  0  0  0
   -1.5305   -0.3726    6.0097 H   0  0  0  0  0  0  0  0  0  0  0  0
   -2.7997    0.8299    5.9150 H   0  0  0  0  0  0  0  0  0  0  0  0
   -2.6795    1.2298    3.3336 N   0  0  0  0  0  0  0  0  0  0  0  0
   -2.4327    1.6559    1.9812 C   0  0  2  0  0  0  0  0  0  0  0  0
   -1.0977    1.0705    1.5400 C   0  0  0  0  0  0  0  0  0  0  0  0
   -0.2256    0.7177    2.3313 O   0  0  0  0  0  0  0  0  0  0  0  0
   -2.4239    3.1726    1.8718 C   0  0  0  0  0  0  0  0  0  0  0  0
   -3.4446    1.6657    3.8454 H   0  0  0  0  0  0  0  0  0  0  0  0
   -3.2368    1.2374    1.3661 H   0  0  0  0  0  0  0  0  0  0  0  0
   -1.6248    3.6099    2.4815 H   0  0  0  0  0  0  0  0  0  0  0  0
   -2.2644    3.4949    0.8375 H   0  0  0  0  0  0  0  0  0  0  0  0
   -3.3741    3.5939    2.2175 H   0  0  0  0  0  0  0  0  0  0  0  0
   -0.9750    1.0274    0.1566 N   0  0  0  0  0  0  0  0  0  0  0  0
    0.2023    0.5266   -0.5070 C   0  0  2  0  0  0  0  0  0  0  0  0
   -0.0038   -0.9683   -0.7239 C   0  0  0  0  0  0  0  0  0  0  0  0
   -0.4916   -1.4344   -1.7514 O   0  0  0  0  0  0  0  0  0  0  0  0
    1.4766    0.7762    0.3078 C   0  0  0  0  0  0  0  0  0  0  0  0
    1.8181    2.2418    0.4227 C   0  0  0  0  0  0  0  0  0  0  0  0
    2.4753    2.8890   -0.6237 C   0  0  0  0  0  0  0  0  0  0  0  0
    1.4772    2.9489    1.5756 C   0  0  0  0  0  0  0  0  0  0  0  0
    2.7914    4.2434   -0.5172 C   0  0  0  0  0  0  0  0  0  0  0  0
    1.7933    4.3033    1.6822 C   0  0  0  0  0  0  0  0  0  0  0  0
    2.4505    4.9505    0.6358 C   0  0  0  0  0  0  0  0  0  0  0  0
    2.7602    6.2718    0.7401 O   0  0  0  0  0  0  0  0  0  0  0  0
   -1.7582    1.3241   -0.4207 H   0  0  0  0  0  0  0  0  0  0  0  0
    0.2487    1.0275   -1.4812 H   0  0  0  0  0  0  0  0  0  0  0  0
    2.3231    0.2331   -0.1340 H   0  0  0  0  0  0  0  0  0  0  0  0
    1.3699    0.3676    1.3214 H   0  0  0  0  0  0  0  0  0  0  0  0
    2.7447    2.3459   -1.5256 H   0  0  0  0  0  0  0  0  0  0  0  0
    0.9649    2.4528    2.3960 H   0  0  0  0  0  0  0  0  0  0  0  0
    3.3038    4.7420   -1.3357 H   0  0  0  0  0  0  0  0  0  0  0  0
    1.5254    4.8484    2.5829 H   0  0  0  0  0  0  0  0  0  0  0  0
    2.4602    6.6211    1.5944 H   0  0  0  0  0  0  0  0  0  0  0  0
    0.4677   -1.7182    0.3446 N   0  0  0  0  0  0  0  0  0  0  0  0
    0.4158   -3.1620    0.3851 C   0  0  2  0  0  0  0  0  0  0  0  0
   -1.0028   -3.5916    0.0350 C   0  0  0  0  0  0  0  0  0  0  0  0
   -1.9777   -2.8538    0.1625 O   0  0  0  0  0  0  0  0  0  0  0  0
    0.8229   -3.6922    1.7510 C   0  0  0  0  0  0  0  0  0  0  0  0
    0.8695   -1.2276    1.1381 H   0  0  0  0  0  0  0  0  0  0  0  0
    1.1079   -3.5249   -0.3826 H   0  0  0  0  0  0  0  0  0  0  0  0
    0.1410   -3.3390    2.5332 H   0  0  0  0  0  0  0  0  0  0  0  0
    0.8106   -4.7870    1.7715 H   0  0  0  0  0  0  0  0  0  0  0  0
    1.8322   -3.3576    2.0140 H   0  0  0  0  0  0  0  0  0  0  0  0
   -1.0576   -4.9098   -0.3955 N   0  0  0  0  0  0  0  0  0  0  0  0
   -2.2927   -5.5554   -0.7745 C   0  0  0  0  0  0  0  0  0  0  0  0
   -0.1970   -5.4412   -0.4887 H   0  0  0  0  0  0  0  0  0  0  0  0
   -2.7196   -6.0721    0.0978 H   0  0  0  0  0  0  0  0  0  0  0  0
   -3.0049   -4.7999   -1.1377 H   0  0  0  0  0  0  0  0  0  0  0  0
   -2.0946   -6.2861   -1.5725 H   0  0  0  0  0  0  0  0  0  0  0  0
 23 25  2  0  0  0  0
 22 23  1  0  0  0  0
 24 26  1  0  0  0  0
 22 24  2  0  0  0  0
 25 27  1  0  0  0  0
 26 27  2  0  0  0  0
 21 22  1  0  0  0  0
 27 28  1  0  0  0  0
  1  3  1  0  0  0  0
  1  7  1  0  0  0  0
  1  2  2  0  0  0  0
 39 40  1  0  0  0  0
 40 48  1  0  0  0  0
 40 41  2  0  0  0  0
  8  9  1  0  0  0  0
  9 17  1  0  0  0  0
  9 10  2  0  0  0  0
 18 19  1  0  0  0  0
 19 38  1  0  0  0  0
 19 20  2  0  0  0  0
 39 42  1  0  0  0  0
  8 11  1  0  0  0  0
 48 49  1  0  0  0  0
 18 21  1  0  0  0  0
 38 39  1  0  0  0  0
  7  8  1  0  0  0  0
 17 18  1  0  0  0  0
 23 33  1  0  0  0  0
 24 34  1  0  0  0  0
 25 35  1  0  0  0  0
 26 36  1  0  0  0  0
  3  4  1  0  0  0  0
  3  5  1  0  0  0  0
  3  6  1  0  0  0  0
 42 45  1  0  0  0  0
 42 46  1  0  0  0  0
 42 47  1  0  0  0  0
 11 14  1  0  0  0  0
 11 15  1  0  0  0  0
 11 16  1  0  0  0  0
 49 51  1  0  0  0  0
 49 52  1  0  0  0  0
 49 53  1  0  0  0  0
 21 31  1  0  0  0  0
 21 32  1  0  0  0  0
 39 44  1  0  0  0  0
  8 13  1  0  0  0  0
 18 30  1  0  0  0  0
 48 50  1  0  0  0  0
  7 12  1  0  0  0  0
 38 43  1  0  0  0  0
 17 29  1  0  0  0  0
 28 37  1  0  0  0  0
M  END
$$$$

  -OEChem-05262214473D

 53 53  0     1  0  0  0  0  0999 V2000
   -1.9298    0.2574    3.9747 C   0  0  0  0  0  0  0  0  0  0  0  0
   -0.9825   -0.3573    3.4990 O   0  0  0  0  0  0  0  0  0  0  0  0
   -2.3617   -0.0250    5.3754 C   0  0  0  0  0  0  0  0  0  0  0  0
   -3.1214   -0.8213    5.4288 H   0  0  0  0  0  0  0  0  0  0  0  0
   -1.5305   -0.3726    6.0097 H   0  0  0  0  0  0  0  0  0  0  0  0
   -2.7997    0.8299    5.9150 H   0  0  0  0  0  0  0  0  0  0  0  0
   -2.6795    1.2298    3.3336 N   0  0  0  0  0  0  0  0  0  0  0  0
   -2.4327    1.6559    1.9812 C   0  0  2  0  0  0  0  0  0  0  0  0
   -1.0977    1.0705    1.5400 C   0  0  0  0  0  0  0  0  0  0  0  0
   -0.2256    0.7177    2.3313 O   0  0  0  0  0  0  0  0  0  0  0  0
   -2.4239    3.1726    1.8718 C   0  0  0  0  0  0  0  0  0  0  0  0
   -3.4446    1.6657    3.8454 H   0  0  0  0  0  0  0  0  0  0  0  0
   -3.2368    1.2374    1.3661 H   0  0  0  0  0  0  0  0  0  0  0  0
   -1.6248    3.6099    2.4815 H   0  0  0  0  0  0  0  0  0  0  0  0
   -2.2644    3.4949    0.8375 H   0  0  0  0  0  0  0  0  0  0  0  0
   -3.3741    3.5939    2.2175 H   0  0  0  0  0  0  0  0  0  0  0  0
   -0.9750    1.0274    0.1566 N   0  0  0  0  0  0  0  0  0  0  0  0
    0.2023    0.5266   -0.5070 C   0  0  2  0  0  0  0  0  0  0  0  0
   -0.0038   -0.9683   -0.7239 C   0  0  0  0  0  0  0  0  0  0  0  0
   -0.2345   -1.4588   -1.8271 O   0  0  0  0  0  0  0  0  0  0  0  0
    1.4766    0.7762    0.3078 C   0  0  0  0  0  0  0  0  0  0  0  0
    1.8181    2.2418    0.4227 C   0  0  0  0  0  0  0  0  0  0  0  0
    2.4753    2.8890   -0.6237 C   0  0  0  0  0  0  0  0  0  0  0  0
    1.4772    2.9489    1.5756 C   0  0  0  0  0  0  0  0  0  0  0  0
    2.7914    4.2434   -0.5172 C   0  0  0  0  0  0  0  0  0  0  0  0
    1.7933    4.3033    1.6822 C   0  0  0  0  0  0  0  0  0  0  0  0
    2.4505    4.9505    0.6358 C   0  0  0  0  0  0  0  0  0  0  0  0
    2.7602    6.2718    0.7401 O   0  0  0  0  0  0  0  0  0  0  0  0
   -1.7582    1.3241   -0.4207 H   0  0  0  0  0  0  0  0  0  0  0  0
    0.2487    1.0275   -1.4812 H   0  0  0  0  0  0  0  0  0  0  0  0
    2.3231    0.2331   -0.1340 H   0  0  0  0  0  0  0  0  0  0  0  0
    1.3699    0.3676    1.3214 H   0  0  0  0  0  0  0  0  0  0  0  0
    2.7447    2.3459   -1.5256 H   0  0  0  0  0  0  0  0  0  0  0  0
    0.9649    2.4528    2.3960 H   0  0  0  0  0  0  0  0  0  0  0  0
    3.3038    4.7420   -1.3357 H   0  0  0  0  0  0  0  0  0  0  0  0
    1.5254    4.8484    2.5829 H   0  0  0  0  0  0  0  0  0  0  0  0
    2.4602    6.6211    1.5944 H   0  0  0  0  0  0  0  0  0  0  0  0
    0.1505   -1.6900    0.4516 N   0  0  0  0  0  0  0  0  0  0  0  0
    0.0304   -3.1286    0.5211 C   0  0  2  0  0  0  0  0  0  0  0  0
   -1.2699   -3.5257   -0.1652 C   0  0  0  0  0  0  0  0  0  0  0  0
   -2.2140   -2.7524   -0.3124 O   0  0  0  0  0  0  0  0  0  0  0  0
    0.0562   -3.6170    1.9611 C   0  0  0  0  0  0  0  0  0  0  0  0
    0.3583   -1.1815    1.3060 H   0  0  0  0  0  0  0  0  0  0  0  0
    0.8786   -3.5439   -0.0339 H   0  0  0  0  0  0  0  0  0  0  0  0
   -0.7863   -3.2112    2.5329 H   0  0  0  0  0  0  0  0  0  0  0  0
   -0.0061   -4.7091    2.0108 H   0  0  0  0  0  0  0  0  0  0  0  0
    0.9789   -3.3049    2.4620 H   0  0  0  0  0  0  0  0  0  0  0  0
   -1.2684   -4.8575   -0.5555 N   0  0  0  0  0  0  0  0  0  0  0  0
   -2.3930   -5.4775   -1.2165 C   0  0  0  0  0  0  0  0  0  0  0  0
   -0.4350   -5.4198   -0.4105 H   0  0  0  0  0  0  0  0  0  0  0  0
   -3.0477   -5.9450   -0.4664 H   0  0  0  0  0  0  0  0  0  0  0  0
   -2.9581   -4.7143   -1.7716 H   0  0  0  0  0  0  0  0  0  0  0  0
   -2.0296   -6.2453   -1.9154 H   0  0  0  0  0  0  0  0  0  0  0  0
 23 25  2  0  0  0  0
 22 23  1  0  0  0  0
 24 26  1  0  0  0  0
 22 24  2  0  0  0  0
 25 27  1  0  0  0  0
 26 27  2  0  0  0  0
 21 22  1  0  0  0  0
 27 28  1  0  0  0  0
  1  3  1  0  0  0  0
  1  7  1  0  0  0  0
  1  2  2  0  0  0  0
 39 40  1  0  0  0  0
 40 48  1  0  0  0  0
 40 41  2  0  0  0  0
  8  9  1  0  0  0  0
  9 17  1  0  0  0  0
  9 10  2  0  0  0  0
 18 19  1  0  0  0  0
 19 38  1  0  0  0  0
 19 20  2  0  0  0  0
 39 42  1  0  0  0  0
  8 11  1  0  0  0  0
 48 49  1  0  0  0  0
 18 21  1  0  0  0  0
 38 39  1  0  0  0  0
  7  8  1  0  0  0  0
 17 18  1  0  0  0  0
 23 33  1  0  0  0  0
 24 34  1  0  0  0  0
 25 35  1  0  0  0  0
 26 36  1  0  0  0  0
  3  4  1  0  0  0  0
  3  5  1  0  0  0  0
  3  6  1  0  0  0  0
 42 45  1  0  0  0  0
 42 46  1  0  0  0  0
 42 47  1  0  0  0  0
 11 14  1  0  0  0  0
 11 15  1  0  0  0  0
 11 16  1  0  0  0  0
 49 51  1  0  0  0  0
 49 52  1  0  0  0  0
 49 53  1  0  0  0  0
 21 31  1  0  0  0  0
 21 32  1  0  0  0  0
 39 44  1  0  0  0  0
  8 13  1  0  0  0  0
 18 30  1  0  0  0  0
 48 50  1  0  0  0  0
  7 12  1  0  0  0  0
 38 43  1  0  0  0  0
 17 29  1  0  0  0  0
 28 37  1  0  0  0  0
M  END
$$$$

  -OEChem-05262214473D

 53 53  0     1  0  0  0  0  0999 V2000
   -1.9298    0.2574    3.9747 C   0  0  0  0  0  0  0  0  0  0  0  0
   -0.9825   -0.3573    3.4990 O   0  0  0  0  0  0  0  0  0  0  0  0
   -2.3617   -0.0250    5.3754 C   0  0  0  0  0  0  0  0  0  0  0  0
   -3.1214   -0.8213    5.4288 H   0  0  0  0  0  0  0  0  0  0  0  0
   -1.5305   -0.3726    6.0097 H   0  0  0  0  0  0  0  0  0  0  0  0
   -2.7997    0.8299    5.9150 H   0  0  0  0  0  0  0  0  0  0  0  0
   -2.6795    1.2298    3.3336 N   0  0  0  0  0  0  0  0  0  0  0  0
   -2.4327    1.6559    1.9812 C   0  0  2  0  0  0  0  0  0  0  0  0
   -1.0977    1.0705    1.5400 C   0  0  0  0  0  0  0  0  0  0  0  0
   -0.2256    0.7177    2.3313 O   0  0  0  0  0  0  0  0  0  0  0  0
   -2.4239    3.1726    1.8718 C   0  0  0  0  0  0  0  0  0  0  0  0
   -3.4446    1.6657    3.8454 H   0  0  0  0  0  0  0  0  0  0  0  0
   -3.2368    1.2374    1.3661 H   0  0  0  0  0  0  0  0  0  0  0  0
   -1.6248    3.6099    2.4815 H   0  0  0  0  0  0  0  0  0  0  0  0
   -2.2644    3.4949    0.8375 H   0  0  0  0  0  0  0  0  0  0  0  0
   -3.3741    3.5939    2.2175 H   0  0  0  0  0  0  0  0  0  0  0  0
   -0.9750    1.0274    0.1566 N   0  0  0  0  0  0  0  0  0  0  0  0
    0.2023    0.5266   -0.5070 C   0  0  2  0  0  0  0  0  0  0  0  0
   -0.0038   -0.9683   -0.7239 C   0  0  0  0  0  0  0  0  0  0  0  0
    0.0322   -1.4945   -1.8342 O   0  0  0  0  0  0  0  0  0  0  0  0
    1.4766    0.7762    0.3078 C   0  0  0  0  0  0  0  0  0  0  0  0
    1.8181    2.2418    0.4227 C   0  0  0  0  0  0  0  0  0  0  0  0
    2.4753    2.8890   -0.6237 C   0  0  0  0  0  0  0  0  0  0  0  0
    1.4772    2.9489    1.5756 C   0  0  0  0  0  0  0  0  0  0  0  0
    2.7914    4.2434   -0.5172 C   0  0  0  0  0  0  0  0  0  0  0  0
    1.7933    4.3033    1.6822 C   0  0  0  0  0  0  0  0  0  0  0  0
    2.4505    4.9505    0.6358 C   0  0  0  0  0  0  0  0  0  0  0  0
    2.7602    6.2718    0.7401 O   0  0  0  0  0  0  0  0  0  0  0  0
   -1.7582    1.3241   -0.4207 H   0  0  0  0  0  0  0  0  0  0  0  0
    0.2487    1.0275   -1.4812 H   0  0  0  0  0  0  0  0  0  0  0  0
    2.3231    0.2331   -0.1340 H   0  0  0  0  0  0  0  0  0  0  0  0
    1.3699    0.3676    1.3214 H   0  0  0  0  0  0  0  0  0  0  0  0
    2.7447    2.3459   -1.5256 H   0  0  0  0  0  0  0  0  0  0  0  0
    0.9649    2.4528    2.3960 H   0  0  0  0  0  0  0  0  0  0  0  0
    3.3038    4.7420   -1.3357 H   0  0  0  0  0  0  0  0  0  0  0  0
    1.5254    4.8484    2.5829 H   0  0  0  0  0  0  0  0  0  0  0  0
    2.4602    6.6211    1.5944 H   0  0  0  0  0  0  0  0  0  0  0  0
   -0.1821   -1.6473    0.4734 N   0  0  0  0  0  0  0  0  0  0  0  0
   -0.3752   -3.0774    0.5536 C   0  0  2  0  0  0  0  0  0  0  0  0
   -1.4747   -3.4592   -0.4287 C   0  0  0  0  0  0  0  0  0  0  0  0
   -2.3180   -2.6623   -0.8346 O   0  0  0  0  0  0  0  0  0  0  0  0
   -0.7350   -3.5088    1.9668 C   0  0  0  0  0  0  0  0  0  0  0  0
   -0.1765   -1.1122    1.3368 H   0  0  0  0  0  0  0  0  0  0  0  0
    0.5680   -3.5416    0.2455 H   0  0  0  0  0  0  0  0  0  0  0  0
   -1.6772   -3.0536    2.2929 H   0  0  0  0  0  0  0  0  0  0  0  0
   -0.8529   -4.5955    2.0320 H   0  0  0  0  0  0  0  0  0  0  0  0
    0.0430   -3.2070    2.6763 H   0  0  0  0  0  0  0  0  0  0  0  0
   -1.4295   -4.8049   -0.7653 N   0  0  0  0  0  0  0  0  0  0  0  0
   -2.3748   -5.4140   -1.6717 C   0  0  0  0  0  0  0  0  0  0  0  0
   -0.6839   -5.3876   -0.3961 H   0  0  0  0  0  0  0  0  0  0  0  0
   -3.2168   -5.8299   -1.0991 H   0  0  0  0  0  0  0  0  0  0  0  0
   -2.7490   -4.6556   -2.3752 H   0  0  0  0  0  0  0  0  0  0  0  0
   -1.8784   -6.2203   -2.2316 H   0  0  0  0  0  0  0  0  0  0  0  0
 23 25  2  0  0  0  0
 22 23  1  0  0  0  0
 24 26  1  0  0  0  0
 22 24  2  0  0  0  0
 25 27  1  0  0  0  0
 26 27  2  0  0  0  0
 21 22  1  0  0  0  0
 27 28  1  0  0  0  0
  1  3  1  0  0  0  0
  1  7  1  0  0  0  0
  1  2  2  0  0  0  0
 39 40  1  0  0  0  0
 40 48  1  0  0  0  0
 40 41  2  0  0  0  0
  8  9  1  0  0  0  0
  9 17  1  0  0  0  0
  9 10  2  0  0  0  0
 18 19  1  0  0  0  0
 19 38  1  0  0  0  0
 19 20  2  0  0  0  0
 39 42  1  0  0  0  0
  8 11  1  0  0  0  0
 48 49  1  0  0  0  0
 18 21  1  0  0  0  0
 38 39  1  0  0  0  0
  7  8  1  0  0  0  0
 17 18  1  0  0  0  0
 23 33  1  0  0  0  0
 24 34  1  0  0  0  0
 25 35  1  0  0  0  0
 26 36  1  0  0  0  0
  3  4  1  0  0  0  0
  3  5  1  0  0  0  0
  3  6  1  0  0  0  0
 42 45  1  0  0  0  0
 42 46  1  0  0  0  0
 42 47  1  0  0  0  0
 11 14  1  0  0  0  0
 11 15  1  0  0  0  0
 11 16  1  0  0  0  0
 49 51  1  0  0  0  0
 49 52  1  0  0  0  0
 49 53  1  0  0  0  0
 21 31  1  0  0  0  0
 21 32  1  0  0  0  0
 39 44  1  0  0  0  0
  8 13  1  0  0  0  0
 18 30  1  0  0  0  0
 48 50  1  0  0  0  0
  7 12  1  0  0  0  0
 38 43  1  0  0  0  0
 17 29  1  0  0  0  0
 28 37  1  0  0  0  0
M  END
$$$$

  -OEChem-05262214473D

 53 53  0     1  0  0  0  0  0999 V2000
   -1.9298    0.2574    3.9747 C   0  0  0  0  0  0  0  0  0  0  0  0
   -0.9825   -0.3573    3.4990 O   0  0  0  0  0  0  0  0  0  0  0  0
   -2.3617   -0.0250    5.3754 C   0  0  0  0  0  0  0  0  0  0  0  0
   -3.1214   -0.8213    5.4288 H   0  0  0  0  0  0  0  0  0  0  0  0
   -1.5305   -0.3726    6.0097 H   0  0  0  0  0  0  0  0  0  0  0  0
   -2.7997    0.8299    5.9150 H   0  0  0  0  0  0  0  0  0  0  0  0
   -2.6795    1.2298    3.3336 N   0  0  0  0  0  0  0  0  0  0  0  0
   -2.4327    1.6559    1.9812 C   0  0  2  0  0  0  0  0  0  0  0  0
   -1.0977    1.0705    1.5400 C   0  0  0  0  0  0  0  0  0  0  0  0
   -0.2256    0.7177    2.3313 O   0  0  0  0  0  0  0  0  0  0  0  0
   -2.4239    3.1726    1.8718 C   0  0  0  0  0  0  0  0  0  0  0  0
   -3.4446    1.6657    3.8454 H   0  0  0  0  0  0  0  0  0  0  0  0
   -3.2368    1.2374    1.3661 H   0  0  0  0  0  0  0  0  0  0  0  0
   -1.6248    3.6099    2.4815 H   0  0  0  0  0  0  0  0  0  0  0  0
   -2.2644    3.4949    0.8375 H   0  0  0  0  0  0  0  0  0  0  0  0
   -3.3741    3.5939    2.2175 H   0  0  0  0  0  0  0  0  0  0  0  0
   -0.9750    1.0274    0.1566 N   0  0  0  0  0  0  0  0  0  0  0  0
    0.2023    0.5266   -0.5070 C   0  0  2  0  0  0  0  0  0  0  0  0
   -0.0038   -0.9683   -0.7239 C   0  0  0  0  0  0  0  0  0  0  0  0
    0.2903   -1.5391   -1.7720 O   0  0  0  0  0  0  0  0  0  0  0  0
    1.4766    0.7762    0.3078 C   0  0  0  0  0  0  0  0  0  0  0  0
    1.8181    2.2418    0.4227 C   0  0  0  0  0  0  0  0  0  0  0  0
    2.4753    2.8890   -0.6237 C   0  0  0  0  0  0  0  0  0  0  0  0
    1.4772    2.9489    1.5756 C   0  0  0  0  0  0  0  0  0  0  0  0
    2.7914    4.2434   -0.5172 C   0  0  0  0  0  0  0  0  0  0  0  0
    1.7933    4.3033    1.6822 C   0  0  0  0  0  0  0  0  0  0  0  0
    2.4505    4.9505    0.6358 C   0  0  0  0  0  0  0  0  0  0  0  0
    2.7602    6.2718    0.7401 O   0  0  0  0  0  0  0  0  0  0  0  0
   -1.7582    1.3241   -0.4207 H   0  0  0  0  0  0  0  0  0  0  0  0
    0.2487    1.0275   -1.4812 H   0  0  0  0  0  0  0  0  0  0  0  0
    2.3231    0.2331   -0.1340 H   0  0  0  0  0  0  0  0  0  0  0  0
    1.3699    0.3676    1.3214 H   0  0  0  0  0  0  0  0  0  0  0  0
    2.7447    2.3459   -1.5256 H   0  0  0  0  0  0  0  0  0  0  0  0
    0.9649    2.4528    2.3960 H   0  0  0  0  0  0  0  0  0  0  0  0
    3.3038    4.7420   -1.3357 H   0  0  0  0  0  0  0  0  0  0  0  0
    1.5254    4.8484    2.5829 H   0  0  0  0  0  0  0  0  0  0  0  0
    2.4602    6.6211    1.5944 H   0  0  0  0  0  0  0  0  0  0  0  0
   -0.5072   -1.5931    0.4086 N   0  0  0  0  0  0  0  0  0  0  0  0
   -0.7733   -3.0118    0.4802 C   0  0  2  0  0  0  0  0  0  0  0  0
   -1.6032   -3.3967   -0.7375 C   0  0  0  0  0  0  0  0  0  0  0  0
   -2.2826   -2.5897   -1.3685 O   0  0  0  0  0  0  0  0  0  0  0  0
   -1.4966   -3.3749    1.7677 C   0  0  0  0  0  0  0  0  0  0  0  0
   -0.6983   -1.0246    1.2284 H   0  0  0  0  0  0  0  0  0  0  0  0
    0.1971   -3.5182    0.4364 H   0  0  0  0  0  0  0  0  0  0  0  0
   -2.4711   -2.8769    1.8294 H   0  0  0  0  0  0  0  0  0  0  0  0
   -1.6721   -4.4538    1.8335 H   0  0  0  0  0  0  0  0  0  0  0  0
   -0.9118   -3.0705    2.6424 H   0  0  0  0  0  0  0  0  0  0  0  0
   -1.5299   -4.7554   -1.0107 N   0  0  0  0  0  0  0  0  0  0  0  0
   -2.2393   -5.3692   -2.1089 C   0  0  0  0  0  0  0  0  0  0  0  0
   -0.9268   -5.3468   -0.4465 H   0  0  0  0  0  0  0  0  0  0  0  0
   -3.2154   -5.7347   -1.7571 H   0  0  0  0  0  0  0  0  0  0  0  0
   -2.3916   -4.6277   -2.9071 H   0  0  0  0  0  0  0  0  0  0  0  0
   -1.6512   -6.2127   -2.4995 H   0  0  0  0  0  0  0  0  0  0  0  0
 23 25  2  0  0  0  0
 22 23  1  0  0  0  0
 24 26  1  0  0  0  0
 22 24  2  0  0  0  0
 25 27  1  0  0  0  0
 26 27  2  0  0  0  0
 21 22  1  0  0  0  0
 27 28  1  0  0  0  0
  1  3  1  0  0  0  0
  1  7  1  0  0  0  0
  1  2  2  0  0  0  0
 39 40  1  0  0  0  0
 40 48  1  0  0  0  0
 40 41  2  0  0  0  0
  8  9  1  0  0  0  0
  9 17  1  0  0  0  0
  9 10  2  0  0  0  0
 18 19  1  0  0  0  0
 19 38  1  0  0  0  0
 19 20  2  0  0  0  0
 39 42  1  0  0  0  0
  8 11  1  0  0  0  0
 48 49  1  0  0  0  0
 18 21  1  0  0  0  0
 38 39  1  0  0  0  0
  7  8  1  0  0  0  0
 17 18  1  0  0  0  0
 23 33  1  0  0  0  0
 24 34  1  0  0  0  0
 25 35  1  0  0  0  0
 26 36  1  0  0  0  0
  3  4  1  0  0  0  0
  3  5  1  0  0  0  0
  3  6  1  0  0  0  0
 42 45  1  0  0  0  0
 42 46  1  0  0  0  0
 42 47  1  0  0  0  0
 11 14  1  0  0  0  0
 11 15  1  0  0  0  0
 11 16  1  0  0  0  0
 49 51  1  0  0  0  0
 49 52  1  0  0  0  0
 49 53  1  0  0  0  0
 21 31  1  0  0  0  0
 21 32  1  0  0  0  0
 39 44  1  0  0  0  0
  8 13  1  0  0  0  0
 18 30  1  0  0  0  0
 48 50  1  0  0  0  0
  7 12  1  0  0  0  0
 38 43  1  0  0  0  0
 17 29  1  0  0  0  0
 28 37  1  0  0  0  0
M  END
$$$$

  -OEChem-05262214473D

 53 53  0     1  0  0  0  0  0999 V2000
   -1.9298    0.2574    3.9747 C   0  0  0  0  0  0  0  0  0  0  0  0
   -0.9825   -0.3573    3.4990 O   0  0  0  0  0  0  0  0  0  0  0  0
   -2.3617   -0.0250    5.3754 C   0  0  0  0  0  0  0  0  0  0  0  0
   -3.1214   -0.8213    5.4288 H   0  0  0  0  0  0  0  0  0  0  0  0
   -1.5305   -0.3726    6.0097 H   0  0  0  0  0  0  0  0  0  0  0  0
   -2.7997    0.8299    5.9150 H   0  0  0  0  0  0  0  0  0  0  0  0
   -2.6795    1.2298    3.3336 N   0  0  0  0  0  0  0  0  0  0  0  0
   -2.4327    1.6559    1.9812 C   0  0  2  0  0  0  0  0  0  0  0  0
   -1.0977    1.0705    1.5400 C   0  0  0  0  0  0  0  0  0  0  0  0
   -0.2256    0.7177    2.3313 O   0  0  0  0  0  0  0  0  0  0  0  0
   -2.4239    3.1726    1.8718 C   0  0  0  0  0  0  0  0  0  0  0  0
   -3.4446    1.6657    3.8454 H   0  0  0  0  0  0  0  0  0  0  0  0
   -3.2368    1.2374    1.3661 H   0  0  0  0  0  0  0  0  0  0  0  0
   -1.6248    3.6099    2.4815 H   0  0  0  0  0  0  0  0  0  0  0  0
   -2.2644    3.4949    0.8375 H   0  0  0  0  0  0  0  0  0  0  0  0
   -3.3741    3.5939    2.2175 H   0  0  0  0  0  0  0  0  0  0  0  0
   -0.9750    1.0274    0.1566 N   0  0  0  0  0  0  0  0  0  0  0  0
    0.2023    0.5266   -0.5070 C   0  0  2  0  0  0  0  0  0  0  0  0
   -0.0038   -0.9683   -0.7239 C   0  0  0  0  0  0  0  0  0  0  0  0
    0.5221   -1.5895   -1.6450 O   0  0  0  0  0  0  0  0  0  0  0  0
    1.4766    0.7762    0.3078 C   0  0  0  0  0  0  0  0  0  0  0  0
    1.8181    2.2418    0.4227 C   0  0  0  0  0  0  0  0  0  0  0  0
    2.4753    2.8890   -0.6237 C   0  0  0  0  0  0  0  0  0  0  0  0
    1.4772    2.9489    1.5756 C   0  0  0  0  0  0  0  0  0  0  0  0
    2.7914    4.2434   -0.5172 C   0  0  0  0  0  0  0  0  0  0  0  0
    1.7933    4.3033    1.6822 C   0  0  0  0  0  0  0  0  0  0  0  0
    2.4505    4.9505    0.6358 C   0  0  0  0  0  0  0  0  0  0  0  0
    2.7602    6.2718    0.7401 O   0  0  0  0  0  0  0  0  0  0  0  0
   -1.7582    1.3241   -0.4207 H   0  0  0  0  0  0  0  0  0  0  0  0
    0.2487    1.0275   -1.4812 H   0  0  0  0  0  0  0  0  0  0  0  0
    2.3231    0.2331   -0.1340 H   0  0  0  0  0  0  0  0  0  0  0  0
    1.3699    0.3676    1.3214 H   0  0  0  0  0  0  0  0  0  0  0  0
    2.7447    2.3459   -1.5256 H   0  0  0  0  0  0  0  0  0  0  0  0
    0.9649    2.4528    2.3960 H   0  0  0  0  0  0  0  0  0  0  0  0
    3.3038    4.7420   -1.3357 H   0  0  0  0  0  0  0  0  0  0  0  0
    1.5254    4.8484    2.5829 H   0  0  0  0  0  0  0  0  0  0  0  0
    2.4602    6.6211    1.5944 H   0  0  0  0  0  0  0  0  0  0  0  0
   -0.8029   -1.5310    0.2616 N   0  0  0  0  0  0  0  0  0  0  0  0
   -1.1369   -2.9365    0.3059 C   0  0  2  0  0  0  0  0  0  0  0  0
   -1.6466   -3.3424   -1.0706 C   0  0  0  0  0  0  0  0  0  0  0  0
   -2.1102   -2.5395   -1.8778 O   0  0  0  0  0  0  0  0  0  0  0  0
   -2.1769   -3.2245    1.3774 C   0  0  0  0  0  0  0  0  0  0  0  0
   -1.1716   -0.9245    0.9882 H   0  0  0  0  0  0  0  0  0  0  0  0
   -0.2088   -3.4753    0.5258 H   0  0  0  0  0  0  0  0  0  0  0  0
   -3.1138   -2.6932    1.1741 H   0  0  0  0  0  0  0  0  0  0  0  0
   -2.4077   -4.2937    1.4290 H   0  0  0  0  0  0  0  0  0  0  0  0
   -1.8204   -2.9047    2.3625 H   0  0  0  0  0  0  0  0  0  0  0  0
   -1.5628   -4.7125   -1.2750 N   0  0  0  0  0  0  0  0  0  0  0  0
   -1.9959   -5.3462   -2.4985 C   0  0  0  0  0  0  0  0  0  0  0  0
   -1.1471   -5.3002   -0.5583 H   0  0  0  0  0  0  0  0  0  0  0  0
   -3.0434   -5.6657   -2.3957 H   0  0  0  0  0  0  0  0  0  0  0  0
   -1.9103   -4.6325   -3.3311 H   0  0  0  0  0  0  0  0  0  0  0  0
   -1.3634   -6.2232   -2.7009 H   0  0  0  0  0  0  0  0  0  0  0  0
 23 25  2  0  0  0  0
 22 23  1  0  0  0  0
 24 26  1  0  0  0  0
 22 24  2  0  0  0  0
 25 27  1  0  0  0  0
 26 27  2  0  0  0  0
 21 22  1  0  0  0  0
 27 28  1  0  0  0  0
  1  3  1  0  0  0  0
  1  7  1  0  0  0  0
  1  2  2  0  0  0  0
 39 40  1  0  0  0  0
 40 48  1  0  0  0  0
 40 41  2  0  0  0  0
  8  9  1  0  0  0  0
  9 17  1  0  0  0  0
  9 10  2  0  0  0  0
 18 19  1  0  0  0  0
 19 38  1  0  0  0  0
 19 20  2  0  0  0  0
 39 42  1  0  0  0  0
  8 11  1  0  0  0  0
 48 49  1  0  0  0  0
 18 21  1  0  0  0  0
 38 39  1  0  0  0  0
  7  8  1  0  0  0  0
 17 18  1  0  0  0  0
 23 33  1  0  0  0  0
 24 34  1  0  0  0  0
 25 35  1  0  0  0  0
 26 36  1  0  0  0  0
  3  4  1  0  0  0  0
  3  5  1  0  0  0  0
  3  6  1  0  0  0  0
 42 45  1  0  0  0  0
 42 46  1  0  0  0  0
 42 47  1  0  0  0  0
 11 14  1  0  0  0  0
 11 15  1  0  0  0  0
 11 16  1  0  0  0  0
 49 51  1  0  0  0  0
 49 52  1  0  0  0  0
 49 53  1  0  0  0  0
 21 31  1  0  0  0  0
 21 32  1  0  0  0  0
 39 44  1  0  0  0  0
  8 13  1  0  0  0  0
 18 30  1  0  0  0  0
 48 50  1  0  0  0  0
  7 12  1  0  0  0  0
 38 43  1  0  0  0  0
 17 29  1  0  0  0  0
 28 37  1  0  0  0  0
M  END
$$$$

  -OEChem-05262214473D

 53 53  0     1  0  0  0  0  0999 V2000
   -1.9298    0.2574    3.9747 C   0  0  0  0  0  0  0  0  0  0  0  0
   -0.9825   -0.3573    3.4990 O   0  0  0  0  0  0  0  0  0  0  0  0
   -2.3617   -0.0250    5.3754 C   0  0  0  0  0  0  0  0  0  0  0  0
   -3.1214   -0.8213    5.4288 H   0  0  0  0  0  0  0  0  0  0  0  0
   -1.5305   -0.3726    6.0097 H   0  0  0  0  0  0  0  0  0  0  0  0
   -2.7997    0.8299    5.9150 H   0  0  0  0  0  0  0  0  0  0  0  0
   -2.6795    1.2298    3.3336 N   0  0  0  0  0  0  0  0  0  0  0  0
   -2.4327    1.6559    1.9812 C   0  0  2  0  0  0  0  0  0  0  0  0
   -1.0977    1.0705    1.5400 C   0  0  0  0  0  0  0  0  0  0  0  0
   -0.2256    0.7177    2.3313 O   0  0  0  0  0  0  0  0  0  0  0  0
   -2.4239    3.1726    1.8718 C   0  0  0  0  0  0  0  0  0  0  0  0
   -3.4446    1.6657    3.8454 H   0  0  0  0  0  0  0  0  0  0  0  0
   -3.2368    1.2374    1.3661 H   0  0  0  0  0  0  0  0  0  0  0  0
   -1.6248    3.6099    2.4815 H   0  0  0  0  0  0  0  0  0  0  0  0
   -2.2644    3.4949    0.8375 H   0  0  0  0  0  0  0  0  0  0  0  0
   -3.3741    3.5939    2.2175 H   0  0  0  0  0  0  0  0  0  0  0  0
   -0.9750    1.0274    0.1566 N   0  0  0  0  0  0  0  0  0  0  0  0
    0.2023    0.5266   -0.5070 C   0  0  2  0  0  0  0  0  0  0  0  0
   -0.0038   -0.9683   -0.7239 C   0  0  0  0  0  0  0  0  0  0  0  0
    0.7120   -1.6423   -1.4616 O   0  0  0  0  0  0  0  0  0  0  0  0
    1.4766    0.7762    0.3078 C   0  0  0  0  0  0  0  0  0  0  0  0
    1.8181    2.2418    0.4227 C   0  0  0  0  0  0  0  0  0  0  0  0
    2.4753    2.8890   -0.6237 C   0  0  0  0  0  0  0  0  0  0  0  0
    1.4772    2.9489    1.5756 C   0  0  0  0  0  0  0  0  0  0  0  0
    2.7914    4.2434   -0.5172 C   0  0  0  0  0  0  0  0  0  0  0  0
    1.7933    4.3033    1.6822 C   0  0  0  0  0  0  0  0  0  0  0  0
    2.4505    4.9505    0.6358 C   0  0  0  0  0  0  0  0  0  0  0  0
    2.7602    6.2718    0.7401 O   0  0  0  0  0  0  0  0  0  0  0  0
   -1.7582    1.3241   -0.4207 H   0  0  0  0  0  0  0  0  0  0  0  0
    0.2487    1.0275   -1.4812 H   0  0  0  0  0  0  0  0  0  0  0  0
    2.3231    0.2331   -0.1340 H   0  0  0  0  0  0  0  0  0  0  0  0
    1.3699    0.3676    1.3214 H   0  0  0  0  0  0  0  0  0  0  0  0
    2.7447    2.3459   -1.5256 H   0  0  0  0  0  0  0  0  0  0  0  0
    0.9649    2.4528    2.3960 H   0  0  0  0  0  0  0  0  0  0  0  0
    3.3038    4.7420   -1.3357 H   0  0  0  0  0  0  0  0  0  0  0  0
    1.5254    4.8484    2.5829 H   0  0  0  0  0  0  0  0  0  0  0  0
    2.4602    6.6211    1.5944 H   0  0  0  0  0  0  0  0  0  0  0  0
   -1.0489   -1.4653    0.0424 N   0  0  0  0  0  0  0  0  0  0  0  0
   -1.4410   -2.8564    0.0427 C   0  0  2  0  0  0  0  0  0  0  0  0
   -1.6021   -3.3000   -1.4053 C   0  0  0  0  0  0  0  0  0  0  0  0
   -1.8126   -2.5153   -2.3278 O   0  0  0  0  0  0  0  0  0  0  0  0
   -2.7294   -3.0679    0.8225 C   0  0  0  0  0  0  0  0  0  0  0  0
   -1.5641   -0.8188    0.6326 H   0  0  0  0  0  0  0  0  0  0  0  0
   -0.6219   -3.4157    0.5077 H   0  0  0  0  0  0  0  0  0  0  0  0
   -3.5615   -2.5151    0.3715 H   0  0  0  0  0  0  0  0  0  0  0  0
   -3.0097   -4.1261    0.8460 H   0  0  0  0  0  0  0  0  0  0  0  0
   -2.6210   -2.7208    1.8558 H   0  0  0  0  0  0  0  0  0  0  0  0
   -1.5259   -4.6792   -1.5401 N   0  0  0  0  0  0  0  0  0  0  0  0
   -1.6610   -5.3466   -2.8138 C   0  0  0  0  0  0  0  0  0  0  0  0
   -1.3299   -5.2510   -0.7238 H   0  0  0  0  0  0  0  0  0  0  0  0
   -2.7127   -5.6278   -2.9713 H   0  0  0  0  0  0  0  0  0  0  0  0
   -1.3381   -4.6697   -3.6184 H   0  0  0  0  0  0  0  0  0  0  0  0
   -1.0347   -6.2509   -2.8220 H   0  0  0  0  0  0  0  0  0  0  0  0
 23 25  2  0  0  0  0
 22 23  1  0  0  0  0
 24 26  1  0  0  0  0
 22 24  2  0  0  0  0
 25 27  1  0  0  0  0
 26 27  2  0  0  0  0
 21 22  1  0  0  0  0
 27 28  1  0  0  0  0
  1  3  1  0  0  0  0
  1  7  1  0  0  0  0
  1  2  2  0  0  0  0
 39 40  1  0  0  0  0
 40 48  1  0  0  0  0
 40 41  2  0  0  0  0
  8  9  1  0  0  0  0
  9 17  1  0  0  0  0
  9 10  2  0  0  0  0
 18 19  1  0  0  0  0
 19 38  1  0  0  0  0
 19 20  2  0  0  0  0
 39 42  1  0  0  0  0
  8 11  1  0  0  0  0
 48 49  1  0  0  0  0
 18 21  1  0  0  0  0
 38 39  1  0  0  0  0
  7  8  1  0  0  0  0
 17 18  1  0  0  0  0
 23 33  1  0  0  0  0
 24 34  1  0  0  0  0
 25 35  1  0  0  0  0
 26 36  1  0  0  0  0
  3  4  1  0  0  0  0
  3  5  1  0  0  0  0
  3  6  1  0  0  0  0
 42 45  1  0  0  0  0
 42 46  1  0  0  0  0
 42 47  1  0  0  0  0
 11 14  1  0  0  0  0
 11 15  1  0  0  0  0
 11 16  1  0  0  0  0
 49 51  1  0  0  0  0
 49 52  1  0  0  0  0
 49 53  1  0  0  0  0
 21 31  1  0  0  0  0
 21 32  1  0  0  0  0
 39 44  1  0  0  0  0
  8 13  1  0  0  0  0
 18 30  1  0  0  0  0
 48 50  1  0  0  0  0
  7 12  1  0  0  0  0
 38 43  1  0  0  0  0
 17 29  1  0  0  0  0
 28 37  1  0  0  0  0
M  END
$$$$

  -OEChem-05262214473D

 53 53  0     1  0  0  0  0  0999 V2000
   -1.9298    0.2574    3.9747 C   0  0  0  0  0  0  0  0  0  0  0  0
   -0.9825   -0.3573    3.4990 O   0  0  0  0  0  0  0  0  0  0  0  0
   -2.3617   -0.0250    5.3754 C   0  0  0  0  0  0  0  0  0  0  0  0
   -3.1214   -0.8213    5.4288 H   0  0  0  0  0  0  0  0  0  0  0  0
   -1.5305   -0.3726    6.0097 H   0  0  0  0  0  0  0  0  0  0  0  0
   -2.7997    0.8299    5.9150 H   0  0  0  0  0  0  0  0  0  0  0  0
   -2.6795    1.2298    3.3336 N   0  0  0  0  0  0  0  0  0  0  0  0
   -2.4327    1.6559    1.9812 C   0  0  2  0  0  0  0  0  0  0  0  0
   -1.0977    1.0705    1.5400 C   0  0  0  0  0  0  0  0  0  0  0  0
   -0.2256    0.7177    2.3313 O   0  0  0  0  0  0  0  0  0  0  0  0
   -2.4239    3.1726    1.8718 C   0  0  0  0  0  0  0  0  0  0  0  0
   -3.4446    1.6657    3.8454 H   0  0  0  0  0  0  0  0  0  0  0  0
   -3.2368    1.2374    1.3661 H   0  0  0  0  0  0  0  0  0  0  0  0
   -1.6248    3.6099    2.4815 H   0  0  0  0  0  0  0  0  0  0  0  0
   -2.2644    3.4949    0.8375 H   0  0  0  0  0  0  0  0  0  0  0  0
   -3.3741    3.5939    2.2175 H   0  0  0  0  0  0  0  0  0  0  0  0
   -0.9750    1.0274    0.1566 N   0  0  0  0  0  0  0  0  0  0  0  0
    0.2023    0.5266   -0.5070 C   0  0  2  0  0  0  0  0  0  0  0  0
   -0.0038   -0.9683   -0.7239 C   0  0  0  0  0  0  0  0  0  0  0  0
    0.8470   -1.6939   -1.2345 O   0  0  0  0  0  0  0  0  0  0  0  0
    1.4766    0.7762    0.3078 C   0  0  0  0  0  0  0  0  0  0  0  0
    1.8181    2.2418    0.4227 C   0  0  0  0  0  0  0  0  0  0  0  0
    2.4753    2.8890   -0.6237 C   0  0  0  0  0  0  0  0  0  0  0  0
    1.4772    2.9489    1.5756 C   0  0  0  0  0  0  0  0  0  0  0  0
    2.7914    4.2434   -0.5172 C   0  0  0  0  0  0  0  0  0  0  0  0
    1.7933    4.3033    1.6822 C   0  0  0  0  0  0  0  0  0  0  0  0
    2.4505    4.9505    0.6358 C   0  0  0  0  0  0  0  0  0  0  0  0
    2.7602    6.2718    0.7401 O   0  0  0  0  0  0  0  0  0  0  0  0
   -1.7582    1.3241   -0.4207 H   0  0  0  0  0  0  0  0  0  0  0  0
    0.2487    1.0275   -1.4812 H   0  0  0  0  0  0  0  0  0  0  0  0
    2.3231    0.2331   -0.1340 H   0  0  0  0  0  0  0  0  0  0  0  0
    1.3699    0.3676    1.3214 H   0  0  0  0  0  0  0  0  0  0  0  0
    2.7447    2.3459   -1.5256 H   0  0  0  0  0  0  0  0  0  0  0  0
    0.9649    2.4528    2.3960 H   0  0  0  0  0  0  0  0  0  0  0  0
    3.3038    4.7420   -1.3357 H   0  0  0  0  0  0  0  0  0  0  0  0
    1.5254    4.8484    2.5829 H   0  0  0  0  0  0  0  0  0  0  0  0
    2.4602    6.6211    1.5944 H   0  0  0  0  0  0  0  0  0  0  0  0
   -1.2285   -1.4004   -0.2341 N   0  0  0  0  0  0  0  0  0  0  0  0
   -1.6650   -2.7770   -0.2915 C   0  0  2  0  0  0  0  0  0  0  0  0
   -1.4725   -3.2724   -1.7187 C   0  0  0  0  0  0  0  0  0  0  0  0
   -1.4101   -2.5185   -2.6877 O   0  0  0  0  0  0  0  0  0  0  0  0
   -3.1164   -2.9156    0.1409 C   0  0  0  0  0  0  0  0  0  0  0  0
   -1.8491   -0.7147    0.1858 H   0  0  0  0  0  0  0  0  0  0  0  0
   -1.0141   -3.3436    0.3833 H   0  0  0  0  0  0  0  0  0  0  0  0
   -3.7837   -2.3546   -0.5235 H   0  0  0  0  0  0  0  0  0  0  0  0
   -3.4371   -3.9625    0.1242 H   0  0  0  0  0  0  0  0  0  0  0  0
   -3.2589   -2.5314    1.1567 H   0  0  0  0  0  0  0  0  0  0  0  0
   -1.4218   -4.6576   -1.7880 N   0  0  0  0  0  0  0  0  0  0  0  0
   -1.2575   -5.3704   -3.0333 C   0  0  0  0  0  0  0  0  0  0  0  0
   -1.4626   -5.2025   -0.9318 H   0  0  0  0  0  0  0  0  0  0  0  0
   -2.2458   -5.6234   -3.4447 H   0  0  0  0  0  0  0  0  0  0  0  0
   -0.7137   -4.7367   -3.7494 H   0  0  0  0  0  0  0  0  0  0  0  0
   -0.6875   -6.2940   -2.8546 H   0  0  0  0  0  0  0  0  0  0  0  0
 23 25  2  0  0  0  0
 22 23  1  0  0  0  0
 24 26  1  0  0  0  0
 22 24  2  0  0  0  0
 25 27  1  0  0  0  0
 26 27  2  0  0  0  0
 21 22  1  0  0  0  0
 27 28  1  0  0  0  0
  1  3  1  0  0  0  0
  1  7  1  0  0  0  0
  1  2  2  0  0  0  0
 39 40  1  0  0  0  0
 40 48  1  0  0  0  0
 40 41  2  0  0  0  0
  8  9  1  0  0  0  0
  9 17  1  0  0  0  0
  9 10  2  0  0  0  0
 18 19  1  0  0  0  0
 19 38  1  0  0  0  0
 19 20  2  0  0  0  0
 39 42  1  0  0  0  0
  8 11  1  0  0  0  0
 48 49  1  0  0  0  0
 18 21  1  0  0  0  0
 38 39  1  0  0  0  0
  7  8  1  0  0  0  0
 17 18  1  0  0  0  0
 23 33  1  0  0  0  0
 24 34  1  0  0  0  0
 25 35  1  0  0  0  0
 26 36  1  0  0  0  0
  3  4  1  0  0  0  0
  3  5  1  0  0  0  0
  3  6  1  0  0  0  0
 42 45  1  0  0  0  0
 42 46  1  0  0  0  0
 42 47  1  0  0  0  0
 11 14  1  0  0  0  0
 11 15  1  0  0  0  0
 11 16  1  0  0  0  0
 49 51  1  0  0  0  0
 49 52  1  0  0  0  0
 49 53  1  0  0  0  0
 21 31  1  0  0  0  0
 21 32  1  0  0  0  0
 39 44  1  0  0  0  0
  8 13  1  0  0  0  0
 18 30  1  0  0  0  0
 48 50  1  0  0  0  0
  7 12  1  0  0  0  0
 38 43  1  0  0  0  0
 17 29  1  0  0  0  0
 28 37  1  0  0  0  0
M  END
$$$$

  -OEChem-05262214473D

 53 53  0     1  0  0  0  0  0999 V2000
   -1.9298    0.2574    3.9747 C   0  0  0  0  0  0  0  0  0  0  0  0
   -0.9825   -0.3573    3.4990 O   0  0  0  0  0  0  0  0  0  0  0  0
   -2.3617   -0.0250    5.3754 C   0  0  0  0  0  0  0  0  0  0  0  0
   -3.1214   -0.8213    5.4288 H   0  0  0  0  0  0  0  0  0  0  0  0
   -1.5305   -0.3726    6.0097 H   0  0  0  0  0  0  0  0  0  0  0  0
   -2.7997    0.8299    5.9150 H   0  0  0  0  0  0  0  0  0  0  0  0
   -2.6795    1.2298    3.3336 N   0  0  0  0  0  0  0  0  0  0  0  0
   -2.4327    1.6559    1.9812 C   0  0  2  0  0  0  0  0  0  0  0  0
   -1.0977    1.0705    1.5400 C   0  0  0  0  0  0  0  0  0  0  0  0
   -0.2256    0.7177    2.3313 O   0  0  0  0  0  0  0  0  0  0  0  0
   -2.4239    3.1726    1.8718 C   0  0  0  0  0  0  0  0  0  0  0  0
   -3.4446    1.6657    3.8454 H   0  0  0  0  0  0  0  0  0  0  0  0
   -3.2368    1.2374    1.3661 H   0  0  0  0  0  0  0  0  0  0  0  0
   -1.6248    3.6099    2.4815 H   0  0  0  0  0  0  0  0  0  0  0  0
   -2.2644    3.4949    0.8375 H   0  0  0  0  0  0  0  0  0  0  0  0
   -3.3741    3.5939    2.2175 H   0  0  0  0  0  0  0  0  0  0  0  0
   -0.9750    1.0274    0.1566 N   0  0  0  0  0  0  0  0  0  0  0  0
    0.2023    0.5266   -0.5070 C   0  0  2  0  0  0  0  0  0  0  0  0
   -0.0038   -0.9683   -0.7239 C   0  0  0  0  0  0  0  0  0  0  0  0
    0.9177   -1.7407   -0.9791 O   0  0  0  0  0  0  0  0  0  0  0  0
    1.4766    0.7762    0.3078 C   0  0  0  0  0  0  0  0  0  0  0  0
    1.8181    2.2418    0.4227 C   0  0  0  0  0  0  0  0  0  0  0  0
    2.4753    2.8890   -0.6237 C   0  0  0  0  0  0  0  0  0  0  0  0
    1.4772    2.9489    1.5756 C   0  0  0  0  0  0  0  0  0  0  0  0
    2.7914    4.2434   -0.5172 C   0  0  0  0  0  0  0  0  0  0  0  0
    1.7933    4.3033    1.6822 C   0  0  0  0  0  0  0  0  0  0  0  0
    2.4505    4.9505    0.6358 C   0  0  0  0  0  0  0  0  0  0  0  0
    2.7602    6.2718    0.7401 O   0  0  0  0  0  0  0  0  0  0  0  0
   -1.7582    1.3241   -0.4207 H   0  0  0  0  0  0  0  0  0  0  0  0
    0.2487    1.0275   -1.4812 H   0  0  0  0  0  0  0  0  0  0  0  0
    2.3231    0.2331   -0.1340 H   0  0  0  0  0  0  0  0  0  0  0  0
    1.3699    0.3676    1.3214 H   0  0  0  0  0  0  0  0  0  0  0  0
    2.7447    2.3459   -1.5256 H   0  0  0  0  0  0  0  0  0  0  0  0
    0.9649    2.4528    2.3960 H   0  0  0  0  0  0  0  0  0  0  0  0
    3.3038    4.7420   -1.3357 H   0  0  0  0  0  0  0  0  0  0  0  0
    1.5254    4.8484    2.5829 H   0  0  0  0  0  0  0  0  0  0  0  0
    2.4602    6.6211    1.5944 H   0  0  0  0  0  0  0  0  0  0  0  0
   -1.3293   -1.3408   -0.5490 N   0  0  0  0  0  0  0  0  0  0  0  0
   -1.7937   -2.7038   -0.6739 C   0  0  2  0  0  0  0  0  0  0  0  0
   -1.2668   -3.2614   -1.9896 C   0  0  0  0  0  0  0  0  0  0  0  0
   -0.9300   -2.5491   -2.9331 O   0  0  0  0  0  0  0  0  0  0  0  0
   -3.3117   -2.7782   -0.6211 C   0  0  0  0  0  0  0  0  0  0  0  0
   -2.0072   -0.6193   -0.3218 H   0  0  0  0  0  0  0  0  0  0  0  0
   -1.3588   -3.2638    0.1611 H   0  0  0  0  0  0  0  0  0  0  0  0
   -3.7653   -2.2227   -1.4501 H   0  0  0  0  0  0  0  0  0  0  0  0
   -3.6607   -3.8139   -0.6872 H   0  0  0  0  0  0  0  0  0  0  0  0
   -3.6907   -2.3495    0.3129 H   0  0  0  0  0  0  0  0  0  0  0  0
   -1.2575   -4.6492   -2.0018 N   0  0  0  0  0  0  0  0  0  0  0  0
   -0.8130   -5.4159   -3.1422 C   0  0  0  0  0  0  0  0  0  0  0  0
   -1.5362   -5.1581   -1.1680 H   0  0  0  0  0  0  0  0  0  0  0  0
   -1.6745   -5.6530   -3.7837 H   0  0  0  0  0  0  0  0  0  0  0  0
   -0.0799   -4.8291   -3.7151 H   0  0  0  0  0  0  0  0  0  0  0  0
   -0.3454   -6.3496   -2.7964 H   0  0  0  0  0  0  0  0  0  0  0  0
 23 25  2  0  0  0  0
 22 23  1  0  0  0  0
 24 26  1  0  0  0  0
 22 24  2  0  0  0  0
 25 27  1  0  0  0  0
 26 27  2  0  0  0  0
 21 22  1  0  0  0  0
 27 28  1  0  0  0  0
  1  3  1  0  0  0  0
  1  7  1  0  0  0  0
  1  2  2  0  0  0  0
 39 40  1  0  0  0  0
 40 48  1  0  0  0  0
 40 41  2  0  0  0  0
  8  9  1  0  0  0  0
  9 17  1  0  0  0  0
  9 10  2  0  0  0  0
 18 19  1  0  0  0  0
 19 38  1  0  0  0  0
 19 20  2  0  0  0  0
 39 42  1  0  0  0  0
  8 11  1  0  0  0  0
 48 49  1  0  0  0  0
 18 21  1  0  0  0  0
 38 39  1  0  0  0  0
  7  8  1  0  0  0  0
 17 18  1  0  0  0  0
 23 33  1  0  0  0  0
 24 34  1  0  0  0  0
 25 35  1  0  0  0  0
 26 36  1  0  0  0  0
  3  4  1  0  0  0  0
  3  5  1  0  0  0  0
  3  6  1  0  0  0  0
 42 45  1  0  0  0  0
 42 46  1  0  0  0  0
 42 47  1  0  0  0  0
 11 14  1  0  0  0  0
 11 15  1  0  0  0  0
 11 16  1  0  0  0  0
 49 51  1  0  0  0  0
 49 52  1  0  0  0  0
 49 53  1  0  0  0  0
 21 31  1  0  0  0  0
 21 32  1  0  0  0  0
 39 44  1  0  0  0  0
  8 13  1  0  0  0  0
 18 30  1  0  0  0  0
 48 50  1  0  0  0  0
  7 12  1  0  0  0  0
 38 43  1  0  0  0  0
 17 29  1  0  0  0  0
 28 37  1  0  0  0  0
M  END
$$$$

  -OEChem-05262214473D

 53 53  0     1  0  0  0  0  0999 V2000
   -1.9298    0.2574    3.9747 C   0  0  0  0  0  0  0  0  0  0  0  0
   -0.9825   -0.3573    3.4990 O   0  0  0  0  0  0  0  0  0  0  0  0
   -2.3617   -0.0250    5.3754 C   0  0  0  0  0  0  0  0  0  0  0  0
   -3.1214   -0.8213    5.4288 H   0  0  0  0  0  0  0  0  0  0  0  0
   -1.5305   -0.3726    6.0097 H   0  0  0  0  0  0  0  0  0  0  0  0
   -2.7997    0.8299    5.9150 H   0  0  0  0  0  0  0  0  0  0  0  0
   -2.6795    1.2298    3.3336 N   0  0  0  0  0  0  0  0  0  0  0  0
   -2.4327    1.6559    1.9812 C   0  0  2  0  0  0  0  0  0  0  0  0
   -1.0977    1.0705    1.5400 C   0  0  0  0  0  0  0  0  0  0  0  0
   -0.2256    0.7177    2.3313 O   0  0  0  0  0  0  0  0  0  0  0  0
   -2.4239    3.1726    1.8718 C   0  0  0  0  0  0  0  0  0  0  0  0
   -3.4446    1.6657    3.8454 H   0  0  0  0  0  0  0  0  0  0  0  0
   -3.2368    1.2374    1.3661 H   0  0  0  0  0  0  0  0  0  0  0  0
   -1.6248    3.6099    2.4815 H   0  0  0  0  0  0  0  0  0  0  0  0
   -2.2644    3.4949    0.8375 H   0  0  0  0  0  0  0  0  0  0  0  0
   -3.3741    3.5939    2.2175 H   0  0  0  0  0  0  0  0  0  0  0  0
   -0.9750    1.0274    0.1566 N   0  0  0  0  0  0  0  0  0  0  0  0
    0.2023    0.5266   -0.5070 C   0  0  2  0  0  0  0  0  0  0  0  0
   -0.0038   -0.9683   -0.7239 C   0  0  0  0  0  0  0  0  0  0  0  0
    0.9196   -1.7796   -0.7127 O   0  0  0  0  0  0  0  0  0  0  0  0
    1.4766    0.7762    0.3078 C   0  0  0  0  0  0  0  0  0  0  0  0
    1.8181    2.2418    0.4227 C   0  0  0  0  0  0  0  0  0  0  0  0
    2.4753    2.8890   -0.6237 C   0  0  0  0  0  0  0  0  0  0  0  0
    1.4772    2.9489    1.5756 C   0  0  0  0  0  0  0  0  0  0  0  0
    2.7914    4.2434   -0.5172 C   0  0  0  0  0  0  0  0  0  0  0  0
    1.7933    4.3033    1.6822 C   0  0  0  0  0  0  0  0  0  0  0  0
    2.4505    4.9505    0.6358 C   0  0  0  0  0  0  0  0  0  0  0  0
    2.7602    6.2718    0.7401 O   0  0  0  0  0  0  0  0  0  0  0  0
   -1.7582    1.3241   -0.4207 H   0  0  0  0  0  0  0  0  0  0  0  0
    0.2487    1.0275   -1.4812 H   0  0  0  0  0  0  0  0  0  0  0  0
    2.3231    0.2331   -0.1340 H   0  0  0  0  0  0  0  0  0  0  0  0
    1.3699    0.3676    1.3214 H   0  0  0  0  0  0  0  0  0  0  0  0
    2.7447    2.3459   -1.5256 H   0  0  0  0  0  0  0  0  0  0  0  0
    0.9649    2.4528    2.3960 H   0  0  0  0  0  0  0  0  0  0  0  0
    3.3038    4.7420   -1.3357 H   0  0  0  0  0  0  0  0  0  0  0  0
    1.5254    4.8484    2.5829 H   0  0  0  0  0  0  0  0  0  0  0  0
    2.4602    6.6211    1.5944 H   0  0  0  0  0  0  0  0  0  0  0  0
   -1.3447   -1.2906   -0.8809 N   0  0  0  0  0  0  0  0  0  0  0  0
   -1.8182   -2.6417   -1.0786 C   0  0  2  0  0  0  0  0  0  0  0  0
   -0.9990   -3.2679   -2.1994 C   0  0  0  0  0  0  0  0  0  0  0  0
   -0.4052   -2.6049   -3.0473 O   0  0  0  0  0  0  0  0  0  0  0  0
   -3.3019   -2.6648   -1.4115 C   0  0  0  0  0  0  0  0  0  0  0  0
   -2.0275   -0.5390   -0.8555 H   0  0  0  0  0  0  0  0  0  0  0  0
   -1.6324   -3.1819   -0.1439 H   0  0  0  0  0  0  0  0  0  0  0  0
   -3.5075   -2.1284   -2.3450 H   0  0  0  0  0  0  0  0  0  0  0  0
   -3.6653   -3.6906   -1.5329 H   0  0  0  0  0  0  0  0  0  0  0  0
   -3.8869   -2.1874   -0.6180 H   0  0  0  0  0  0  0  0  0  0  0  0
   -1.0443   -4.6546   -2.1669 N   0  0  0  0  0  0  0  0  0  0  0  0
   -0.3576   -5.4800   -3.1329 C   0  0  0  0  0  0  0  0  0  0  0  0
   -1.5457   -5.1207   -1.4165 H   0  0  0  0  0  0  0  0  0  0  0  0
   -1.0378   -5.7145   -3.9650 H   0  0  0  0  0  0  0  0  0  0  0  0
    0.5202   -4.9404   -3.5180 H   0  0  0  0  0  0  0  0  0  0  0  0
   -0.0318   -6.4139   -2.6515 H   0  0  0  0  0  0  0  0  0  0  0  0
 23 25  2  0  0  0  0
 22 23  1  0  0  0  0
 24 26  1  0  0  0  0
 22 24  2  0  0  0  0
 25 27  1  0  0  0  0
 26 27  2  0  0  0  0
 21 22  1  0  0  0  0
 27 28  1  0  0  0  0
  1  3  1  0  0  0  0
  1  7  1  0  0  0  0
  1  2  2  0  0  0  0
 39 40  1  0  0  0  0
 40 48  1  0  0  0  0
 40 41  2  0  0  0  0
  8  9  1  0  0  0  0
  9 17  1  0  0  0  0
  9 10  2  0  0  0  0
 18 19  1  0  0  0  0
 19 38  1  0  0  0  0
 19 20  2  0  0  0  0
 39 42  1  0  0  0  0
  8 11  1  0  0  0  0
 48 49  1  0  0  0  0
 18 21  1  0  0  0  0
 38 39  1  0  0  0  0
  7  8  1  0  0  0  0
 17 18  1  0  0  0  0
 23 33  1  0  0  0  0
 24 34  1  0  0  0  0
 25 35  1  0  0  0  0
 26 36  1  0  0  0  0
  3  4  1  0  0  0  0
  3  5  1  0  0  0  0
  3  6  1  0  0  0  0
 42 45  1  0  0  0  0
 42 46  1  0  0  0  0
 42 47  1  0  0  0  0
 11 14  1  0  0  0  0
 11 15  1  0  0  0  0
 11 16  1  0  0  0  0
 49 51  1  0  0  0  0
 49 52  1  0  0  0  0
 49 53  1  0  0  0  0
 21 31  1  0  0  0  0
 21 32  1  0  0  0  0
 39 44  1  0  0  0  0
  8 13  1  0  0  0  0
 18 30  1  0  0  0  0
 48 50  1  0  0  0  0
  7 12  1  0  0  0  0
 38 43  1  0  0  0  0
 17 29  1  0  0  0  0
 28 37  1  0  0  0  0
M  END
$$$$

  -OEChem-05262214473D

 53 53  0     1  0  0  0  0  0999 V2000
   -1.9298    0.2574    3.9747 C   0  0  0  0  0  0  0  0  0  0  0  0
   -0.9825   -0.3573    3.4990 O   0  0  0  0  0  0  0  0  0  0  0  0
   -2.3617   -0.0250    5.3754 C   0  0  0  0  0  0  0  0  0  0  0  0
   -3.1214   -0.8213    5.4288 H   0  0  0  0  0  0  0  0  0  0  0  0
   -1.5305   -0.3726    6.0097 H   0  0  0  0  0  0  0  0  0  0  0  0
   -2.7997    0.8299    5.9150 H   0  0  0  0  0  0  0  0  0  0  0  0
   -2.6795    1.2298    3.3336 N   0  0  0  0  0  0  0  0  0  0  0  0
   -2.4327    1.6559    1.9812 C   0  0  2  0  0  0  0  0  0  0  0  0
   -1.0977    1.0705    1.5400 C   0  0  0  0  0  0  0  0  0  0  0  0
   -0.2256    0.7177    2.3313 O   0  0  0  0  0  0  0  0  0  0  0  0
   -2.4239    3.1726    1.8718 C   0  0  0  0  0  0  0  0  0  0  0  0
   -3.4446    1.6657    3.8454 H   0  0  0  0  0  0  0  0  0  0  0  0
   -3.2368    1.2374    1.3661 H   0  0  0  0  0  0  0  0  0  0  0  0
   -1.6248    3.6099    2.4815 H   0  0  0  0  0  0  0  0  0  0  0  0
   -2.2644    3.4949    0.8375 H   0  0  0  0  0  0  0  0  0  0  0  0
   -3.3741    3.5939    2.2175 H   0  0  0  0  0  0  0  0  0  0  0  0
   -0.9750    1.0274    0.1566 N   0  0  0  0  0  0  0  0  0  0  0  0
    0.2023    0.5266   -0.5070 C   0  0  2  0  0  0  0  0  0  0  0  0
   -0.0038   -0.9683   -0.7239 C   0  0  0  0  0  0  0  0  0  0  0  0
    0.8523   -1.8079   -0.4536 O   0  0  0  0  0  0  0  0  0  0  0  0
    1.4766    0.7762    0.3078 C   0  0  0  0  0  0  0  0  0  0  0  0
    1.8181    2.2418    0.4227 C   0  0  0  0  0  0  0  0  0  0  0  0
    2.4753    2.8890   -0.6237 C   0  0  0  0  0  0  0  0  0  0  0  0
    1.4772    2.9489    1.5756 C   0  0  0  0  0  0  0  0  0  0  0  0
    2.7914    4.2434   -0.5172 C   0  0  0  0  0  0  0  0  0  0  0  0
    1.7933    4.3033    1.6822 C   0  0  0  0  0  0  0  0  0  0  0  0
    2.4505    4.9505    0.6358 C   0  0  0  0  0  0  0  0  0  0  0  0
    2.7602    6.2718    0.7401 O   0  0  0  0  0  0  0  0  0  0  0  0
   -1.7582    1.3241   -0.4207 H   0  0  0  0  0  0  0  0  0  0  0  0
    0.2487    1.0275   -1.4812 H   0  0  0  0  0  0  0  0  0  0  0  0
    2.3231    0.2331   -0.1340 H   0  0  0  0  0  0  0  0  0  0  0  0
    1.3699    0.3676    1.3214 H   0  0  0  0  0  0  0  0  0  0  0  0
    2.7447    2.3459   -1.5256 H   0  0  0  0  0  0  0  0  0  0  0  0
    0.9649    2.4528    2.3960 H   0  0  0  0  0  0  0  0  0  0  0  0
    3.3038    4.7420   -1.3357 H   0  0  0  0  0  0  0  0  0  0  0  0
    1.5254    4.8484    2.5829 H   0  0  0  0  0  0  0  0  0  0  0  0
    2.4602    6.6211    1.5944 H   0  0  0  0  0  0  0  0  0  0  0  0
   -1.2734   -1.2531   -1.2071 N   0  0  0  0  0  0  0  0  0  0  0  0
   -1.7369   -2.5950   -1.4778 C   0  0  2  0  0  0  0  0  0  0  0  0
   -0.6872   -3.2913   -2.3338 C   0  0  0  0  0  0  0  0  0  0  0  0
    0.1287   -2.6821   -3.0224 O   0  0  0  0  0  0  0  0  0  0  0  0
   -3.0876   -2.5834   -2.1765 C   0  0  0  0  0  0  0  0  0  0  0  0
   -1.9088   -0.4794   -1.3790 H   0  0  0  0  0  0  0  0  0  0  0  0
   -1.8162   -3.1033   -0.5107 H   0  0  0  0  0  0  0  0  0  0  0  0
   -3.0279   -2.0781   -3.1473 H   0  0  0  0  0  0  0  0  0  0  0  0
   -3.4506   -3.6009   -2.3552 H   0  0  0  0  0  0  0  0  0  0  0  0
   -3.8342   -2.0561   -1.5727 H   0  0  0  0  0  0  0  0  0  0  0  0
   -0.7966   -4.6735   -2.2720 N   0  0  0  0  0  0  0  0  0  0  0  0
    0.0775   -5.5583   -3.0061 C   0  0  0  0  0  0  0  0  0  0  0  0
   -1.4905   -5.0930   -1.6602 H   0  0  0  0  0  0  0  0  0  0  0  0
   -0.3790   -5.8036   -3.9764 H   0  0  0  0  0  0  0  0  0  0  0  0
    1.0458   -5.0631   -3.1713 H   0  0  0  0  0  0  0  0  0  0  0  0
    0.2319   -6.4824   -2.4297 H   0  0  0  0  0  0  0  0  0  0  0  0
 23 25  2  0  0  0  0
 22 23  1  0  0  0  0
 24 26  1  0  0  0  0
 22 24  2  0  0  0  0
 25 27  1  0  0  0  0
 26 27  2  0  0  0  0
 21 22  1  0  0  0  0
 27 28  1  0  0  0  0
  1  3  1  0  0  0  0
  1  7  1  0  0  0  0
  1  2  2  0  0  0  0
 39 40  1  0  0  0  0
 40 48  1  0  0  0  0
 40 41  2  0  0  0  0
  8  9  1  0  0  0  0
  9 17  1  0  0  0  0
  9 10  2  0  0  0  0
 18 19  1  0  0  0  0
 19 38  1  0  0  0  0
 19 20  2  0  0  0  0
 39 42  1  0  0  0  0
  8 11  1  0  0  0  0
 48 49  1  0  0  0  0
 18 21  1  0  0  0  0
 38 39  1  0  0  0  0
  7  8  1  0  0  0  0
 17 18  1  0  0  0  0
 23 33  1  0  0  0  0
 24 34  1  0  0  0  0
 25 35  1  0  0  0  0
 26 36  1  0  0  0  0
  3  4  1  0  0  0  0
  3  5  1  0  0  0  0
  3  6  1  0  0  0  0
 42 45  1  0  0  0  0
 42 46  1  0  0  0  0
 42 47  1  0  0  0  0
 11 14  1  0  0  0  0
 11 15  1  0  0  0  0
 11 16  1  0  0  0  0
 49 51  1  0  0  0  0
 49 52  1  0  0  0  0
 49 53  1  0  0  0  0
 21 31  1  0  0  0  0
 21 32  1  0  0  0  0
 39 44  1  0  0  0  0
  8 13  1  0  0  0  0
 18 30  1  0  0  0  0
 48 50  1  0  0  0  0
  7 12  1  0  0  0  0
 38 43  1  0  0  0  0
 17 29  1  0  0  0  0
 28 37  1  0  0  0  0
M  END
$$$$

  -OEChem-05262214473D

 53 53  0     1  0  0  0  0  0999 V2000
   -1.9298    0.2574    3.9747 C   0  0  0  0  0  0  0  0  0  0  0  0
   -0.9825   -0.3573    3.4990 O   0  0  0  0  0  0  0  0  0  0  0  0
   -2.3617   -0.0250    5.3754 C   0  0  0  0  0  0  0  0  0  0  0  0
   -3.1214   -0.8213    5.4288 H   0  0  0  0  0  0  0  0  0  0  0  0
   -1.5305   -0.3726    6.0097 H   0  0  0  0  0  0  0  0  0  0  0  0
   -2.7997    0.8299    5.9150 H   0  0  0  0  0  0  0  0  0  0  0  0
   -2.6795    1.2298    3.3336 N   0  0  0  0  0  0  0  0  0  0  0  0
   -2.4327    1.6559    1.9812 C   0  0  2  0  0  0  0  0  0  0  0  0
   -1.0977    1.0705    1.5400 C   0  0  0  0  0  0  0  0  0  0  0  0
   -0.2256    0.7177    2.3313 O   0  0  0  0  0  0  0  0  0  0  0  0
   -2.4239    3.1726    1.8718 C   0  0  0  0  0  0  0  0  0  0  0  0
   -3.4446    1.6657    3.8454 H   0  0  0  0  0  0  0  0  0  0  0  0
   -3.2368    1.2374    1.3661 H   0  0  0  0  0  0  0  0  0  0  0  0
   -1.6248    3.6099    2.4815 H   0  0  0  0  0  0  0  0  0  0  0  0
   -2.2644    3.4949    0.8375 H   0  0  0  0  0  0  0  0  0  0  0  0
   -3.3741    3.5939    2.2175 H   0  0  0  0  0  0  0  0  0  0  0  0
   -0.9750    1.0274    0.1566 N   0  0  0  0  0  0  0  0  0  0  0  0
    0.2023    0.5266   -0.5070 C   0  0  2  0  0  0  0  0  0  0  0  0
   -0.0038   -0.9683   -0.7239 C   0  0  0  0  0  0  0  0  0  0  0  0
    0.7206   -1.8237   -0.2194 O   0  0  0  0  0  0  0  0  0  0  0  0
    1.4766    0.7762    0.3078 C   0  0  0  0  0  0  0  0  0  0  0  0
    1.8181    2.2418    0.4227 C   0  0  0  0  0  0  0  0  0  0  0  0
    2.4753    2.8890   -0.6237 C   0  0  0  0  0  0  0  0  0  0  0  0
    1.4772    2.9489    1.5756 C   0  0  0  0  0  0  0  0  0  0  0  0
    2.7914    4.2434   -0.5172 C   0  0  0  0  0  0  0  0  0  0  0  0
    1.7933    4.3033    1.6822 C   0  0  0  0  0  0  0  0  0  0  0  0
    2.4505    4.9505    0.6358 C   0  0  0  0  0  0  0  0  0  0  0  0
    2.7602    6.2718    0.7401 O   0  0  0  0  0  0  0  0  0  0  0  0
   -1.7582    1.3241   -0.4207 H   0  0  0  0  0  0  0  0  0  0  0  0
    0.2487    1.0275   -1.4812 H   0  0  0  0  0  0  0  0  0  0  0  0
    2.3231    0.2331   -0.1340 H   0  0  0  0  0  0  0  0  0  0  0  0
    1.3699    0.3676    1.3214 H   0  0  0  0  0  0  0  0  0  0  0  0
    2.7447    2.3459   -1.5256 H   0  0  0  0  0  0  0  0  0  0  0  0
    0.9649    2.4528    2.3960 H   0  0  0  0  0  0  0  0  0  0  0  0
    3.3038    4.7420   -1.3357 H   0  0  0  0  0  0  0  0  0  0  0  0
    1.5254    4.8484    2.5829 H   0  0  0  0  0  0  0  0  0  0  0  0
    2.4602    6.6211    1.5944 H   0  0  0  0  0  0  0  0  0  0  0  0
   -1.1204   -1.2309   -1.5054 N   0  0  0  0  0  0  0  0  0  0  0  0
   -1.5553   -2.5668   -1.8445 C   0  0  2  0  0  0  0  0  0  0  0  0
   -0.3529   -3.3302   -2.3838 C   0  0  0  0  0  0  0  0  0  0  0  0
    0.6352   -2.7754   -2.8601 O   0  0  0  0  0  0  0  0  0  0  0  0
   -2.6835   -2.5393   -2.8638 C   0  0  0  0  0  0  0  0  0  0  0  0
   -1.6590   -0.4446   -1.8566 H   0  0  0  0  0  0  0  0  0  0  0  0
   -1.8978   -3.0335   -0.9145 H   0  0  0  0  0  0  0  0  0  0  0  0
   -2.3592   -2.0752   -3.8024 H   0  0  0  0  0  0  0  0  0  0  0  0
   -3.0312   -3.5509   -3.0982 H   0  0  0  0  0  0  0  0  0  0  0  0
   -3.5361   -1.9647   -2.4861 H   0  0  0  0  0  0  0  0  0  0  0  0
   -0.5314   -4.7045   -2.3100 N   0  0  0  0  0  0  0  0  0  0  0  0
    0.4628   -5.6456   -2.7705 C   0  0  0  0  0  0  0  0  0  0  0  0
   -1.3742   -5.0767   -1.8825 H   0  0  0  0  0  0  0  0  0  0  0  0
    0.2570   -5.9144   -3.8172 H   0  0  0  0  0  0  0  0  0  0  0  0
    1.4609   -5.1889   -2.6988 H   0  0  0  0  0  0  0  0  0  0  0  0
    0.4279   -6.5505   -2.1461 H   0  0  0  0  0  0  0  0  0  0  0  0
 23 25  2  0  0  0  0
 22 23  1  0  0  0  0
 24 26  1  0  0  0  0
 22 24  2  0  0  0  0
 25 27  1  0  0  0  0
 26 27  2  0  0  0  0
 21 22  1  0  0  0  0
 27 28  1  0  0  0  0
  1  3  1  0  0  0  0
  1  7  1  0  0  0  0
  1  2  2  0  0  0  0
 39 40  1  0  0  0  0
 40 48  1  0  0  0  0
 40 41  2  0  0  0  0
  8  9  1  0  0  0  0
  9 17  1  0  0  0  0
  9 10  2  0  0  0  0
 18 19  1  0  0  0  0
 19 38  1  0  0  0  0
 19 20  2  0  0  0  0
 39 42  1  0  0  0  0
  8 11  1  0  0  0  0
 48 49  1  0  0  0  0
 18 21  1  0  0  0  0
 38 39  1  0  0  0  0
  7  8  1  0  0  0  0
 17 18  1  0  0  0  0
 23 33  1  0  0  0  0
 24 34  1  0  0  0  0
 25 35  1  0  0  0  0
 26 36  1  0  0  0  0
  3  4  1  0  0  0  0
  3  5  1  0  0  0  0
  3  6  1  0  0  0  0
 42 45  1  0  0  0  0
 42 46  1  0  0  0  0
 42 47  1  0  0  0  0
 11 14  1  0  0  0  0
 11 15  1  0  0  0  0
 11 16  1  0  0  0  0
 49 51  1  0  0  0  0
 49 52  1  0  0  0  0
 49 53  1  0  0  0  0
 21 31  1  0  0  0  0
 21 32  1  0  0  0  0
 39 44  1  0  0  0  0
  8 13  1  0  0  0  0
 18 30  1  0  0  0  0
 48 50  1  0  0  0  0
  7 12  1  0  0  0  0
 38 43  1  0  0  0  0
 17 29  1  0  0  0  0
 28 37  1  0  0  0  0
M  END
$$$$

  -OEChem-05262214473D

 53 53  0     1  0  0  0  0  0999 V2000
   -1.9298    0.2574    3.9747 C   0  0  0  0  0  0  0  0  0  0  0  0
   -0.9825   -0.3573    3.4990 O   0  0  0  0  0  0  0  0  0  0  0  0
   -2.3617   -0.0250    5.3754 C   0  0  0  0  0  0  0  0  0  0  0  0
   -3.1214   -0.8213    5.4288 H   0  0  0  0  0  0  0  0  0  0  0  0
   -1.5305   -0.3726    6.0097 H   0  0  0  0  0  0  0  0  0  0  0  0
   -2.7997    0.8299    5.9150 H   0  0  0  0  0  0  0  0  0  0  0  0
   -2.6795    1.2298    3.3336 N   0  0  0  0  0  0  0  0  0  0  0  0
   -2.4327    1.6559    1.9812 C   0  0  2  0  0  0  0  0  0  0  0  0
   -1.0977    1.0705    1.5400 C   0  0  0  0  0  0  0  0  0  0  0  0
   -0.2256    0.7177    2.3313 O   0  0  0  0  0  0  0  0  0  0  0  0
   -2.4239    3.1726    1.8718 C   0  0  0  0  0  0  0  0  0  0  0  0
   -3.4446    1.6657    3.8454 H   0  0  0  0  0  0  0  0  0  0  0  0
   -3.2368    1.2374    1.3661 H   0  0  0  0  0  0  0  0  0  0  0  0
   -1.6248    3.6099    2.4815 H   0  0  0  0  0  0  0  0  0  0  0  0
   -2.2644    3.4949    0.8375 H   0  0  0  0  0  0  0  0  0  0  0  0
   -3.3741    3.5939    2.2175 H   0  0  0  0  0  0  0  0  0  0  0  0
   -0.9750    1.0274    0.1566 N   0  0  0  0  0  0  0  0  0  0  0  0
    0.2023    0.5266   -0.5070 C   0  0  2  0  0  0  0  0  0  0  0  0
   -0.0038   -0.9683   -0.7239 C   0  0  0  0  0  0  0  0  0  0  0  0
    0.5333   -1.8259   -0.0261 O   0  0  0  0  0  0  0  0  0  0  0  0
    1.4766    0.7762    0.3078 C   0  0  0  0  0  0  0  0  0  0  0  0
    1.8181    2.2418    0.4227 C   0  0  0  0  0  0  0  0  0  0  0  0
    2.4753    2.8890   -0.6237 C   0  0  0  0  0  0  0  0  0  0  0  0
    1.4772    2.9489    1.5756 C   0  0  0  0  0  0  0  0  0  0  0  0
    2.7914    4.2434   -0.5172 C   0  0  0  0  0  0  0  0  0  0  0  0
    1.7933    4.3033    1.6822 C   0  0  0  0  0  0  0  0  0  0  0  0
    2.4505    4.9505    0.6358 C   0  0  0  0  0  0  0  0  0  0  0  0
    2.7602    6.2718    0.7401 O   0  0  0  0  0  0  0  0  0  0  0  0
   -1.7582    1.3241   -0.4207 H   0  0  0  0  0  0  0  0  0  0  0  0
    0.2487    1.0275   -1.4812 H   0  0  0  0  0  0  0  0  0  0  0  0
    2.3231    0.2331   -0.1340 H   0  0  0  0  0  0  0  0  0  0  0  0
    1.3699    0.3676    1.3214 H   0  0  0  0  0  0  0  0  0  0  0  0
    2.7447    2.3459   -1.5256 H   0  0  0  0  0  0  0  0  0  0  0  0
    0.9649    2.4528    2.3960 H   0  0  0  0  0  0  0  0  0  0  0  0
    3.3038    4.7420   -1.3357 H   0  0  0  0  0  0  0  0  0  0  0  0
    1.5254    4.8484    2.5829 H   0  0  0  0  0  0  0  0  0  0  0  0
    2.4602    6.6211    1.5944 H   0  0  0  0  0  0  0  0  0  0  0  0
   -0.8961   -1.2255   -1.7555 N   0  0  0  0  0  0  0  0  0  0  0  0
   -1.2859   -2.5591   -2.1535 C   0  0  2  0  0  0  0  0  0  0  0  0
   -0.0187   -3.3818   -2.3458 C   0  0  0  0  0  0  0  0  0  0  0  0
    1.0799   -2.8786   -2.5716 O   0  0  0  0  0  0  0  0  0  0  0  0
   -2.1172   -2.5357   -3.4267 C   0  0  0  0  0  0  0  0  0  0  0  0
   -1.2953   -0.4368   -2.2558 H   0  0  0  0  0  0  0  0  0  0  0  0
   -1.8716   -2.9772   -1.3276 H   0  0  0  0  0  0  0  0  0  0  0  0
   -1.5469   -2.1200   -4.2654 H   0  0  0  0  0  0  0  0  0  0  0  0
   -2.4357   -3.5440   -3.7112 H   0  0  0  0  0  0  0  0  0  0  0  0
   -3.0131   -1.9193   -3.2960 H   0  0  0  0  0  0  0  0  0  0  0  0
   -0.2667   -4.7456   -2.2784 N   0  0  0  0  0  0  0  0  0  0  0  0
    0.7719   -5.7359   -2.4421 C   0  0  0  0  0  0  0  0  0  0  0  0
   -1.2050   -5.0731   -2.0684 H   0  0  0  0  0  0  0  0  0  0  0  0
    0.8268   -6.0392   -3.4980 H   0  0  0  0  0  0  0  0  0  0  0  0
    1.7373   -5.3091   -2.1326 H   0  0  0  0  0  0  0  0  0  0  0  0
    0.5427   -6.6137   -1.8200 H   0  0  0  0  0  0  0  0  0  0  0  0
 23 25  2  0  0  0  0
 22 23  1  0  0  0  0
 24 26  1  0  0  0  0
 22 24  2  0  0  0  0
 25 27  1  0  0  0  0
 26 27  2  0  0  0  0
 21 22  1  0  0  0  0
 27 28  1  0  0  0  0
  1  3  1  0  0  0  0
  1  7  1  0  0  0  0
  1  2  2  0  0  0  0
 39 40  1  0  0  0  0
 40 48  1  0  0  0  0
 40 41  2  0  0  0  0
  8  9  1  0  0  0  0
  9 17  1  0  0  0  0
  9 10  2  0  0  0  0
 18 19  1  0  0  0  0
 19 38  1  0  0  0  0
 19 20  2  0  0  0  0
 39 42  1  0  0  0  0
  8 11  1  0  0  0  0
 48 49  1  0  0  0  0
 18 21  1  0  0  0  0
 38 39  1  0  0  0  0
  7  8  1  0  0  0  0
 17 18  1  0  0  0  0
 23 33  1  0  0  0  0
 24 34  1  0  0  0  0
 25 35  1  0  0  0  0
 26 36  1  0  0  0  0
  3  4  1  0  0  0  0
  3  5  1  0  0  0  0
  3  6  1  0  0  0  0
 42 45  1  0  0  0  0
 42 46  1  0  0  0  0
 42 47  1  0  0  0  0
 11 14  1  0  0  0  0
 11 15  1  0  0  0  0
 11 16  1  0  0  0  0
 49 51  1  0  0  0  0
 49 52  1  0  0  0  0
 49 53  1  0  0  0  0
 21 31  1  0  0  0  0
 21 32  1  0  0  0  0
 39 44  1  0  0  0  0
  8 13  1  0  0  0  0
 18 30  1  0  0  0  0
 48 50  1  0  0  0  0
  7 12  1  0  0  0  0
 38 43  1  0  0  0  0
 17 29  1  0  0  0  0
 28 37  1  0  0  0  0
M  END
$$$$

  -OEChem-05262214473D

 53 53  0     1  0  0  0  0  0999 V2000
   -1.9298    0.2574    3.9747 C   0  0  0  0  0  0  0  0  0  0  0  0
   -0.9825   -0.3573    3.4990 O   0  0  0  0  0  0  0  0  0  0  0  0
   -2.3617   -0.0250    5.3754 C   0  0  0  0  0  0  0  0  0  0  0  0
   -3.1214   -0.8213    5.4288 H   0  0  0  0  0  0  0  0  0  0  0  0
   -1.5305   -0.3726    6.0097 H   0  0  0  0  0  0  0  0  0  0  0  0
   -2.7997    0.8299    5.9150 H   0  0  0  0  0  0  0  0  0  0  0  0
   -2.6795    1.2298    3.3336 N   0  0  0  0  0  0  0  0  0  0  0  0
   -2.4327    1.6559    1.9812 C   0  0  2  0  0  0  0  0  0  0  0  0
   -1.0977    1.0705    1.5400 C   0  0  0  0  0  0  0  0  0  0  0  0
   -0.2256    0.7177    2.3313 O   0  0  0  0  0  0  0  0  0  0  0  0
   -2.4239    3.1726    1.8718 C   0  0  0  0  0  0  0  0  0  0  0  0
   -3.4446    1.6657    3.8454 H   0  0  0  0  0  0  0  0  0  0  0  0
   -3.2368    1.2374    1.3661 H   0  0  0  0  0  0  0  0  0  0  0  0
   -1.6248    3.6099    2.4815 H   0  0  0  0  0  0  0  0  0  0  0  0
   -2.2644    3.4949    0.8375 H   0  0  0  0  0  0  0  0  0  0  0  0
   -3.3741    3.5939    2.2175 H   0  0  0  0  0  0  0  0  0  0  0  0
   -0.9750    1.0274    0.1566 N   0  0  0  0  0  0  0  0  0  0  0  0
    0.2023    0.5266   -0.5070 C   0  0  2  0  0  0  0  0  0  0  0  0
   -0.0038   -0.9683   -0.7239 C   0  0  0  0  0  0  0  0  0  0  0  0
    0.3032   -1.8144    0.1132 O   0  0  0  0  0  0  0  0  0  0  0  0
    1.4766    0.7762    0.3078 C   0  0  0  0  0  0  0  0  0  0  0  0
    1.8181    2.2418    0.4227 C   0  0  0  0  0  0  0  0  0  0  0  0
    2.4753    2.8890   -0.6237 C   0  0  0  0  0  0  0  0  0  0  0  0
    1.4772    2.9489    1.5756 C   0  0  0  0  0  0  0  0  0  0  0  0
    2.7914    4.2434   -0.5172 C   0  0  0  0  0  0  0  0  0  0  0  0
    1.7933    4.3033    1.6822 C   0  0  0  0  0  0  0  0  0  0  0  0
    2.4505    4.9505    0.6358 C   0  0  0  0  0  0  0  0  0  0  0  0
    2.7602    6.2718    0.7401 O   0  0  0  0  0  0  0  0  0  0  0  0
   -1.7582    1.3241   -0.4207 H   0  0  0  0  0  0  0  0  0  0  0  0
    0.2487    1.0275   -1.4812 H   0  0  0  0  0  0  0  0  0  0  0  0
    2.3231    0.2331   -0.1340 H   0  0  0  0  0  0  0  0  0  0  0  0
    1.3699    0.3676    1.3214 H   0  0  0  0  0  0  0  0  0  0  0  0
    2.7447    2.3459   -1.5256 H   0  0  0  0  0  0  0  0  0  0  0  0
    0.9649    2.4528    2.3960 H   0  0  0  0  0  0  0  0  0  0  0  0
    3.3038    4.7420   -1.3357 H   0  0  0  0  0  0  0  0  0  0  0  0
    1.5254    4.8484    2.5829 H   0  0  0  0  0  0  0  0  0  0  0  0
    2.4602    6.6211    1.5944 H   0  0  0  0  0  0  0  0  0  0  0  0
   -0.6158   -1.2373   -1.9403 N   0  0  0  0  0  0  0  0  0  0  0  0
   -0.9469   -2.5724   -2.3839 C   0  0  2  0  0  0  0  0  0  0  0  0
    0.2926   -3.4425   -2.2225 C   0  0  0  0  0  0  0  0  0  0  0  0
    1.4324   -2.9845   -2.1764 O   0  0  0  0  0  0  0  0  0  0  0  0
   -1.4271   -2.5728   -3.8269 C   0  0  0  0  0  0  0  0  0  0  0  0
   -0.8423   -0.4566   -2.5493 H   0  0  0  0  0  0  0  0  0  0  0  0
   -1.7394   -2.9382   -1.7220 H   0  0  0  0  0  0  0  0  0  0  0  0
   -0.6464   -2.2093   -4.5050 H   0  0  0  0  0  0  0  0  0  0  0  0
   -1.7046   -3.5808   -4.1524 H   0  0  0  0  0  0  0  0  0  0  0  0
   -2.3007   -1.9230   -3.9471 H   0  0  0  0  0  0  0  0  0  0  0  0
   -0.0205   -4.7939   -2.1792 N   0  0  0  0  0  0  0  0  0  0  0  0
    0.9838   -5.8230   -2.0433 C   0  0  0  0  0  0  0  0  0  0  0  0
   -0.9941   -5.0823   -2.2050 H   0  0  0  0  0  0  0  0  0  0  0  0
    1.2917   -6.1696   -3.0408 H   0  0  0  0  0  0  0  0  0  0  0  0
    1.8562   -5.4157   -1.5113 H   0  0  0  0  0  0  0  0  0  0  0  0
    0.5685   -6.6675   -1.4738 H   0  0  0  0  0  0  0  0  0  0  0  0
 23 25  2  0  0  0  0
 22 23  1  0  0  0  0
 24 26  1  0  0  0  0
 22 24  2  0  0  0  0
 25 27  1  0  0  0  0
 26 27  2  0  0  0  0
 21 22  1  0  0  0  0
 27 28  1  0  0  0  0
  1  3  1  0  0  0  0
  1  7  1  0  0  0  0
  1  2  2  0  0  0  0
 39 40  1  0  0  0  0
 40 48  1  0  0  0  0
 40 41  2  0  0  0  0
  8  9  1  0  0  0  0
  9 17  1  0  0  0  0
  9 10  2  0  0  0  0
 18 19  1  0  0  0  0
 19 38  1  0  0  0  0
 19 20  2  0  0  0  0
 39 42  1  0  0  0  0
  8 11  1  0  0  0  0
 48 49  1  0  0  0  0
 18 21  1  0  0  0  0
 38 39  1  0  0  0  0
  7  8  1  0  0  0  0
 17 18  1  0  0  0  0
 23 33  1  0  0  0  0
 24 34  1  0  0  0  0
 25 35  1  0  0  0  0
 26 36  1  0  0  0  0
  3  4  1  0  0  0  0
  3  5  1  0  0  0  0
  3  6  1  0  0  0  0
 42 45  1  0  0  0  0
 42 46  1  0  0  0  0
 42 47  1  0  0  0  0
 11 14  1  0  0  0  0
 11 15  1  0  0  0  0
 11 16  1  0  0  0  0
 49 51  1  0  0  0  0
 49 52  1  0  0  0  0
 49 53  1  0  0  0  0
 21 31  1  0  0  0  0
 21 32  1  0  0  0  0
 39 44  1  0  0  0  0
  8 13  1  0  0  0  0
 18 30  1  0  0  0  0
 48 50  1  0  0  0  0
  7 12  1  0  0  0  0
 38 43  1  0  0  0  0
 17 29  1  0  0  0  0
 28 37  1  0  0  0  0
M  END
$$$$

  -OEChem-05262214473D

 53 53  0     1  0  0  0  0  0999 V2000
   -1.9298    0.2574    3.9747 C   0  0  0  0  0  0  0  0  0  0  0  0
   -0.9825   -0.3573    3.4990 O   0  0  0  0  0  0  0  0  0  0  0  0
   -2.3617   -0.0250    5.3754 C   0  0  0  0  0  0  0  0  0  0  0  0
   -3.1214   -0.8213    5.4288 H   0  0  0  0  0  0  0  0  0  0  0  0
   -1.5305   -0.3726    6.0097 H   0  0  0  0  0  0  0  0  0  0  0  0
   -2.7997    0.8299    5.9150 H   0  0  0  0  0  0  0  0  0  0  0  0
   -2.6795    1.2298    3.3336 N   0  0  0  0  0  0  0  0  0  0  0  0
   -2.4327    1.6559    1.9812 C   0  0  2  0  0  0  0  0  0  0  0  0
   -1.0977    1.0705    1.5400 C   0  0  0  0  0  0  0  0  0  0  0  0
   -0.2256    0.7177    2.3313 O   0  0  0  0  0  0  0  0  0  0  0  0
   -2.4239    3.1726    1.8718 C   0  0  0  0  0  0  0  0  0  0  0  0
   -3.4446    1.6657    3.8454 H   0  0  0  0  0  0  0  0  0  0  0  0
   -3.2368    1.2374    1.3661 H   0  0  0  0  0  0  0  0  0  0  0  0
   -1.6248    3.6099    2.4815 H   0  0  0  0  0  0  0  0  0  0  0  0
   -2.2644    3.4949    0.8375 H   0  0  0  0  0  0  0  0  0  0  0  0
   -3.3741    3.5939    2.2175 H   0  0  0  0  0  0  0  0  0  0  0  0
   -0.9750    1.0274    0.1566 N   0  0  0  0  0  0  0  0  0  0  0  0
    0.2023    0.5266   -0.5070 C   0  0  2  0  0  0  0  0  0  0  0  0
   -0.0038   -0.9683   -0.7239 C   0  0  0  0  0  0  0  0  0  0  0  0
    0.0461   -1.7900    0.1889 O   0  0  0  0  0  0  0  0  0  0  0  0
    1.4766    0.7762    0.3078 C   0  0  0  0  0  0  0  0  0  0  0  0
    1.8181    2.2418    0.4227 C   0  0  0  0  0  0  0  0  0  0  0  0
    2.4753    2.8890   -0.6237 C   0  0  0  0  0  0  0  0  0  0  0  0
    1.4772    2.9489    1.5756 C   0  0  0  0  0  0  0  0  0  0  0  0
    2.7914    4.2434   -0.5172 C   0  0  0  0  0  0  0  0  0  0  0  0
    1.7933    4.3033    1.6822 C   0  0  0  0  0  0  0  0  0  0  0  0
    2.4505    4.9505    0.6358 C   0  0  0  0  0  0  0  0  0  0  0  0
    2.7602    6.2718    0.7401 O   0  0  0  0  0  0  0  0  0  0  0  0
   -1.7582    1.3241   -0.4207 H   0  0  0  0  0  0  0  0  0  0  0  0
    0.2487    1.0275   -1.4812 H   0  0  0  0  0  0  0  0  0  0  0  0
    2.3231    0.2331   -0.1340 H   0  0  0  0  0  0  0  0  0  0  0  0
    1.3699    0.3676    1.3214 H   0  0  0  0  0  0  0  0  0  0  0  0
    2.7447    2.3459   -1.5256 H   0  0  0  0  0  0  0  0  0  0  0  0
    0.9649    2.4528    2.3960 H   0  0  0  0  0  0  0  0  0  0  0  0
    3.3038    4.7420   -1.3357 H   0  0  0  0  0  0  0  0  0  0  0  0
    1.5254    4.8484    2.5829 H   0  0  0  0  0  0  0  0  0  0  0  0
    2.4602    6.6211    1.5944 H   0  0  0  0  0  0  0  0  0  0  0  0
   -0.2985   -1.2655   -2.0473 N   0  0  0  0  0  0  0  0  0  0  0  0
   -0.5614   -2.6058   -2.5200 C   0  0  2  0  0  0  0  0  0  0  0  0
    0.5597   -3.5084   -2.0222 C   0  0  0  0  0  0  0  0  0  0  0  0
    1.6687   -3.0860   -1.7016 O   0  0  0  0  0  0  0  0  0  0  0  0
   -0.6604   -2.6480   -4.0369 C   0  0  0  0  0  0  0  0  0  0  0  0
   -0.3310   -0.5028   -2.7172 H   0  0  0  0  0  0  0  0  0  0  0  0
   -1.5101   -2.9192   -2.0707 H   0  0  0  0  0  0  0  0  0  0  0  0
    0.2809   -2.3372   -4.5048 H   0  0  0  0  0  0  0  0  0  0  0  0
   -0.8879   -3.6586   -4.3917 H   0  0  0  0  0  0  0  0  0  0  0  0
   -1.4474   -1.9756   -4.3950 H   0  0  0  0  0  0  0  0  0  0  0  0
    0.1903   -4.8462   -2.0193 N   0  0  0  0  0  0  0  0  0  0  0  0
    1.0840   -5.9009   -1.6012 C   0  0  0  0  0  0  0  0  0  0  0  0
   -0.7561   -5.1038   -2.2832 H   0  0  0  0  0  0  0  0  0  0  0  0
    1.6198   -6.2967   -2.4766 H   0  0  0  0  0  0  0  0  0  0  0  0
    1.8095   -5.5012   -0.8774 H   0  0  0  0  0  0  0  0  0  0  0  0
    0.5036   -6.7083   -1.1309 H   0  0  0  0  0  0  0  0  0  0  0  0
 23 25  2  0  0  0  0
 22 23  1  0  0  0  0
 24 26  1  0  0  0  0
 22 24  2  0  0  0  0
 25 27  1  0  0  0  0
 26 27  2  0  0  0  0
 21 22  1  0  0  0  0
 27 28  1  0  0  0  0
  1  3  1  0  0  0  0
  1  7  1  0  0  0  0
  1  2  2  0  0  0  0
 39 40  1  0  0  0  0
 40 48  1  0  0  0  0
 40 41  2  0  0  0  0
  8  9  1  0  0  0  0
  9 17  1  0  0  0  0
  9 10  2  0  0  0  0
 18 19  1  0  0  0  0
 19 38  1  0  0  0  0
 19 20  2  0  0  0  0
 39 42  1  0  0  0  0
  8 11  1  0  0  0  0
 48 49  1  0  0  0  0
 18 21  1  0  0  0  0
 38 39  1  0  0  0  0
  7  8  1  0  0  0  0
 17 18  1  0  0  0  0
 23 33  1  0  0  0  0
 24 34  1  0  0  0  0
 25 35  1  0  0  0  0
 26 36  1  0  0  0  0
  3  4  1  0  0  0  0
  3  5  1  0  0  0  0
  3  6  1  0  0  0  0
 42 45  1  0  0  0  0
 42 46  1  0  0  0  0
 42 47  1  0  0  0  0
 11 14  1  0  0  0  0
 11 15  1  0  0  0  0
 11 16  1  0  0  0  0
 49 51  1  0  0  0  0
 49 52  1  0  0  0  0
 49 53  1  0  0  0  0
 21 31  1  0  0  0  0
 21 32  1  0  0  0  0
 39 44  1  0  0  0  0
  8 13  1  0  0  0  0
 18 30  1  0  0  0  0
 48 50  1  0  0  0  0
  7 12  1  0  0  0  0
 38 43  1  0  0  0  0
 17 29  1  0  0  0  0
 28 37  1  0  0  0  0
M  END
$$$$

  -OEChem-05262214473D

 53 53  0     1  0  0  0  0  0999 V2000
   -1.9298    0.2574    3.9747 C   0  0  0  0  0  0  0  0  0  0  0  0
   -0.9825   -0.3573    3.4990 O   0  0  0  0  0  0  0  0  0  0  0  0
   -2.3617   -0.0250    5.3754 C   0  0  0  0  0  0  0  0  0  0  0  0
   -3.1214   -0.8213    5.4288 H   0  0  0  0  0  0  0  0  0  0  0  0
   -1.5305   -0.3726    6.0097 H   0  0  0  0  0  0  0  0  0  0  0  0
   -2.7997    0.8299    5.9150 H   0  0  0  0  0  0  0  0  0  0  0  0
   -2.6795    1.2298    3.3336 N   0  0  0  0  0  0  0  0  0  0  0  0
   -2.4327    1.6559    1.9812 C   0  0  2  0  0  0  0  0  0  0  0  0
   -1.0977    1.0705    1.5400 C   0  0  0  0  0  0  0  0  0  0  0  0
   -0.2256    0.7177    2.3313 O   0  0  0  0  0  0  0  0  0  0  0  0
   -2.4239    3.1726    1.8718 C   0  0  0  0  0  0  0  0  0  0  0  0
   -3.4446    1.6657    3.8454 H   0  0  0  0  0  0  0  0  0  0  0  0
   -3.2368    1.2374    1.3661 H   0  0  0  0  0  0  0  0  0  0  0  0
   -1.6248    3.6099    2.4815 H   0  0  0  0  0  0  0  0  0  0  0  0
   -2.2644    3.4949    0.8375 H   0  0  0  0  0  0  0  0  0  0  0  0
   -3.3741    3.5939    2.2175 H   0  0  0  0  0  0  0  0  0  0  0  0
   -0.9750    1.0274    0.1566 N   0  0  0  0  0  0  0  0  0  0  0  0
    0.2023    0.5266   -0.5070 C   0  0  2  0  0  0  0  0  0  0  0  0
   -0.0038   -0.9683   -0.7239 C   0  0  0  0  0  0  0  0  0  0  0  0
   -0.2206   -1.7542    0.1959 O   0  0  0  0  0  0  0  0  0  0  0  0
    1.4766    0.7762    0.3078 C   0  0  0  0  0  0  0  0  0  0  0  0
    1.8181    2.2418    0.4227 C   0  0  0  0  0  0  0  0  0  0  0  0
    2.4753    2.8890   -0.6237 C   0  0  0  0  0  0  0  0  0  0  0  0
    1.4772    2.9489    1.5756 C   0  0  0  0  0  0  0  0  0  0  0  0
    2.7914    4.2434   -0.5172 C   0  0  0  0  0  0  0  0  0  0  0  0
    1.7933    4.3033    1.6822 C   0  0  0  0  0  0  0  0  0  0  0  0
    2.4505    4.9505    0.6358 C   0  0  0  0  0  0  0  0  0  0  0  0
    2.7602    6.2718    0.7401 O   0  0  0  0  0  0  0  0  0  0  0  0
   -1.7582    1.3241   -0.4207 H   0  0  0  0  0  0  0  0  0  0  0  0
    0.2487    1.0275   -1.4812 H   0  0  0  0  0  0  0  0  0  0  0  0
    2.3231    0.2331   -0.1340 H   0  0  0  0  0  0  0  0  0  0  0  0
    1.3699    0.3676    1.3214 H   0  0  0  0  0  0  0  0  0  0  0  0
    2.7447    2.3459   -1.5256 H   0  0  0  0  0  0  0  0  0  0  0  0
    0.9649    2.4528    2.3960 H   0  0  0  0  0  0  0  0  0  0  0  0
    3.3038    4.7420   -1.3357 H   0  0  0  0  0  0  0  0  0  0  0  0
    1.5254    4.8484    2.5829 H   0  0  0  0  0  0  0  0  0  0  0  0
    2.4602    6.6211    1.5944 H   0  0  0  0  0  0  0  0  0  0  0  0
    0.0340   -1.3082   -2.0691 N   0  0  0  0  0  0  0  0  0  0  0  0
   -0.1558   -2.6570   -2.5524 C   0  0  2  0  0  0  0  0  0  0  0  0
    0.7645   -3.5749   -1.7587 C   0  0  0  0  0  0  0  0  0  0  0  0
    1.7727   -3.1761   -1.1794 O   0  0  0  0  0  0  0  0  0  0  0  0
    0.1308   -2.7562   -4.0426 C   0  0  0  0  0  0  0  0  0  0  0  0
    0.2037   -0.5720   -2.7480 H   0  0  0  0  0  0  0  0  0  0  0  0
   -1.1994   -2.9215   -2.3501 H   0  0  0  0  0  0  0  0  0  0  0  0
    1.1718   -2.4948   -4.2648 H   0  0  0  0  0  0  0  0  0  0  0  0
   -0.0411   -3.7723   -4.4129 H   0  0  0  0  0  0  0  0  0  0  0  0
   -0.5115   -2.0735   -4.6093 H   0  0  0  0  0  0  0  0  0  0  0  0
    0.3514   -4.8988   -1.8094 N   0  0  0  0  0  0  0  0  0  0  0  0
    1.0658   -5.9644   -1.1460 C   0  0  0  0  0  0  0  0  0  0  0  0
   -0.5072   -5.1360   -2.2976 H   0  0  0  0  0  0  0  0  0  0  0  0
    1.7889   -6.4118   -1.8439 H   0  0  0  0  0  0  0  0  0  0  0  0
    1.6003   -5.5599   -0.2739 H   0  0  0  0  0  0  0  0  0  0  0  0
    0.3523   -6.7333   -0.8147 H   0  0  0  0  0  0  0  0  0  0  0  0
 23 25  2  0  0  0  0
 22 23  1  0  0  0  0
 24 26  1  0  0  0  0
 22 24  2  0  0  0  0
 25 27  1  0  0  0  0
 26 27  2  0  0  0  0
 21 22  1  0  0  0  0
 27 28  1  0  0  0  0
  1  3  1  0  0  0  0
  1  7  1  0  0  0  0
  1  2  2  0  0  0  0
 39 40  1  0  0  0  0
 40 48  1  0  0  0  0
 40 41  2  0  0  0  0
  8  9  1  0  0  0  0
  9 17  1  0  0  0  0
  9 10  2  0  0  0  0
 18 19  1  0  0  0  0
 19 38  1  0  0  0  0
 19 20  2  0  0  0  0
 39 42  1  0  0  0  0
  8 11  1  0  0  0  0
 48 49  1  0  0  0  0
 18 21  1  0  0  0  0
 38 39  1  0  0  0  0
  7  8  1  0  0  0  0
 17 18  1  0  0  0  0
 23 33  1  0  0  0  0
 24 34  1  0  0  0  0
 25 35  1  0  0  0  0
 26 36  1  0  0  0  0
  3  4  1  0  0  0  0
  3  5  1  0  0  0  0
  3  6  1  0  0  0  0
 42 45  1  0  0  0  0
 42 46  1  0  0  0  0
 42 47  1  0  0  0  0
 11 14  1  0  0  0  0
 11 15  1  0  0  0  0
 11 16  1  0  0  0  0
 49 51  1  0  0  0  0
 49 52  1  0  0  0  0
 49 53  1  0  0  0  0
 21 31  1  0  0  0  0
 21 32  1  0  0  0  0
 39 44  1  0  0  0  0
  8 13  1  0  0  0  0
 18 30  1  0  0  0  0
 48 50  1  0  0  0  0
  7 12  1  0  0  0  0
 38 43  1  0  0  0  0
 17 29  1  0  0  0  0
 28 37  1  0  0  0  0
M  END
$$$$

  -OEChem-05262214473D

 53 53  0     1  0  0  0  0  0999 V2000
   -1.9298    0.2574    3.9747 C   0  0  0  0  0  0  0  0  0  0  0  0
   -0.9825   -0.3573    3.4990 O   0  0  0  0  0  0  0  0  0  0  0  0
   -2.3617   -0.0250    5.3754 C   0  0  0  0  0  0  0  0  0  0  0  0
   -3.1214   -0.8213    5.4288 H   0  0  0  0  0  0  0  0  0  0  0  0
   -1.5305   -0.3726    6.0097 H   0  0  0  0  0  0  0  0  0  0  0  0
   -2.7997    0.8299    5.9150 H   0  0  0  0  0  0  0  0  0  0  0  0
   -2.6795    1.2298    3.3336 N   0  0  0  0  0  0  0  0  0  0  0  0
   -2.4327    1.6559    1.9812 C   0  0  2  0  0  0  0  0  0  0  0  0
   -1.0977    1.0705    1.5400 C   0  0  0  0  0  0  0  0  0  0  0  0
   -0.2256    0.7177    2.3313 O   0  0  0  0  0  0  0  0  0  0  0  0
   -2.4239    3.1726    1.8718 C   0  0  0  0  0  0  0  0  0  0  0  0
   -3.4446    1.6657    3.8454 H   0  0  0  0  0  0  0  0  0  0  0  0
   -3.2368    1.2374    1.3661 H   0  0  0  0  0  0  0  0  0  0  0  0
   -1.6248    3.6099    2.4815 H   0  0  0  0  0  0  0  0  0  0  0  0
   -2.2644    3.4949    0.8375 H   0  0  0  0  0  0  0  0  0  0  0  0
   -3.3741    3.5939    2.2175 H   0  0  0  0  0  0  0  0  0  0  0  0
   -0.9750    1.0274    0.1566 N   0  0  0  0  0  0  0  0  0  0  0  0
    0.2023    0.5266   -0.5070 C   0  0  2  0  0  0  0  0  0  0  0  0
   -0.0038   -0.9683   -0.7239 C   0  0  0  0  0  0  0  0  0  0  0  0
   -0.4787   -1.7097    0.1338 O   0  0  0  0  0  0  0  0  0  0  0  0
    1.4766    0.7762    0.3078 C   0  0  0  0  0  0  0  0  0  0  0  0
    1.8181    2.2418    0.4227 C   0  0  0  0  0  0  0  0  0  0  0  0
    2.4753    2.8890   -0.6237 C   0  0  0  0  0  0  0  0  0  0  0  0
    1.4772    2.9489    1.5756 C   0  0  0  0  0  0  0  0  0  0  0  0
    2.7914    4.2434   -0.5172 C   0  0  0  0  0  0  0  0  0  0  0  0
    1.7933    4.3033    1.6822 C   0  0  0  0  0  0  0  0  0  0  0  0
    2.4505    4.9505    0.6358 C   0  0  0  0  0  0  0  0  0  0  0  0
    2.7602    6.2718    0.7401 O   0  0  0  0  0  0  0  0  0  0  0  0
   -1.7582    1.3241   -0.4207 H   0  0  0  0  0  0  0  0  0  0  0  0
    0.2487    1.0275   -1.4812 H   0  0  0  0  0  0  0  0  0  0  0  0
    2.3231    0.2331   -0.1340 H   0  0  0  0  0  0  0  0  0  0  0  0
    1.3699    0.3676    1.3214 H   0  0  0  0  0  0  0  0  0  0  0  0
    2.7447    2.3459   -1.5256 H   0  0  0  0  0  0  0  0  0  0  0  0
    0.9649    2.4528    2.3960 H   0  0  0  0  0  0  0  0  0  0  0  0
    3.3038    4.7420   -1.3357 H   0  0  0  0  0  0  0  0  0  0  0  0
    1.5254    4.8484    2.5829 H   0  0  0  0  0  0  0  0  0  0  0  0
    2.4602    6.6211    1.5944 H   0  0  0  0  0  0  0  0  0  0  0  0
    0.3592   -1.3624   -2.0043 N   0  0  0  0  0  0  0  0  0  0  0  0
    0.2423   -2.7225   -2.4790 C   0  0  2  0  0  0  0  0  0  0  0  0
    0.8930   -3.6374   -1.4499 C   0  0  0  0  0  0  0  0  0  0  0  0
    1.7373   -3.2487   -0.6454 O   0  0  0  0  0  0  0  0  0  0  0  0
    0.8925   -2.8901   -3.8435 C   0  0  0  0  0  0  0  0  0  0  0  0
    0.7255   -0.6596   -2.6396 H   0  0  0  0  0  0  0  0  0  0  0  0
   -0.8285   -2.9449   -2.5409 H   0  0  0  0  0  0  0  0  0  0  0  0
    1.9657   -2.6715   -3.8013 H   0  0  0  0  0  0  0  0  0  0  0  0
    0.7781   -3.9140   -4.2145 H   0  0  0  0  0  0  0  0  0  0  0  0
    0.4433   -2.2101   -4.5754 H   0  0  0  0  0  0  0  0  0  0  0  0
    0.4518   -4.9483   -1.5640 N   0  0  0  0  0  0  0  0  0  0  0  0
    0.9304   -6.0092   -0.7088 C   0  0  0  0  0  0  0  0  0  0  0  0
   -0.2643   -5.1768   -2.2472 H   0  0  0  0  0  0  0  0  0  0  0  0
    1.7874   -6.5071   -1.1859 H   0  0  0  0  0  0  0  0  0  0  0  0
    1.2429   -5.5878    0.2580 H   0  0  0  0  0  0  0  0  0  0  0  0
    0.1251   -6.7409   -0.5468 H   0  0  0  0  0  0  0  0  0  0  0  0
 23 25  2  0  0  0  0
 22 23  1  0  0  0  0
 24 26  1  0  0  0  0
 22 24  2  0  0  0  0
 25 27  1  0  0  0  0
 26 27  2  0  0  0  0
 21 22  1  0  0  0  0
 27 28  1  0  0  0  0
  1  3  1  0  0  0  0
  1  7  1  0  0  0  0
  1  2  2  0  0  0  0
 39 40  1  0  0  0  0
 40 48  1  0  0  0  0
 40 41  2  0  0  0  0
  8  9  1  0  0  0  0
  9 17  1  0  0  0  0
  9 10  2  0  0  0  0
 18 19  1  0  0  0  0
 19 38  1  0  0  0  0
 19 20  2  0  0  0  0
 39 42  1  0  0  0  0
  8 11  1  0  0  0  0
 48 49  1  0  0  0  0
 18 21  1  0  0  0  0
 38 39  1  0  0  0  0
  7  8  1  0  0  0  0
 17 18  1  0  0  0  0
 23 33  1  0  0  0  0
 24 34  1  0  0  0  0
 25 35  1  0  0  0  0
 26 36  1  0  0  0  0
  3  4  1  0  0  0  0
  3  5  1  0  0  0  0
  3  6  1  0  0  0  0
 42 45  1  0  0  0  0
 42 46  1  0  0  0  0
 42 47  1  0  0  0  0
 11 14  1  0  0  0  0
 11 15  1  0  0  0  0
 11 16  1  0  0  0  0
 49 51  1  0  0  0  0
 49 52  1  0  0  0  0
 49 53  1  0  0  0  0
 21 31  1  0  0  0  0
 21 32  1  0  0  0  0
 39 44  1  0  0  0  0
  8 13  1  0  0  0  0
 18 30  1  0  0  0  0
 48 50  1  0  0  0  0
  7 12  1  0  0  0  0
 38 43  1  0  0  0  0
 17 29  1  0  0  0  0
 28 37  1  0  0  0  0
M  END
$$$$

  -OEChem-05262214473D

 53 53  0     1  0  0  0  0  0999 V2000
   -1.9298    0.2574    3.9747 C   0  0  0  0  0  0  0  0  0  0  0  0
   -0.9825   -0.3573    3.4990 O   0  0  0  0  0  0  0  0  0  0  0  0
   -2.3617   -0.0250    5.3754 C   0  0  0  0  0  0  0  0  0  0  0  0
   -3.1214   -0.8213    5.4288 H   0  0  0  0  0  0  0  0  0  0  0  0
   -1.5305   -0.3726    6.0097 H   0  0  0  0  0  0  0  0  0  0  0  0
   -2.7997    0.8299    5.9150 H   0  0  0  0  0  0  0  0  0  0  0  0
   -2.6795    1.2298    3.3336 N   0  0  0  0  0  0  0  0  0  0  0  0
   -2.4327    1.6559    1.9812 C   0  0  2  0  0  0  0  0  0  0  0  0
   -1.0977    1.0705    1.5400 C   0  0  0  0  0  0  0  0  0  0  0  0
   -0.2256    0.7177    2.3313 O   0  0  0  0  0  0  0  0  0  0  0  0
   -2.4239    3.1726    1.8718 C   0  0  0  0  0  0  0  0  0  0  0  0
   -3.4446    1.6657    3.8454 H   0  0  0  0  0  0  0  0  0  0  0  0
   -3.2368    1.2374    1.3661 H   0  0  0  0  0  0  0  0  0  0  0  0
   -1.6248    3.6099    2.4815 H   0  0  0  0  0  0  0  0  0  0  0  0
   -2.2644    3.4949    0.8375 H   0  0  0  0  0  0  0  0  0  0  0  0
   -3.3741    3.5939    2.2175 H   0  0  0  0  0  0  0  0  0  0  0  0
   -0.9750    1.0274    0.1566 N   0  0  0  0  0  0  0  0  0  0  0  0
    0.2023    0.5266   -0.5070 C   0  0  2  0  0  0  0  0  0  0  0  0
   -0.0038   -0.9683   -0.7239 C   0  0  0  0  0  0  0  0  0  0  0  0
   -0.7106   -1.6593    0.0068 O   0  0  0  0  0  0  0  0  0  0  0  0
    1.4766    0.7762    0.3078 C   0  0  0  0  0  0  0  0  0  0  0  0
    1.8181    2.2418    0.4227 C   0  0  0  0  0  0  0  0  0  0  0  0
    2.4753    2.8890   -0.6237 C   0  0  0  0  0  0  0  0  0  0  0  0
    1.4772    2.9489    1.5756 C   0  0  0  0  0  0  0  0  0  0  0  0
    2.7914    4.2434   -0.5172 C   0  0  0  0  0  0  0  0  0  0  0  0
    1.7933    4.3033    1.6822 C   0  0  0  0  0  0  0  0  0  0  0  0
    2.4505    4.9505    0.6358 C   0  0  0  0  0  0  0  0  0  0  0  0
    2.7602    6.2718    0.7401 O   0  0  0  0  0  0  0  0  0  0  0  0
   -1.7582    1.3241   -0.4207 H   0  0  0  0  0  0  0  0  0  0  0  0
    0.2487    1.0275   -1.4812 H   0  0  0  0  0  0  0  0  0  0  0  0
    2.3231    0.2331   -0.1340 H   0  0  0  0  0  0  0  0  0  0  0  0
    1.3699    0.3676    1.3214 H   0  0  0  0  0  0  0  0  0  0  0  0
    2.7447    2.3459   -1.5256 H   0  0  0  0  0  0  0  0  0  0  0  0
    0.9649    2.4528    2.3960 H   0  0  0  0  0  0  0  0  0  0  0  0
    3.3038    4.7420   -1.3357 H   0  0  0  0  0  0  0  0  0  0  0  0
    1.5254    4.8484    2.5829 H   0  0  0  0  0  0  0  0  0  0  0  0
    2.4602    6.6211    1.5944 H   0  0  0  0  0  0  0  0  0  0  0  0
    0.6549   -1.4245   -1.8573 N   0  0  0  0  0  0  0  0  0  0  0  0
    0.6058   -2.7979   -2.3048 C   0  0  2  0  0  0  0  0  0  0  0  0
    0.9365   -3.6917   -1.1168 C   0  0  0  0  0  0  0  0  0  0  0  0
    1.5649   -3.2988   -0.1361 O   0  0  0  0  0  0  0  0  0  0  0  0
    1.5727   -3.0405   -3.4533 C   0  0  0  0  0  0  0  0  0  0  0  0
    1.1988   -0.7597   -2.3994 H   0  0  0  0  0  0  0  0  0  0  0  0
   -0.4227   -2.9878   -2.6304 H   0  0  0  0  0  0  0  0  0  0  0  0
    2.6084   -2.8551   -3.1460 H   0  0  0  0  0  0  0  0  0  0  0  0
    1.5137   -4.0741   -3.8100 H   0  0  0  0  0  0  0  0  0  0  0  0
    1.3520   -2.3759   -4.2955 H   0  0  0  0  0  0  0  0  0  0  0  0
    0.4847   -4.9912   -1.2997 N   0  0  0  0  0  0  0  0  0  0  0  0
    0.6869   -6.0322   -0.3192 C   0  0  0  0  0  0  0  0  0  0  0  0
   -0.0440   -5.2234   -2.1354 H   0  0  0  0  0  0  0  0  0  0  0  0
    1.6155   -6.5760   -0.5473 H   0  0  0  0  0  0  0  0  0  0  0  0
    0.7617   -5.5830    0.6821 H   0  0  0  0  0  0  0  0  0  0  0  0
   -0.1627   -6.7304   -0.3454 H   0  0  0  0  0  0  0  0  0  0  0  0
 23 25  2  0  0  0  0
 22 23  1  0  0  0  0
 24 26  1  0  0  0  0
 22 24  2  0  0  0  0
 25 27  1  0  0  0  0
 26 27  2  0  0  0  0
 21 22  1  0  0  0  0
 27 28  1  0  0  0  0
  1  3  1  0  0  0  0
  1  7  1  0  0  0  0
  1  2  2  0  0  0  0
 39 40  1  0  0  0  0
 40 48  1  0  0  0  0
 40 41  2  0  0  0  0
  8  9  1  0  0  0  0
  9 17  1  0  0  0  0
  9 10  2  0  0  0  0
 18 19  1  0  0  0  0
 19 38  1  0  0  0  0
 19 20  2  0  0  0  0
 39 42  1  0  0  0  0
  8 11  1  0  0  0  0
 48 49  1  0  0  0  0
 18 21  1  0  0  0  0
 38 39  1  0  0  0  0
  7  8  1  0  0  0  0
 17 18  1  0  0  0  0
 23 33  1  0  0  0  0
 24 34  1  0  0  0  0
 25 35  1  0  0  0  0
 26 36  1  0  0  0  0
  3  4  1  0  0  0  0
  3  5  1  0  0  0  0
  3  6  1  0  0  0  0
 42 45  1  0  0  0  0
 42 46  1  0  0  0  0
 42 47  1  0  0  0  0
 11 14  1  0  0  0  0
 11 15  1  0  0  0  0
 11 16  1  0  0  0  0
 49 51  1  0  0  0  0
 49 52  1  0  0  0  0
 49 53  1  0  0  0  0
 21 31  1  0  0  0  0
 21 32  1  0  0  0  0
 39 44  1  0  0  0  0
  8 13  1  0  0  0  0
 18 30  1  0  0  0  0
 48 50  1  0  0  0  0
  7 12  1  0  0  0  0
 38 43  1  0  0  0  0
 17 29  1  0  0  0  0
 28 37  1  0  0  0  0
M  END
$$$$

  -OEChem-05262214473D

 53 53  0     1  0  0  0  0  0999 V2000
   -1.9298    0.2574    3.9747 C   0  0  0  0  0  0  0  0  0  0  0  0
   -0.9825   -0.3573    3.4990 O   0  0  0  0  0  0  0  0  0  0  0  0
   -2.3617   -0.0250    5.3754 C   0  0  0  0  0  0  0  0  0  0  0  0
   -3.1214   -0.8213    5.4288 H   0  0  0  0  0  0  0  0  0  0  0  0
   -1.5305   -0.3726    6.0097 H   0  0  0  0  0  0  0  0  0  0  0  0
   -2.7997    0.8299    5.9150 H   0  0  0  0  0  0  0  0  0  0  0  0
   -2.6795    1.2298    3.3336 N   0  0  0  0  0  0  0  0  0  0  0  0
   -2.4327    1.6559    1.9812 C   0  0  2  0  0  0  0  0  0  0  0  0
   -1.0977    1.0705    1.5400 C   0  0  0  0  0  0  0  0  0  0  0  0
   -0.2256    0.7177    2.3313 O   0  0  0  0  0  0  0  0  0  0  0  0
   -2.4239    3.1726    1.8718 C   0  0  0  0  0  0  0  0  0  0  0  0
   -3.4446    1.6657    3.8454 H   0  0  0  0  0  0  0  0  0  0  0  0
   -3.2368    1.2374    1.3661 H   0  0  0  0  0  0  0  0  0  0  0  0
   -1.6248    3.6099    2.4815 H   0  0  0  0  0  0  0  0  0  0  0  0
   -2.2644    3.4949    0.8375 H   0  0  0  0  0  0  0  0  0  0  0  0
   -3.3741    3.5939    2.2175 H   0  0  0  0  0  0  0  0  0  0  0  0
   -0.9750    1.0274    0.1566 N   0  0  0  0  0  0  0  0  0  0  0  0
    0.2023    0.5266   -0.5070 C   0  0  2  0  0  0  0  0  0  0  0  0
   -0.0038   -0.9683   -0.7239 C   0  0  0  0  0  0  0  0  0  0  0  0
   -0.9005   -1.6065   -0.1766 O   0  0  0  0  0  0  0  0  0  0  0  0
    1.4766    0.7762    0.3078 C   0  0  0  0  0  0  0  0  0  0  0  0
    1.8181    2.2418    0.4227 C   0  0  0  0  0  0  0  0  0  0  0  0
    2.4753    2.8890   -0.6237 C   0  0  0  0  0  0  0  0  0  0  0  0
    1.4772    2.9489    1.5756 C   0  0  0  0  0  0  0  0  0  0  0  0
    2.7914    4.2434   -0.5172 C   0  0  0  0  0  0  0  0  0  0  0  0
    1.7933    4.3033    1.6822 C   0  0  0  0  0  0  0  0  0  0  0  0
    2.4505    4.9505    0.6358 C   0  0  0  0  0  0  0  0  0  0  0  0
    2.7602    6.2718    0.7401 O   0  0  0  0  0  0  0  0  0  0  0  0
   -1.7582    1.3241   -0.4207 H   0  0  0  0  0  0  0  0  0  0  0  0
    0.2487    1.0275   -1.4812 H   0  0  0  0  0  0  0  0  0  0  0  0
    2.3231    0.2331   -0.1340 H   0  0  0  0  0  0  0  0  0  0  0  0
    1.3699    0.3676    1.3214 H   0  0  0  0  0  0  0  0  0  0  0  0
    2.7447    2.3459   -1.5256 H   0  0  0  0  0  0  0  0  0  0  0  0
    0.9649    2.4528    2.3960 H   0  0  0  0  0  0  0  0  0  0  0  0
    3.3038    4.7420   -1.3357 H   0  0  0  0  0  0  0  0  0  0  0  0
    1.5254    4.8484    2.5829 H   0  0  0  0  0  0  0  0  0  0  0  0
    2.4602    6.6211    1.5944 H   0  0  0  0  0  0  0  0  0  0  0  0
    0.9009   -1.4902   -1.6380 N   0  0  0  0  0  0  0  0  0  0  0  0
    0.9100   -2.8780   -2.0416 C   0  0  2  0  0  0  0  0  0  0  0  0
    0.8919   -3.7341   -0.7821 C   0  0  0  0  0  0  0  0  0  0  0  0
    1.2673   -3.3231    0.3138 O   0  0  0  0  0  0  0  0  0  0  0  0
    2.1252   -3.1971   -2.8984 C   0  0  0  0  0  0  0  0  0  0  0  0
    1.5913   -0.8654   -2.0438 H   0  0  0  0  0  0  0  0  0  0  0  0
   -0.0096   -3.0474   -2.6123 H   0  0  0  0  0  0  0  0  0  0  0  0
    3.0561   -3.0333   -2.3434 H   0  0  0  0  0  0  0  0  0  0  0  0
    2.1158   -4.2416   -3.2269 H   0  0  0  0  0  0  0  0  0  0  0  0
    2.1525   -2.5598   -3.7888 H   0  0  0  0  0  0  0  0  0  0  0  0
    0.4478   -5.0245   -1.0346 N   0  0  0  0  0  0  0  0  0  0  0  0
    0.3520   -6.0318   -0.0039 C   0  0  0  0  0  0  0  0  0  0  0  0
    0.1388   -5.2726   -1.9699 H   0  0  0  0  0  0  0  0  0  0  0  0
    1.2848   -6.6140    0.0283 H   0  0  0  0  0  0  0  0  0  0  0  0
    0.1894   -5.5459    0.9694 H   0  0  0  0  0  0  0  0  0  0  0  0
   -0.4914   -6.7027   -0.2243 H   0  0  0  0  0  0  0  0  0  0  0  0
 23 25  2  0  0  0  0
 22 23  1  0  0  0  0
 24 26  1  0  0  0  0
 22 24  2  0  0  0  0
 25 27  1  0  0  0  0
 26 27  2  0  0  0  0
 21 22  1  0  0  0  0
 27 28  1  0  0  0  0
  1  3  1  0  0  0  0
  1  7  1  0  0  0  0
  1  2  2  0  0  0  0
 39 40  1  0  0  0  0
 40 48  1  0  0  0  0
 40 41  2  0  0  0  0
  8  9  1  0  0  0  0
  9 17  1  0  0  0  0
  9 10  2  0  0  0  0
 18 19  1  0  0  0  0
 19 38  1  0  0  0  0
 19 20  2  0  0  0  0
 39 42  1  0  0  0  0
  8 11  1  0  0  0  0
 48 49  1  0  0  0  0
 18 21  1  0  0  0  0
 38 39  1  0  0  0  0
  7  8  1  0  0  0  0
 17 18  1  0  0  0  0
 23 33  1  0  0  0  0
 24 34  1  0  0  0  0
 25 35  1  0  0  0  0
 26 36  1  0  0  0  0
  3  4  1  0  0  0  0
  3  5  1  0  0  0  0
  3  6  1  0  0  0  0
 42 45  1  0  0  0  0
 42 46  1  0  0  0  0
 42 47  1  0  0  0  0
 11 14  1  0  0  0  0
 11 15  1  0  0  0  0
 11 16  1  0  0  0  0
 49 51  1  0  0  0  0
 49 52  1  0  0  0  0
 49 53  1  0  0  0  0
 21 31  1  0  0  0  0
 21 32  1  0  0  0  0
 39 44  1  0  0  0  0
  8 13  1  0  0  0  0
 18 30  1  0  0  0  0
 48 50  1  0  0  0  0
  7 12  1  0  0  0  0
 38 43  1  0  0  0  0
 17 29  1  0  0  0  0
 28 37  1  0  0  0  0
M  END
$$$$

  -OEChem-05262214473D

 53 53  0     1  0  0  0  0  0999 V2000
   -1.9298    0.2574    3.9747 C   0  0  0  0  0  0  0  0  0  0  0  0
   -0.9825   -0.3573    3.4990 O   0  0  0  0  0  0  0  0  0  0  0  0
   -2.3617   -0.0250    5.3754 C   0  0  0  0  0  0  0  0  0  0  0  0
   -3.1214   -0.8213    5.4288 H   0  0  0  0  0  0  0  0  0  0  0  0
   -1.5305   -0.3726    6.0097 H   0  0  0  0  0  0  0  0  0  0  0  0
   -2.7997    0.8299    5.9150 H   0  0  0  0  0  0  0  0  0  0  0  0
   -2.6795    1.2298    3.3336 N   0  0  0  0  0  0  0  0  0  0  0  0
   -2.4327    1.6559    1.9812 C   0  0  2  0  0  0  0  0  0  0  0  0
   -1.0977    1.0705    1.5400 C   0  0  0  0  0  0  0  0  0  0  0  0
   -0.2256    0.7177    2.3313 O   0  0  0  0  0  0  0  0  0  0  0  0
   -2.4239    3.1726    1.8718 C   0  0  0  0  0  0  0  0  0  0  0  0
   -3.4446    1.6657    3.8454 H   0  0  0  0  0  0  0  0  0  0  0  0
   -3.2368    1.2374    1.3661 H   0  0  0  0  0  0  0  0  0  0  0  0
   -1.6248    3.6099    2.4815 H   0  0  0  0  0  0  0  0  0  0  0  0
   -2.2644    3.4949    0.8375 H   0  0  0  0  0  0  0  0  0  0  0  0
   -3.3741    3.5939    2.2175 H   0  0  0  0  0  0  0  0  0  0  0  0
   -0.9750    1.0274    0.1566 N   0  0  0  0  0  0  0  0  0  0  0  0
    0.2023    0.5266   -0.5070 C   0  0  2  0  0  0  0  0  0  0  0  0
   -0.1429   -0.8523   -1.0582 C   0  0  0  0  0  0  0  0  0  0  0  0
   -1.2599   -1.3544   -0.9534 O   0  0  0  0  0  0  0  0  0  0  0  0
    1.4058    0.4367    0.4383 C   0  0  0  0  0  0  0  0  0  0  0  0
    1.8921    1.7907    0.8943 C   0  0  0  0  0  0  0  0  0  0  0  0
    2.7203    2.5494    0.0670 C   0  0  0  0  0  0  0  0  0  0  0  0
    1.5140    2.2831    2.1434 C   0  0  0  0  0  0  0  0  0  0  0  0
    3.1701    3.8005    0.4888 C   0  0  0  0  0  0  0  0  0  0  0  0
    1.9639    3.5342    2.5652 C   0  0  0  0  0  0  0  0  0  0  0  0
    2.7920    4.2929    1.7379 C   0  0  0  0  0  0  0  0  0  0  0  0
    3.2322    5.5132    2.1498 O   0  0  0  0  0  0  0  0  0  0  0  0
   -1.7582    1.3241   -0.4207 H   0  0  0  0  0  0  0  0  0  0  0  0
    0.4031    1.2072   -1.3428 H   0  0  0  0  0  0  0  0  0  0  0  0
    2.2285   -0.1082   -0.0441 H   0  0  0  0  0  0  0  0  0  0  0  0
    1.1514   -0.1547    1.3279 H   0  0  0  0  0  0  0  0  0  0  0  0
    3.0197    2.1736   -0.9077 H   0  0  0  0  0  0  0  0  0  0  0  0
    0.8689    1.6989    2.7946 H   0  0  0  0  0  0  0  0  0  0  0  0
    3.8153    4.3868   -0.1601 H   0  0  0  0  0  0  0  0  0  0  0  0
    1.6662    3.9120    3.5393 H   0  0  0  0  0  0  0  0  0  0  0  0
    2.8861    5.7148    3.0338 H   0  0  0  0  0  0  0  0  0  0  0  0
    0.9303   -1.4299   -1.7223 N   0  0  0  0  0  0  0  0  0  0  0  0
    0.8653   -2.7258   -2.3588 C   0  0  2  0  0  0  0  0  0  0  0  0
    0.2824   -3.7133   -1.3565 C   0  0  0  0  0  0  0  0  0  0  0  0
    0.3147   -3.5331   -0.1410 O   0  0  0  0  0  0  0  0  0  0  0  0
    2.2373   -3.1788   -2.8332 C   0  0  0  0  0  0  0  0  0  0  0  0
    1.8055   -0.9159   -1.7631 H   0  0  0  0  0  0  0  0  0  0  0  0
    0.1849   -2.6255   -3.2115 H   0  0  0  0  0  0  0  0  0  0  0  0
    2.9328   -3.2848   -1.9927 H   0  0  0  0  0  0  0  0  0  0  0  0
    2.1818   -4.1476   -3.3405 H   0  0  0  0  0  0  0  0  0  0  0  0
    2.6677   -2.4525   -3.5312 H   0  0  0  0  0  0  0  0  0  0  0  0
   -0.2394   -4.8398   -1.9769 N   0  0  0  0  0  0  0  0  0  0  0  0
   -0.8384   -5.9284   -1.2405 C   0  0  0  0  0  0  0  0  0  0  0  0
   -0.2408   -4.8963   -2.9911 H   0  0  0  0  0  0  0  0  0  0  0  0
   -0.0752   -6.6913   -1.0274 H   0  0  0  0  0  0  0  0  0  0  0  0
   -1.2505   -5.5478   -0.2943 H   0  0  0  0  0  0  0  0  0  0  0  0
   -1.6461   -6.3751   -1.8389 H   0  0  0  0  0  0  0  0  0  0  0  0
 23 25  2  0  0  0  0
 22 23  1  0  0  0  0
 24 26  1  0  0  0  0
 22 24  2  0  0  0  0
 25 27  1  0  0  0  0
 26 27  2  0  0  0  0
 21 22  1  0  0  0  0
 27 28  1  0  0  0  0
  1  3  1  0  0  0  0
  1  7  1  0  0  0  0
  1  2  2  0  0  0  0
 39 40  1  0  0  0  0
 40 48  1  0  0  0  0
 40 41  2  0  0  0  0
  8  9  1  0  0  0  0
  9 17  1  0  0  0  0
  9 10  2  0  0  0  0
 18 19  1  0  0  0  0
 19 38  1  0  0  0  0
 19 20  2  0  0  0  0
 39 42  1  0  0  0  0
  8 11  1  0  0  0  0
 48 49  1  0  0  0  0
 18 21  1  0  0  0  0
 38 39  1  0  0  0  0
  7  8  1  0  0  0  0
 17 18  1  0  0  0  0
 23 33  1  0  0  0  0
 24 34  1  0  0  0  0
 25 35  1  0  0  0  0
 26 36  1  0  0  0  0
  3  4  1  0  0  0  0
  3  5  1  0  0  0  0
  3  6  1  0  0  0  0
 42 45  1  0  0  0  0
 42 46  1  0  0  0  0
 42 47  1  0  0  0  0
 11 14  1  0  0  0  0
 11 15  1  0  0  0  0
 11 16  1  0  0  0  0
 49 51  1  0  0  0  0
 49 52  1  0  0  0  0
 49 53  1  0  0  0  0
 21 31  1  0  0  0  0
 21 32  1  0  0  0  0
 39 44  1  0  0  0  0
  8 13  1  0  0  0  0
 18 30  1  0  0  0  0
 48 50  1  0  0  0  0
  7 12  1  0  0  0  0
 38 43  1  0  0  0  0
 17 29  1  0  0  0  0
 28 37  1  0  0  0  0
M  END
$$$$

  -OEChem-05262214473D

 53 53  0     1  0  0  0  0  0999 V2000
   -1.9298    0.2574    3.9747 C   0  0  0  0  0  0  0  0  0  0  0  0
   -0.9825   -0.3573    3.4990 O   0  0  0  0  0  0  0  0  0  0  0  0
   -2.3617   -0.0250    5.3754 C   0  0  0  0  0  0  0  0  0  0  0  0
   -3.1214   -0.8213    5.4288 H   0  0  0  0  0  0  0  0  0  0  0  0
   -1.5305   -0.3726    6.0097 H   0  0  0  0  0  0  0  0  0  0  0  0
   -2.7997    0.8299    5.9150 H   0  0  0  0  0  0  0  0  0  0  0  0
   -2.6795    1.2298    3.3336 N   0  0  0  0  0  0  0  0  0  0  0  0
   -2.4327    1.6559    1.9812 C   0  0  2  0  0  0  0  0  0  0  0  0
   -1.0977    1.0705    1.5400 C   0  0  0  0  0  0  0  0  0  0  0  0
   -0.2256    0.7177    2.3313 O   0  0  0  0  0  0  0  0  0  0  0  0
   -2.4239    3.1726    1.8718 C   0  0  0  0  0  0  0  0  0  0  0  0
   -3.4446    1.6657    3.8454 H   0  0  0  0  0  0  0  0  0  0  0  0
   -3.2368    1.2374    1.3661 H   0  0  0  0  0  0  0  0  0  0  0  0
   -1.6248    3.6099    2.4815 H   0  0  0  0  0  0  0  0  0  0  0  0
   -2.2644    3.4949    0.8375 H   0  0  0  0  0  0  0  0  0  0  0  0
   -3.3741    3.5939    2.2175 H   0  0  0  0  0  0  0  0  0  0  0  0
   -0.9750    1.0274    0.1566 N   0  0  0  0  0  0  0  0  0  0  0  0
    0.2023    0.5266   -0.5070 C   0  0  2  0  0  0  0  0  0  0  0  0
   -0.1429   -0.8523   -1.0582 C   0  0  0  0  0  0  0  0  0  0  0  0
   -1.2985   -1.2472   -1.1972 O   0  0  0  0  0  0  0  0  0  0  0  0
    1.4058    0.4367    0.4383 C   0  0  0  0  0  0  0  0  0  0  0  0
    1.8921    1.7907    0.8943 C   0  0  0  0  0  0  0  0  0  0  0  0
    2.7203    2.5494    0.0670 C   0  0  0  0  0  0  0  0  0  0  0  0
    1.5140    2.2831    2.1434 C   0  0  0  0  0  0  0  0  0  0  0  0
    3.1701    3.8005    0.4888 C   0  0  0  0  0  0  0  0  0  0  0  0
    1.9639    3.5342    2.5652 C   0  0  0  0  0  0  0  0  0  0  0  0
    2.7920    4.2929    1.7379 C   0  0  0  0  0  0  0  0  0  0  0  0
    3.2322    5.5132    2.1498 O   0  0  0  0  0  0  0  0  0  0  0  0
   -1.7582    1.3241   -0.4207 H   0  0  0  0  0  0  0  0  0  0  0  0
    0.4031    1.2072   -1.3428 H   0  0  0  0  0  0  0  0  0  0  0  0
    2.2285   -0.1082   -0.0441 H   0  0  0  0  0  0  0  0  0  0  0  0
    1.1514   -0.1547    1.3279 H   0  0  0  0  0  0  0  0  0  0  0  0
    3.0197    2.1736   -0.9077 H   0  0  0  0  0  0  0  0  0  0  0  0
    0.8689    1.6989    2.7946 H   0  0  0  0  0  0  0  0  0  0  0  0
    3.8153    4.3868   -0.1601 H   0  0  0  0  0  0  0  0  0  0  0  0
    1.6662    3.9120    3.5393 H   0  0  0  0  0  0  0  0  0  0  0  0
    2.8861    5.7148    3.0338 H   0  0  0  0  0  0  0  0  0  0  0  0
    0.9912   -1.5655   -1.4210 N   0  0  0  0  0  0  0  0  0  0  0  0
    0.9451   -2.8922   -1.9926 C   0  0  2  0  0  0  0  0  0  0  0  0
    0.0500   -3.7532   -1.1112 C   0  0  0  0  0  0  0  0  0  0  0  0
   -0.1818   -3.4922    0.0674 O   0  0  0  0  0  0  0  0  0  0  0  0
    2.3370   -3.4942   -2.1065 C   0  0  0  0  0  0  0  0  0  0  0  0
    1.8992   -1.1334   -1.2777 H   0  0  0  0  0  0  0  0  0  0  0  0
    0.4941   -2.7931   -2.9860 H   0  0  0  0  0  0  0  0  0  0  0  0
    2.8049   -3.6012   -1.1210 H   0  0  0  0  0  0  0  0  0  0  0  0
    2.3032   -4.4876   -2.5659 H   0  0  0  0  0  0  0  0  0  0  0  0
    2.9880   -2.8584   -2.7162 H   0  0  0  0  0  0  0  0  0  0  0  0
   -0.4248   -4.8708   -1.7833 N   0  0  0  0  0  0  0  0  0  0  0  0
   -1.2841   -5.8494   -1.1590 C   0  0  0  0  0  0  0  0  0  0  0  0
   -0.1971   -4.9976   -2.7651 H   0  0  0  0  0  0  0  0  0  0  0  0
   -0.6716   -6.6588   -0.7352 H   0  0  0  0  0  0  0  0  0  0  0  0
   -1.8635   -5.3696   -0.3565 H   0  0  0  0  0  0  0  0  0  0  0  0
   -1.9722   -6.2651   -1.9098 H   0  0  0  0  0  0  0  0  0  0  0  0
 23 25  2  0  0  0  0
 22 23  1  0  0  0  0
 24 26  1  0  0  0  0
 22 24  2  0  0  0  0
 25 27  1  0  0  0  0
 26 27  2  0  0  0  0
 21 22  1  0  0  0  0
 27 28  1  0  0  0  0
  1  3  1  0  0  0  0
  1  7  1  0  0  0  0
  1  2  2  0  0  0  0
 39 40  1  0  0  0  0
 40 48  1  0  0  0  0
 40 41  2  0  0  0  0
  8  9  1  0  0  0  0
  9 17  1  0  0  0  0
  9 10  2  0  0  0  0
 18 19  1  0  0  0  0
 19 38  1  0  0  0  0
 19 20  2  0  0  0  0
 39 42  1  0  0  0  0
  8 11  1  0  0  0  0
 48 49  1  0  0  0  0
 18 21  1  0  0  0  0
 38 39  1  0  0  0  0
  7  8  1  0  0  0  0
 17 18  1  0  0  0  0
 23 33  1  0  0  0  0
 24 34  1  0  0  0  0
 25 35  1  0  0  0  0
 26 36  1  0  0  0  0
  3  4  1  0  0  0  0
  3  5  1  0  0  0  0
  3  6  1  0  0  0  0
 42 45  1  0  0  0  0
 42 46  1  0  0  0  0
 42 47  1  0  0  0  0
 11 14  1  0  0  0  0
 11 15  1  0  0  0  0
 11 16  1  0  0  0  0
 49 51  1  0  0  0  0
 49 52  1  0  0  0  0
 49 53  1  0  0  0  0
 21 31  1  0  0  0  0
 21 32  1  0  0  0  0
 39 44  1  0  0  0  0
  8 13  1  0  0  0  0
 18 30  1  0  0  0  0
 48 50  1  0  0  0  0
  7 12  1  0  0  0  0
 38 43  1  0  0  0  0
 17 29  1  0  0  0  0
 28 37  1  0  0  0  0
M  END
$$$$

  -OEChem-05262214473D

 53 53  0     1  0  0  0  0  0999 V2000
   -1.9298    0.2574    3.9747 C   0  0  0  0  0  0  0  0  0  0  0  0
   -0.9825   -0.3573    3.4990 O   0  0  0  0  0  0  0  0  0  0  0  0
   -2.3617   -0.0250    5.3754 C   0  0  0  0  0  0  0  0  0  0  0  0
   -3.1214   -0.8213    5.4288 H   0  0  0  0  0  0  0  0  0  0  0  0
   -1.5305   -0.3726    6.0097 H   0  0  0  0  0  0  0  0  0  0  0  0
   -2.7997    0.8299    5.9150 H   0  0  0  0  0  0  0  0  0  0  0  0
   -2.6795    1.2298    3.3336 N   0  0  0  0  0  0  0  0  0  0  0  0
   -2.4327    1.6559    1.9812 C   0  0  2  0  0  0  0  0  0  0  0  0
   -1.0977    1.0705    1.5400 C   0  0  0  0  0  0  0  0  0  0  0  0
   -0.2256    0.7177    2.3313 O   0  0  0  0  0  0  0  0  0  0  0  0
   -2.4239    3.1726    1.8718 C   0  0  0  0  0  0  0  0  0  0  0  0
   -3.4446    1.6657    3.8454 H   0  0  0  0  0  0  0  0  0  0  0  0
   -3.2368    1.2374    1.3661 H   0  0  0  0  0  0  0  0  0  0  0  0
   -1.6248    3.6099    2.4815 H   0  0  0  0  0  0  0  0  0  0  0  0
   -2.2644    3.4949    0.8375 H   0  0  0  0  0  0  0  0  0  0  0  0
   -3.3741    3.5939    2.2175 H   0  0  0  0  0  0  0  0  0  0  0  0
   -0.9750    1.0274    0.1566 N   0  0  0  0  0  0  0  0  0  0  0  0
    0.2023    0.5266   -0.5070 C   0  0  2  0  0  0  0  0  0  0  0  0
   -0.1429   -0.8523   -1.0582 C   0  0  0  0  0  0  0  0  0  0  0  0
   -1.2687   -1.1544   -1.4481 O   0  0  0  0  0  0  0  0  0  0  0  0
    1.4058    0.4367    0.4383 C   0  0  0  0  0  0  0  0  0  0  0  0
    1.8921    1.7907    0.8943 C   0  0  0  0  0  0  0  0  0  0  0  0
    2.7203    2.5494    0.0670 C   0  0  0  0  0  0  0  0  0  0  0  0
    1.5140    2.2831    2.1434 C   0  0  0  0  0  0  0  0  0  0  0  0
    3.1701    3.8005    0.4888 C   0  0  0  0  0  0  0  0  0  0  0  0
    1.9639    3.5342    2.5652 C   0  0  0  0  0  0  0  0  0  0  0  0
    2.7920    4.2929    1.7379 C   0  0  0  0  0  0  0  0  0  0  0  0
    3.2322    5.5132    2.1498 O   0  0  0  0  0  0  0  0  0  0  0  0
   -1.7582    1.3241   -0.4207 H   0  0  0  0  0  0  0  0  0  0  0  0
    0.4031    1.2072   -1.3428 H   0  0  0  0  0  0  0  0  0  0  0  0
    2.2285   -0.1082   -0.0441 H   0  0  0  0  0  0  0  0  0  0  0  0
    1.1514   -0.1547    1.3279 H   0  0  0  0  0  0  0  0  0  0  0  0
    3.0197    2.1736   -0.9077 H   0  0  0  0  0  0  0  0  0  0  0  0
    0.8689    1.6989    2.7946 H   0  0  0  0  0  0  0  0  0  0  0  0
    3.8153    4.3868   -0.1601 H   0  0  0  0  0  0  0  0  0  0  0  0
    1.6662    3.9120    3.5393 H   0  0  0  0  0  0  0  0  0  0  0  0
    2.8861    5.7148    3.0338 H   0  0  0  0  0  0  0  0  0  0  0  0
    0.9667   -1.6846   -1.1078 N   0  0  0  0  0  0  0  0  0  0  0  0
    0.9210   -3.0389   -1.6104 C   0  0  2  0  0  0  0  0  0  0  0  0
   -0.2356   -3.7556   -0.9263 C   0  0  0  0  0  0  0  0  0  0  0  0
   -0.7063   -3.3939    0.1501 O   0  0  0  0  0  0  0  0  0  0  0  0
    2.2337   -3.7657   -1.3626 C   0  0  0  0  0  0  0  0  0  0  0  0
    1.8557   -1.3238   -0.7741 H   0  0  0  0  0  0  0  0  0  0  0  0
    0.7242   -2.9706   -2.6859 H   0  0  0  0  0  0  0  0  0  0  0  0
    2.4478   -3.8438   -0.2905 H   0  0  0  0  0  0  0  0  0  0  0  0
    2.2074   -4.7820   -1.7693 H   0  0  0  0  0  0  0  0  0  0  0  0
    3.0686   -3.2327   -1.8303 H   0  0  0  0  0  0  0  0  0  0  0  0
   -0.6519   -4.8720   -1.6380 N   0  0  0  0  0  0  0  0  0  0  0  0
   -1.7263   -5.7266   -1.1892 C   0  0  0  0  0  0  0  0  0  0  0  0
   -0.2173   -5.0862   -2.5307 H   0  0  0  0  0  0  0  0  0  0  0  0
   -1.3130   -6.5545   -0.5945 H   0  0  0  0  0  0  0  0  0  0  0  0
   -2.4244   -5.1436   -0.5705 H   0  0  0  0  0  0  0  0  0  0  0  0
   -2.2603   -6.1325   -2.0611 H   0  0  0  0  0  0  0  0  0  0  0  0
 23 25  2  0  0  0  0
 22 23  1  0  0  0  0
 24 26  1  0  0  0  0
 22 24  2  0  0  0  0
 25 27  1  0  0  0  0
 26 27  2  0  0  0  0
 21 22  1  0  0  0  0
 27 28  1  0  0  0  0
  1  3  1  0  0  0  0
  1  7  1  0  0  0  0
  1  2  2  0  0  0  0
 39 40  1  0  0  0  0
 40 48  1  0  0  0  0
 40 41  2  0  0  0  0
  8  9  1  0  0  0  0
  9 17  1  0  0  0  0
  9 10  2  0  0  0  0
 18 19  1  0  0  0  0
 19 38  1  0  0  0  0
 19 20  2  0  0  0  0
 39 42  1  0  0  0  0
  8 11  1  0  0  0  0
 48 49  1  0  0  0  0
 18 21  1  0  0  0  0
 38 39  1  0  0  0  0
  7  8  1  0  0  0  0
 17 18  1  0  0  0  0
 23 33  1  0  0  0  0
 24 34  1  0  0  0  0
 25 35  1  0  0  0  0
 26 36  1  0  0  0  0
  3  4  1  0  0  0  0
  3  5  1  0  0  0  0
  3  6  1  0  0  0  0
 42 45  1  0  0  0  0
 42 46  1  0  0  0  0
 42 47  1  0  0  0  0
 11 14  1  0  0  0  0
 11 15  1  0  0  0  0
 11 16  1  0  0  0  0
 49 51  1  0  0  0  0
 49 52  1  0  0  0  0
 49 53  1  0  0  0  0
 21 31  1  0  0  0  0
 21 32  1  0  0  0  0
 39 44  1  0  0  0  0
  8 13  1  0  0  0  0
 18 30  1  0  0  0  0
 48 50  1  0  0  0  0
  7 12  1  0  0  0  0
 38 43  1  0  0  0  0
 17 29  1  0  0  0  0
 28 37  1  0  0  0  0
M  END
$$$$

  -OEChem-05262214473D

 53 53  0     1  0  0  0  0  0999 V2000
   -1.9298    0.2574    3.9747 C   0  0  0  0  0  0  0  0  0  0  0  0
   -0.9825   -0.3573    3.4990 O   0  0  0  0  0  0  0  0  0  0  0  0
   -2.3617   -0.0250    5.3754 C   0  0  0  0  0  0  0  0  0  0  0  0
   -3.1214   -0.8213    5.4288 H   0  0  0  0  0  0  0  0  0  0  0  0
   -1.5305   -0.3726    6.0097 H   0  0  0  0  0  0  0  0  0  0  0  0
   -2.7997    0.8299    5.9150 H   0  0  0  0  0  0  0  0  0  0  0  0
   -2.6795    1.2298    3.3336 N   0  0  0  0  0  0  0  0  0  0  0  0
   -2.4327    1.6559    1.9812 C   0  0  2  0  0  0  0  0  0  0  0  0
   -1.0977    1.0705    1.5400 C   0  0  0  0  0  0  0  0  0  0  0  0
   -0.2256    0.7177    2.3313 O   0  0  0  0  0  0  0  0  0  0  0  0
   -2.4239    3.1726    1.8718 C   0  0  0  0  0  0  0  0  0  0  0  0
   -3.4446    1.6657    3.8454 H   0  0  0  0  0  0  0  0  0  0  0  0
   -3.2368    1.2374    1.3661 H   0  0  0  0  0  0  0  0  0  0  0  0
   -1.6248    3.6099    2.4815 H   0  0  0  0  0  0  0  0  0  0  0  0
   -2.2644    3.4949    0.8375 H   0  0  0  0  0  0  0  0  0  0  0  0
   -3.3741    3.5939    2.2175 H   0  0  0  0  0  0  0  0  0  0  0  0
   -0.9750    1.0274    0.1566 N   0  0  0  0  0  0  0  0  0  0  0  0
    0.2023    0.5266   -0.5070 C   0  0  2  0  0  0  0  0  0  0  0  0
   -0.1429   -0.8523   -1.0582 C   0  0  0  0  0  0  0  0  0  0  0  0
   -1.1725   -1.0822   -1.6889 O   0  0  0  0  0  0  0  0  0  0  0  0
    1.4058    0.4367    0.4383 C   0  0  0  0  0  0  0  0  0  0  0  0
    1.8921    1.7907    0.8943 C   0  0  0  0  0  0  0  0  0  0  0  0
    2.7203    2.5494    0.0670 C   0  0  0  0  0  0  0  0  0  0  0  0
    1.5140    2.2831    2.1434 C   0  0  0  0  0  0  0  0  0  0  0  0
    3.1701    3.8005    0.4888 C   0  0  0  0  0  0  0  0  0  0  0  0
    1.9639    3.5342    2.5652 C   0  0  0  0  0  0  0  0  0  0  0  0
    2.7920    4.2929    1.7379 C   0  0  0  0  0  0  0  0  0  0  0  0
    3.2322    5.5132    2.1498 O   0  0  0  0  0  0  0  0  0  0  0  0
   -1.7582    1.3241   -0.4207 H   0  0  0  0  0  0  0  0  0  0  0  0
    0.4031    1.2072   -1.3428 H   0  0  0  0  0  0  0  0  0  0  0  0
    2.2285   -0.1082   -0.0441 H   0  0  0  0  0  0  0  0  0  0  0  0
    1.1514   -0.1547    1.3279 H   0  0  0  0  0  0  0  0  0  0  0  0
    3.0197    2.1736   -0.9077 H   0  0  0  0  0  0  0  0  0  0  0  0
    0.8689    1.6989    2.7946 H   0  0  0  0  0  0  0  0  0  0  0  0
    3.8153    4.3868   -0.1601 H   0  0  0  0  0  0  0  0  0  0  0  0
    1.6662    3.9120    3.5393 H   0  0  0  0  0  0  0  0  0  0  0  0
    2.8861    5.7148    3.0338 H   0  0  0  0  0  0  0  0  0  0  0  0
    0.8586   -1.7790   -0.8040 N   0  0  0  0  0  0  0  0  0  0  0  0
    0.7945   -3.1560   -1.2383 C   0  0  2  0  0  0  0  0  0  0  0  0
   -0.5550   -3.7204   -0.8144 C   0  0  0  0  0  0  0  0  0  0  0  0
   -1.2231   -3.2451    0.1015 O   0  0  0  0  0  0  0  0  0  0  0  0
    1.9343   -3.9746   -0.6524 C   0  0  0  0  0  0  0  0  0  0  0  0
    1.6779   -1.4741   -0.2867 H   0  0  0  0  0  0  0  0  0  0  0  0
    0.8597   -3.1461   -2.3318 H   0  0  0  0  0  0  0  0  0  0  0  0
    1.8857   -3.9961    0.4424 H   0  0  0  0  0  0  0  0  0  0  0  0
    1.9008   -5.0108   -1.0050 H   0  0  0  0  0  0  0  0  0  0  0  0
    2.9040   -3.5499   -0.9337 H   0  0  0  0  0  0  0  0  0  0  0  0
   -0.9055   -4.8435   -1.5506 N   0  0  0  0  0  0  0  0  0  0  0  0
   -2.1349   -5.5684   -1.3292 C   0  0  0  0  0  0  0  0  0  0  0  0
   -0.3000   -5.1562   -2.3038 H   0  0  0  0  0  0  0  0  0  0  0  0
   -1.9558   -6.3855   -0.6148 H   0  0  0  0  0  0  0  0  0  0  0  0
   -2.8949   -4.8855   -0.9218 H   0  0  0  0  0  0  0  0  0  0  0  0
   -2.4908   -5.9864   -2.2824 H   0  0  0  0  0  0  0  0  0  0  0  0
 23 25  2  0  0  0  0
 22 23  1  0  0  0  0
 24 26  1  0  0  0  0
 22 24  2  0  0  0  0
 25 27  1  0  0  0  0
 26 27  2  0  0  0  0
 21 22  1  0  0  0  0
 27 28  1  0  0  0  0
  1  3  1  0  0  0  0
  1  7  1  0  0  0  0
  1  2  2  0  0  0  0
 39 40  1  0  0  0  0
 40 48  1  0  0  0  0
 40 41  2  0  0  0  0
  8  9  1  0  0  0  0
  9 17  1  0  0  0  0
  9 10  2  0  0  0  0
 18 19  1  0  0  0  0
 19 38  1  0  0  0  0
 19 20  2  0  0  0  0
 39 42  1  0  0  0  0
  8 11  1  0  0  0  0
 48 49  1  0  0  0  0
 18 21  1  0  0  0  0
 38 39  1  0  0  0  0
  7  8  1  0  0  0  0
 17 18  1  0  0  0  0
 23 33  1  0  0  0  0
 24 34  1  0  0  0  0
 25 35  1  0  0  0  0
 26 36  1  0  0  0  0
  3  4  1  0  0  0  0
  3  5  1  0  0  0  0
  3  6  1  0  0  0  0
 42 45  1  0  0  0  0
 42 46  1  0  0  0  0
 42 47  1  0  0  0  0
 11 14  1  0  0  0  0
 11 15  1  0  0  0  0
 11 16  1  0  0  0  0
 49 51  1  0  0  0  0
 49 52  1  0  0  0  0
 49 53  1  0  0  0  0
 21 31  1  0  0  0  0
 21 32  1  0  0  0  0
 39 44  1  0  0  0  0
  8 13  1  0  0  0  0
 18 30  1  0  0  0  0
 48 50  1  0  0  0  0
  7 12  1  0  0  0  0
 38 43  1  0  0  0  0
 17 29  1  0  0  0  0
 28 37  1  0  0  0  0
M  END
$$$$

  -OEChem-05262214473D

 53 53  0     1  0  0  0  0  0999 V2000
   -1.9298    0.2574    3.9747 C   0  0  0  0  0  0  0  0  0  0  0  0
   -0.9825   -0.3573    3.4990 O   0  0  0  0  0  0  0  0  0  0  0  0
   -2.3617   -0.0250    5.3754 C   0  0  0  0  0  0  0  0  0  0  0  0
   -3.1214   -0.8213    5.4288 H   0  0  0  0  0  0  0  0  0  0  0  0
   -1.5305   -0.3726    6.0097 H   0  0  0  0  0  0  0  0  0  0  0  0
   -2.7997    0.8299    5.9150 H   0  0  0  0  0  0  0  0  0  0  0  0
   -2.6795    1.2298    3.3336 N   0  0  0  0  0  0  0  0  0  0  0  0
   -2.4327    1.6559    1.9812 C   0  0  2  0  0  0  0  0  0  0  0  0
   -1.0977    1.0705    1.5400 C   0  0  0  0  0  0  0  0  0  0  0  0
   -0.2256    0.7177    2.3313 O   0  0  0  0  0  0  0  0  0  0  0  0
   -2.4239    3.1726    1.8718 C   0  0  0  0  0  0  0  0  0  0  0  0
   -3.4446    1.6657    3.8454 H   0  0  0  0  0  0  0  0  0  0  0  0
   -3.2368    1.2374    1.3661 H   0  0  0  0  0  0  0  0  0  0  0  0
   -1.6248    3.6099    2.4815 H   0  0  0  0  0  0  0  0  0  0  0  0
   -2.2644    3.4949    0.8375 H   0  0  0  0  0  0  0  0  0  0  0  0
   -3.3741    3.5939    2.2175 H   0  0  0  0  0  0  0  0  0  0  0  0
   -0.9750    1.0274    0.1566 N   0  0  0  0  0  0  0  0  0  0  0  0
    0.2023    0.5266   -0.5070 C   0  0  2  0  0  0  0  0  0  0  0  0
   -0.1429   -0.8523   -1.0582 C   0  0  0  0  0  0  0  0  0  0  0  0
   -1.0164   -1.0356   -1.9032 O   0  0  0  0  0  0  0  0  0  0  0  0
    1.4058    0.4367    0.4383 C   0  0  0  0  0  0  0  0  0  0  0  0
    1.8921    1.7907    0.8943 C   0  0  0  0  0  0  0  0  0  0  0  0
    2.7203    2.5494    0.0670 C   0  0  0  0  0  0  0  0  0  0  0  0
    1.5140    2.2831    2.1434 C   0  0  0  0  0  0  0  0  0  0  0  0
    3.1701    3.8005    0.4888 C   0  0  0  0  0  0  0  0  0  0  0  0
    1.9639    3.5342    2.5652 C   0  0  0  0  0  0  0  0  0  0  0  0
    2.7920    4.2929    1.7379 C   0  0  0  0  0  0  0  0  0  0  0  0
    3.2322    5.5132    2.1498 O   0  0  0  0  0  0  0  0  0  0  0  0
   -1.7582    1.3241   -0.4207 H   0  0  0  0  0  0  0  0  0  0  0  0
    0.4031    1.2072   -1.3428 H   0  0  0  0  0  0  0  0  0  0  0  0
    2.2285   -0.1082   -0.0441 H   0  0  0  0  0  0  0  0  0  0  0  0
    1.1514   -0.1547    1.3279 H   0  0  0  0  0  0  0  0  0  0  0  0
    3.0197    2.1736   -0.9077 H   0  0  0  0  0  0  0  0  0  0  0  0
    0.8689    1.6989    2.7946 H   0  0  0  0  0  0  0  0  0  0  0  0
    3.8153    4.3868   -0.1601 H   0  0  0  0  0  0  0  0  0  0  0  0
    1.6662    3.9120    3.5393 H   0  0  0  0  0  0  0  0  0  0  0  0
    2.8861    5.7148    3.0338 H   0  0  0  0  0  0  0  0  0  0  0  0
    0.6743   -1.8423   -0.5303 N   0  0  0  0  0  0  0  0  0  0  0  0
    0.5742   -3.2354   -0.9016 C   0  0  2  0  0  0  0  0  0  0  0  0
   -0.8865   -3.6499   -0.7832 C   0  0  0  0  0  0  0  0  0  0  0  0
   -1.6970   -3.0559   -0.0752 O   0  0  0  0  0  0  0  0  0  0  0  0
    1.4594   -4.1069   -0.0242 C   0  0  0  0  0  0  0  0  0  0  0  0
    1.3781   -1.5741    0.1512 H   0  0  0  0  0  0  0  0  0  0  0  0
    0.8912   -3.3075   -1.9477 H   0  0  0  0  0  0  0  0  0  0  0  0
    1.1569   -4.0476    1.0277 H   0  0  0  0  0  0  0  0  0  0  0  0
    1.4043   -5.1582   -0.3252 H   0  0  0  0  0  0  0  0  0  0  0  0
    2.5055   -3.7883   -0.0877 H   0  0  0  0  0  0  0  0  0  0  0  0
   -1.1683   -4.7870   -1.5273 N   0  0  0  0  0  0  0  0  0  0  0  0
   -2.4820   -5.3856   -1.5692 C   0  0  0  0  0  0  0  0  0  0  0  0
   -0.4396   -5.2028   -2.0999 H   0  0  0  0  0  0  0  0  0  0  0  0
   -2.5561   -6.1633   -0.7948 H   0  0  0  0  0  0  0  0  0  0  0  0
   -3.2430   -4.6126   -1.3863 H   0  0  0  0  0  0  0  0  0  0  0  0
   -2.6479   -5.8366   -2.5587 H   0  0  0  0  0  0  0  0  0  0  0  0
 23 25  2  0  0  0  0
 22 23  1  0  0  0  0
 24 26  1  0  0  0  0
 22 24  2  0  0  0  0
 25 27  1  0  0  0  0
 26 27  2  0  0  0  0
 21 22  1  0  0  0  0
 27 28  1  0  0  0  0
  1  3  1  0  0  0  0
  1  7  1  0  0  0  0
  1  2  2  0  0  0  0
 39 40  1  0  0  0  0
 40 48  1  0  0  0  0
 40 41  2  0  0  0  0
  8  9  1  0  0  0  0
  9 17  1  0  0  0  0
  9 10  2  0  0  0  0
 18 19  1  0  0  0  0
 19 38  1  0  0  0  0
 19 20  2  0  0  0  0
 39 42  1  0  0  0  0
  8 11  1  0  0  0  0
 48 49  1  0  0  0  0
 18 21  1  0  0  0  0
 38 39  1  0  0  0  0
  7  8  1  0  0  0  0
 17 18  1  0  0  0  0
 23 33  1  0  0  0  0
 24 34  1  0  0  0  0
 25 35  1  0  0  0  0
 26 36  1  0  0  0  0
  3  4  1  0  0  0  0
  3  5  1  0  0  0  0
  3  6  1  0  0  0  0
 42 45  1  0  0  0  0
 42 46  1  0  0  0  0
 42 47  1  0  0  0  0
 11 14  1  0  0  0  0
 11 15  1  0  0  0  0
 11 16  1  0  0  0  0
 49 51  1  0  0  0  0
 49 52  1  0  0  0  0
 49 53  1  0  0  0  0
 21 31  1  0  0  0  0
 21 32  1  0  0  0  0
 39 44  1  0  0  0  0
  8 13  1  0  0  0  0
 18 30  1  0  0  0  0
 48 50  1  0  0  0  0
  7 12  1  0  0  0  0
 38 43  1  0  0  0  0
 17 29  1  0  0  0  0
 28 37  1  0  0  0  0
M  END
$$$$

  -OEChem-05262214473D

 53 53  0     1  0  0  0  0  0999 V2000
   -1.9298    0.2574    3.9747 C   0  0  0  0  0  0  0  0  0  0  0  0
   -0.9825   -0.3573    3.4990 O   0  0  0  0  0  0  0  0  0  0  0  0
   -2.3617   -0.0250    5.3754 C   0  0  0  0  0  0  0  0  0  0  0  0
   -3.1214   -0.8213    5.4288 H   0  0  0  0  0  0  0  0  0  0  0  0
   -1.5305   -0.3726    6.0097 H   0  0  0  0  0  0  0  0  0  0  0  0
   -2.7997    0.8299    5.9150 H   0  0  0  0  0  0  0  0  0  0  0  0
   -2.6795    1.2298    3.3336 N   0  0  0  0  0  0  0  0  0  0  0  0
   -2.4327    1.6559    1.9812 C   0  0  2  0  0  0  0  0  0  0  0  0
   -1.0977    1.0705    1.5400 C   0  0  0  0  0  0  0  0  0  0  0  0
   -0.2256    0.7177    2.3313 O   0  0  0  0  0  0  0  0  0  0  0  0
   -2.4239    3.1726    1.8718 C   0  0  0  0  0  0  0  0  0  0  0  0
   -3.4446    1.6657    3.8454 H   0  0  0  0  0  0  0  0  0  0  0  0
   -3.2368    1.2374    1.3661 H   0  0  0  0  0  0  0  0  0  0  0  0
   -1.6248    3.6099    2.4815 H   0  0  0  0  0  0  0  0  0  0  0  0
   -2.2644    3.4949    0.8375 H   0  0  0  0  0  0  0  0  0  0  0  0
   -3.3741    3.5939    2.2175 H   0  0  0  0  0  0  0  0  0  0  0  0
   -0.9750    1.0274    0.1566 N   0  0  0  0  0  0  0  0  0  0  0  0
    0.2023    0.5266   -0.5070 C   0  0  2  0  0  0  0  0  0  0  0  0
   -0.1429   -0.8523   -1.0582 C   0  0  0  0  0  0  0  0  0  0  0  0
   -0.8112   -1.0178   -2.0764 O   0  0  0  0  0  0  0  0  0  0  0  0
    1.4058    0.4367    0.4383 C   0  0  0  0  0  0  0  0  0  0  0  0
    1.8921    1.7907    0.8943 C   0  0  0  0  0  0  0  0  0  0  0  0
    2.7203    2.5494    0.0670 C   0  0  0  0  0  0  0  0  0  0  0  0
    1.5140    2.2831    2.1434 C   0  0  0  0  0  0  0  0  0  0  0  0
    3.1701    3.8005    0.4888 C   0  0  0  0  0  0  0  0  0  0  0  0
    1.9639    3.5342    2.5652 C   0  0  0  0  0  0  0  0  0  0  0  0
    2.7920    4.2929    1.7379 C   0  0  0  0  0  0  0  0  0  0  0  0
    3.2322    5.5132    2.1498 O   0  0  0  0  0  0  0  0  0  0  0  0
   -1.7582    1.3241   -0.4207 H   0  0  0  0  0  0  0  0  0  0  0  0
    0.4031    1.2072   -1.3428 H   0  0  0  0  0  0  0  0  0  0  0  0
    2.2285   -0.1082   -0.0441 H   0  0  0  0  0  0  0  0  0  0  0  0
    1.1514   -0.1547    1.3279 H   0  0  0  0  0  0  0  0  0  0  0  0
    3.0197    2.1736   -0.9077 H   0  0  0  0  0  0  0  0  0  0  0  0
    0.8689    1.6989    2.7946 H   0  0  0  0  0  0  0  0  0  0  0  0
    3.8153    4.3868   -0.1601 H   0  0  0  0  0  0  0  0  0  0  0  0
    1.6662    3.9120    3.5393 H   0  0  0  0  0  0  0  0  0  0  0  0
    2.8861    5.7148    3.0338 H   0  0  0  0  0  0  0  0  0  0  0  0
    0.4263   -1.8701   -0.3054 N   0  0  0  0  0  0  0  0  0  0  0  0
    0.2752   -3.2718   -0.6233 C   0  0  2  0  0  0  0  0  0  0  0  0
   -1.2073   -3.5490   -0.8347 C   0  0  0  0  0  0  0  0  0  0  0  0
   -2.0957   -2.8391   -0.3679 O   0  0  0  0  0  0  0  0  0  0  0  0
    0.8412   -4.1533    0.4791 C   0  0  0  0  0  0  0  0  0  0  0  0
    0.9766   -1.6170    0.5099 H   0  0  0  0  0  0  0  0  0  0  0  0
    0.8167   -3.4439   -1.5599 H   0  0  0  0  0  0  0  0  0  0  0  0
    0.3111   -3.9949    1.4254 H   0  0  0  0  0  0  0  0  0  0  0  0
    0.7518   -5.2144    0.2239 H   0  0  0  0  0  0  0  0  0  0  0  0
    1.9002   -3.9318    0.6502 H   0  0  0  0  0  0  0  0  0  0  0  0
   -1.4222   -4.7065   -1.5696 N   0  0  0  0  0  0  0  0  0  0  0  0
   -2.7440   -5.1906   -1.8931 C   0  0  0  0  0  0  0  0  0  0  0  0
   -0.6264   -5.2227   -1.9329 H   0  0  0  0  0  0  0  0  0  0  0  0
   -3.0729   -5.9031   -1.1223 H   0  0  0  0  0  0  0  0  0  0  0  0
   -3.4450   -4.3438   -1.9326 H   0  0  0  0  0  0  0  0  0  0  0  0
   -2.7210   -5.6934   -2.8712 H   0  0  0  0  0  0  0  0  0  0  0  0
 23 25  2  0  0  0  0
 22 23  1  0  0  0  0
 24 26  1  0  0  0  0
 22 24  2  0  0  0  0
 25 27  1  0  0  0  0
 26 27  2  0  0  0  0
 21 22  1  0  0  0  0
 27 28  1  0  0  0  0
  1  3  1  0  0  0  0
  1  7  1  0  0  0  0
  1  2  2  0  0  0  0
 39 40  1  0  0  0  0
 40 48  1  0  0  0  0
 40 41  2  0  0  0  0
  8  9  1  0  0  0  0
  9 17  1  0  0  0  0
  9 10  2  0  0  0  0
 18 19  1  0  0  0  0
 19 38  1  0  0  0  0
 19 20  2  0  0  0  0
 39 42  1  0  0  0  0
  8 11  1  0  0  0  0
 48 49  1  0  0  0  0
 18 21  1  0  0  0  0
 38 39  1  0  0  0  0
  7  8  1  0  0  0  0
 17 18  1  0  0  0  0
 23 33  1  0  0  0  0
 24 34  1  0  0  0  0
 25 35  1  0  0  0  0
 26 36  1  0  0  0  0
  3  4  1  0  0  0  0
  3  5  1  0  0  0  0
  3  6  1  0  0  0  0
 42 45  1  0  0  0  0
 42 46  1  0  0  0  0
 42 47  1  0  0  0  0
 11 14  1  0  0  0  0
 11 15  1  0  0  0  0
 11 16  1  0  0  0  0
 49 51  1  0  0  0  0
 49 52  1  0  0  0  0
 49 53  1  0  0  0  0
 21 31  1  0  0  0  0
 21 32  1  0  0  0  0
 39 44  1  0  0  0  0
  8 13  1  0  0  0  0
 18 30  1  0  0  0  0
 48 50  1  0  0  0  0
  7 12  1  0  0  0  0
 38 43  1  0  0  0  0
 17 29  1  0  0  0  0
 28 37  1  0  0  0  0
M  END
$$$$

  -OEChem-05262214473D

 53 53  0     1  0  0  0  0  0999 V2000
   -1.9298    0.2574    3.9747 C   0  0  0  0  0  0  0  0  0  0  0  0
   -0.9825   -0.3573    3.4990 O   0  0  0  0  0  0  0  0  0  0  0  0
   -2.3617   -0.0250    5.3754 C   0  0  0  0  0  0  0  0  0  0  0  0
   -3.1214   -0.8213    5.4288 H   0  0  0  0  0  0  0  0  0  0  0  0
   -1.5305   -0.3726    6.0097 H   0  0  0  0  0  0  0  0  0  0  0  0
   -2.7997    0.8299    5.9150 H   0  0  0  0  0  0  0  0  0  0  0  0
   -2.6795    1.2298    3.3336 N   0  0  0  0  0  0  0  0  0  0  0  0
   -2.4327    1.6559    1.9812 C   0  0  2  0  0  0  0  0  0  0  0  0
   -1.0977    1.0705    1.5400 C   0  0  0  0  0  0  0  0  0  0  0  0
   -0.2256    0.7177    2.3313 O   0  0  0  0  0  0  0  0  0  0  0  0
   -2.4239    3.1726    1.8718 C   0  0  0  0  0  0  0  0  0  0  0  0
   -3.4446    1.6657    3.8454 H   0  0  0  0  0  0  0  0  0  0  0  0
   -3.2368    1.2374    1.3661 H   0  0  0  0  0  0  0  0  0  0  0  0
   -1.6248    3.6099    2.4815 H   0  0  0  0  0  0  0  0  0  0  0  0
   -2.2644    3.4949    0.8375 H   0  0  0  0  0  0  0  0  0  0  0  0
   -3.3741    3.5939    2.2175 H   0  0  0  0  0  0  0  0  0  0  0  0
   -0.9750    1.0274    0.1566 N   0  0  0  0  0  0  0  0  0  0  0  0
    0.2023    0.5266   -0.5070 C   0  0  2  0  0  0  0  0  0  0  0  0
   -0.1429   -0.8523   -1.0582 C   0  0  0  0  0  0  0  0  0  0  0  0
   -0.5707   -1.0299   -2.1967 O   0  0  0  0  0  0  0  0  0  0  0  0
    1.4058    0.4367    0.4383 C   0  0  0  0  0  0  0  0  0  0  0  0
    1.8921    1.7907    0.8943 C   0  0  0  0  0  0  0  0  0  0  0  0
    2.7203    2.5494    0.0670 C   0  0  0  0  0  0  0  0  0  0  0  0
    1.5140    2.2831    2.1434 C   0  0  0  0  0  0  0  0  0  0  0  0
    3.1701    3.8005    0.4888 C   0  0  0  0  0  0  0  0  0  0  0  0
    1.9639    3.5342    2.5652 C   0  0  0  0  0  0  0  0  0  0  0  0
    2.7920    4.2929    1.7379 C   0  0  0  0  0  0  0  0  0  0  0  0
    3.2322    5.5132    2.1498 O   0  0  0  0  0  0  0  0  0  0  0  0
   -1.7582    1.3241   -0.4207 H   0  0  0  0  0  0  0  0  0  0  0  0
    0.4031    1.2072   -1.3428 H   0  0  0  0  0  0  0  0  0  0  0  0
    2.2285   -0.1082   -0.0441 H   0  0  0  0  0  0  0  0  0  0  0  0
    1.1514   -0.1547    1.3279 H   0  0  0  0  0  0  0  0  0  0  0  0
    3.0197    2.1736   -0.9077 H   0  0  0  0  0  0  0  0  0  0  0  0
    0.8689    1.6989    2.7946 H   0  0  0  0  0  0  0  0  0  0  0  0
    3.8153    4.3868   -0.1601 H   0  0  0  0  0  0  0  0  0  0  0  0
    1.6662    3.9120    3.5393 H   0  0  0  0  0  0  0  0  0  0  0  0
    2.8861    5.7148    3.0338 H   0  0  0  0  0  0  0  0  0  0  0  0
    0.1314   -1.8606   -0.1446 N   0  0  0  0  0  0  0  0  0  0  0  0
   -0.0822   -3.2627   -0.4223 C   0  0  2  0  0  0  0  0  0  0  0  0
   -1.4958   -3.4246   -0.9655 C   0  0  0  0  0  0  0  0  0  0  0  0
   -2.3920   -2.6096   -0.7567 O   0  0  0  0  0  0  0  0  0  0  0  0
    0.1219   -4.1109    0.8233 C   0  0  0  0  0  0  0  0  0  0  0  0
    0.5008   -1.5999    0.7650 H   0  0  0  0  0  0  0  0  0  0  0  0
    0.6412   -3.5459   -1.1948 H   0  0  0  0  0  0  0  0  0  0  0  0
   -0.5940   -3.8415    1.6085 H   0  0  0  0  0  0  0  0  0  0  0  0
   -0.0123   -5.1754    0.6049 H   0  0  0  0  0  0  0  0  0  0  0  0
    1.1293   -3.9704    1.2297 H   0  0  0  0  0  0  0  0  0  0  0  0
   -1.6501   -4.6075   -1.6747 N   0  0  0  0  0  0  0  0  0  0  0  0
   -2.9030   -4.9967   -2.2787 C   0  0  0  0  0  0  0  0  0  0  0  0
   -0.8479   -5.2148   -1.8142 H   0  0  0  0  0  0  0  0  0  0  0  0
   -3.4712   -5.6225   -1.5748 H   0  0  0  0  0  0  0  0  0  0  0  0
   -3.4870   -4.0972   -2.5232 H   0  0  0  0  0  0  0  0  0  0  0  0
   -2.7051   -5.5666   -3.1985 H   0  0  0  0  0  0  0  0  0  0  0  0
 23 25  2  0  0  0  0
 22 23  1  0  0  0  0
 24 26  1  0  0  0  0
 22 24  2  0  0  0  0
 25 27  1  0  0  0  0
 26 27  2  0  0  0  0
 21 22  1  0  0  0  0
 27 28  1  0  0  0  0
  1  3  1  0  0  0  0
  1  7  1  0  0  0  0
  1  2  2  0  0  0  0
 39 40  1  0  0  0  0
 40 48  1  0  0  0  0
 40 41  2  0  0  0  0
  8  9  1  0  0  0  0
  9 17  1  0  0  0  0
  9 10  2  0  0  0  0
 18 19  1  0  0  0  0
 19 38  1  0  0  0  0
 19 20  2  0  0  0  0
 39 42  1  0  0  0  0
  8 11  1  0  0  0  0
 48 49  1  0  0  0  0
 18 21  1  0  0  0  0
 38 39  1  0  0  0  0
  7  8  1  0  0  0  0
 17 18  1  0  0  0  0
 23 33  1  0  0  0  0
 24 34  1  0  0  0  0
 25 35  1  0  0  0  0
 26 36  1  0  0  0  0
  3  4  1  0  0  0  0
  3  5  1  0  0  0  0
  3  6  1  0  0  0  0
 42 45  1  0  0  0  0
 42 46  1  0  0  0  0
 42 47  1  0  0  0  0
 11 14  1  0  0  0  0
 11 15  1  0  0  0  0
 11 16  1  0  0  0  0
 49 51  1  0  0  0  0
 49 52  1  0  0  0  0
 49 53  1  0  0  0  0
 21 31  1  0  0  0  0
 21 32  1  0  0  0  0
 39 44  1  0  0  0  0
  8 13  1  0  0  0  0
 18 30  1  0  0  0  0
 48 50  1  0  0  0  0
  7 12  1  0  0  0  0
 38 43  1  0  0  0  0
 17 29  1  0  0  0  0
 28 37  1  0  0  0  0
M  END
$$$$

  -OEChem-05262214473D

 53 53  0     1  0  0  0  0  0999 V2000
   -1.9298    0.2574    3.9747 C   0  0  0  0  0  0  0  0  0  0  0  0
   -0.9825   -0.3573    3.4990 O   0  0  0  0  0  0  0  0  0  0  0  0
   -2.3617   -0.0250    5.3754 C   0  0  0  0  0  0  0  0  0  0  0  0
   -3.1214   -0.8213    5.4288 H   0  0  0  0  0  0  0  0  0  0  0  0
   -1.5305   -0.3726    6.0097 H   0  0  0  0  0  0  0  0  0  0  0  0
   -2.7997    0.8299    5.9150 H   0  0  0  0  0  0  0  0  0  0  0  0
   -2.6795    1.2298    3.3336 N   0  0  0  0  0  0  0  0  0  0  0  0
   -2.4327    1.6559    1.9812 C   0  0  2  0  0  0  0  0  0  0  0  0
   -1.0977    1.0705    1.5400 C   0  0  0  0  0  0  0  0  0  0  0  0
   -0.2256    0.7177    2.3313 O   0  0  0  0  0  0  0  0  0  0  0  0
   -2.4239    3.1726    1.8718 C   0  0  0  0  0  0  0  0  0  0  0  0
   -3.4446    1.6657    3.8454 H   0  0  0  0  0  0  0  0  0  0  0  0
   -3.2368    1.2374    1.3661 H   0  0  0  0  0  0  0  0  0  0  0  0
   -1.6248    3.6099    2.4815 H   0  0  0  0  0  0  0  0  0  0  0  0
   -2.2644    3.4949    0.8375 H   0  0  0  0  0  0  0  0  0  0  0  0
   -3.3741    3.5939    2.2175 H   0  0  0  0  0  0  0  0  0  0  0  0
   -0.9750    1.0274    0.1566 N   0  0  0  0  0  0  0  0  0  0  0  0
    0.2023    0.5266   -0.5070 C   0  0  2  0  0  0  0  0  0  0  0  0
   -0.1429   -0.8523   -1.0582 C   0  0  0  0  0  0  0  0  0  0  0  0
   -0.3113   -1.0712   -2.2559 O   0  0  0  0  0  0  0  0  0  0  0  0
    1.4058    0.4367    0.4383 C   0  0  0  0  0  0  0  0  0  0  0  0
    1.8921    1.7907    0.8943 C   0  0  0  0  0  0  0  0  0  0  0  0
    2.7203    2.5494    0.0670 C   0  0  0  0  0  0  0  0  0  0  0  0
    1.5140    2.2831    2.1434 C   0  0  0  0  0  0  0  0  0  0  0  0
    3.1701    3.8005    0.4888 C   0  0  0  0  0  0  0  0  0  0  0  0
    1.9639    3.5342    2.5652 C   0  0  0  0  0  0  0  0  0  0  0  0
    2.7920    4.2929    1.7379 C   0  0  0  0  0  0  0  0  0  0  0  0
    3.2322    5.5132    2.1498 O   0  0  0  0  0  0  0  0  0  0  0  0
   -1.7582    1.3241   -0.4207 H   0  0  0  0  0  0  0  0  0  0  0  0
    0.4031    1.2072   -1.3428 H   0  0  0  0  0  0  0  0  0  0  0  0
    2.2285   -0.1082   -0.0441 H   0  0  0  0  0  0  0  0  0  0  0  0
    1.1514   -0.1547    1.3279 H   0  0  0  0  0  0  0  0  0  0  0  0
    3.0197    2.1736   -0.9077 H   0  0  0  0  0  0  0  0  0  0  0  0
    0.8689    1.6989    2.7946 H   0  0  0  0  0  0  0  0  0  0  0  0
    3.8153    4.3868   -0.1601 H   0  0  0  0  0  0  0  0  0  0  0  0
    1.6662    3.9120    3.5393 H   0  0  0  0  0  0  0  0  0  0  0  0
    2.8861    5.7148    3.0338 H   0  0  0  0  0  0  0  0  0  0  0  0
   -0.1901   -1.8143   -0.0588 N   0  0  0  0  0  0  0  0  0  0  0  0
   -0.4736   -3.2087   -0.3124 C   0  0  2  0  0  0  0  0  0  0  0  0
   -1.7321   -3.2850   -1.1667 C   0  0  0  0  0  0  0  0  0  0  0  0
   -2.5657   -2.3829   -1.2150 O   0  0  0  0  0  0  0  0  0  0  0  0
   -0.6495   -3.9824    0.9849 C   0  0  0  0  0  0  0  0  0  0  0  0
   -0.0168   -1.5238    0.8989 H   0  0  0  0  0  0  0  0  0  0  0  0
    0.3766   -3.6066   -0.8772 H   0  0  0  0  0  0  0  0  0  0  0  0
   -1.4967   -3.5980    1.5645 H   0  0  0  0  0  0  0  0  0  0  0  0
   -0.8358   -5.0440    0.7917 H   0  0  0  0  0  0  0  0  0  0  0  0
    0.2455   -3.9017    1.6113 H   0  0  0  0  0  0  0  0  0  0  0  0
   -1.8363   -4.4967   -1.8352 N   0  0  0  0  0  0  0  0  0  0  0  0
   -2.9482   -4.8171   -2.6997 C   0  0  0  0  0  0  0  0  0  0  0  0
   -1.0889   -5.1794   -1.7518 H   0  0  0  0  0  0  0  0  0  0  0  0
   -3.7238   -5.3407   -2.1216 H   0  0  0  0  0  0  0  0  0  0  0  0
   -3.3663   -3.8896   -3.1180 H   0  0  0  0  0  0  0  0  0  0  0  0
   -2.6012   -5.4647   -3.5183 H   0  0  0  0  0  0  0  0  0  0  0  0
 23 25  2  0  0  0  0
 22 23  1  0  0  0  0
 24 26  1  0  0  0  0
 22 24  2  0  0  0  0
 25 27  1  0  0  0  0
 26 27  2  0  0  0  0
 21 22  1  0  0  0  0
 27 28  1  0  0  0  0
  1  3  1  0  0  0  0
  1  7  1  0  0  0  0
  1  2  2  0  0  0  0
 39 40  1  0  0  0  0
 40 48  1  0  0  0  0
 40 41  2  0  0  0  0
  8  9  1  0  0  0  0
  9 17  1  0  0  0  0
  9 10  2  0  0  0  0
 18 19  1  0  0  0  0
 19 38  1  0  0  0  0
 19 20  2  0  0  0  0
 39 42  1  0  0  0  0
  8 11  1  0  0  0  0
 48 49  1  0  0  0  0
 18 21  1  0  0  0  0
 38 39  1  0  0  0  0
  7  8  1  0  0  0  0
 17 18  1  0  0  0  0
 23 33  1  0  0  0  0
 24 34  1  0  0  0  0
 25 35  1  0  0  0  0
 26 36  1  0  0  0  0
  3  4  1  0  0  0  0
  3  5  1  0  0  0  0
  3  6  1  0  0  0  0
 42 45  1  0  0  0  0
 42 46  1  0  0  0  0
 42 47  1  0  0  0  0
 11 14  1  0  0  0  0
 11 15  1  0  0  0  0
 11 16  1  0  0  0  0
 49 51  1  0  0  0  0
 49 52  1  0  0  0  0
 49 53  1  0  0  0  0
 21 31  1  0  0  0  0
 21 32  1  0  0  0  0
 39 44  1  0  0  0  0
  8 13  1  0  0  0  0
 18 30  1  0  0  0  0
 48 50  1  0  0  0  0
  7 12  1  0  0  0  0
 38 43  1  0  0  0  0
 17 29  1  0  0  0  0
 28 37  1  0  0  0  0
M  END
$$$$

  -OEChem-05262214473D

 53 53  0     1  0  0  0  0  0999 V2000
   -1.9298    0.2574    3.9747 C   0  0  0  0  0  0  0  0  0  0  0  0
   -0.9825   -0.3573    3.4990 O   0  0  0  0  0  0  0  0  0  0  0  0
   -2.3617   -0.0250    5.3754 C   0  0  0  0  0  0  0  0  0  0  0  0
   -3.1214   -0.8213    5.4288 H   0  0  0  0  0  0  0  0  0  0  0  0
   -1.5305   -0.3726    6.0097 H   0  0  0  0  0  0  0  0  0  0  0  0
   -2.7997    0.8299    5.9150 H   0  0  0  0  0  0  0  0  0  0  0  0
   -2.6795    1.2298    3.3336 N   0  0  0  0  0  0  0  0  0  0  0  0
   -2.4327    1.6559    1.9812 C   0  0  2  0  0  0  0  0  0  0  0  0
   -1.0977    1.0705    1.5400 C   0  0  0  0  0  0  0  0  0  0  0  0
   -0.2256    0.7177    2.3313 O   0  0  0  0  0  0  0  0  0  0  0  0
   -2.4239    3.1726    1.8718 C   0  0  0  0  0  0  0  0  0  0  0  0
   -3.4446    1.6657    3.8454 H   0  0  0  0  0  0  0  0  0  0  0  0
   -3.2368    1.2374    1.3661 H   0  0  0  0  0  0  0  0  0  0  0  0
   -1.6248    3.6099    2.4815 H   0  0  0  0  0  0  0  0  0  0  0  0
   -2.2644    3.4949    0.8375 H   0  0  0  0  0  0  0  0  0  0  0  0
   -3.3741    3.5939    2.2175 H   0  0  0  0  0  0  0  0  0  0  0  0
   -0.9750    1.0274    0.1566 N   0  0  0  0  0  0  0  0  0  0  0  0
    0.2023    0.5266   -0.5070 C   0  0  2  0  0  0  0  0  0  0  0  0
   -0.1429   -0.8523   -1.0582 C   0  0  0  0  0  0  0  0  0  0  0  0
   -0.0509   -1.1387   -2.2500 O   0  0  0  0  0  0  0  0  0  0  0  0
    1.4058    0.4367    0.4383 C   0  0  0  0  0  0  0  0  0  0  0  0
    1.8921    1.7907    0.8943 C   0  0  0  0  0  0  0  0  0  0  0  0
    2.7203    2.5494    0.0670 C   0  0  0  0  0  0  0  0  0  0  0  0
    1.5140    2.2831    2.1434 C   0  0  0  0  0  0  0  0  0  0  0  0
    3.1701    3.8005    0.4888 C   0  0  0  0  0  0  0  0  0  0  0  0
    1.9639    3.5342    2.5652 C   0  0  0  0  0  0  0  0  0  0  0  0
    2.7920    4.2929    1.7379 C   0  0  0  0  0  0  0  0  0  0  0  0
    3.2322    5.5132    2.1498 O   0  0  0  0  0  0  0  0  0  0  0  0
   -1.7582    1.3241   -0.4207 H   0  0  0  0  0  0  0  0  0  0  0  0
    0.4031    1.2072   -1.3428 H   0  0  0  0  0  0  0  0  0  0  0  0
    2.2285   -0.1082   -0.0441 H   0  0  0  0  0  0  0  0  0  0  0  0
    1.1514   -0.1547    1.3279 H   0  0  0  0  0  0  0  0  0  0  0  0
    3.0197    2.1736   -0.9077 H   0  0  0  0  0  0  0  0  0  0  0  0
    0.8689    1.6989    2.7946 H   0  0  0  0  0  0  0  0  0  0  0  0
    3.8153    4.3868   -0.1601 H   0  0  0  0  0  0  0  0  0  0  0  0
    1.6662    3.9120    3.5393 H   0  0  0  0  0  0  0  0  0  0  0  0
    2.8861    5.7148    3.0338 H   0  0  0  0  0  0  0  0  0  0  0  0
   -0.5165   -1.7346   -0.0540 N   0  0  0  0  0  0  0  0  0  0  0  0
   -0.8723   -3.1134   -0.3010 C   0  0  2  0  0  0  0  0  0  0  0  0
   -1.9002   -3.1399   -1.4245 C   0  0  0  0  0  0  0  0  0  0  0  0
   -2.6050   -2.1745   -1.7117 O   0  0  0  0  0  0  0  0  0  0  0  0
   -1.4204   -3.7766    0.9529 C   0  0  0  0  0  0  0  0  0  0  0  0
   -0.5411   -1.3941    0.9027 H   0  0  0  0  0  0  0  0  0  0  0  0
    0.0410   -3.6219   -0.6288 H   0  0  0  0  0  0  0  0  0  0  0  0
   -2.3357   -3.2808    1.2964 H   0  0  0  0  0  0  0  0  0  0  0  0
   -1.6628   -4.8290    0.7716 H   0  0  0  0  0  0  0  0  0  0  0  0
   -0.6911   -3.7303    1.7689 H   0  0  0  0  0  0  0  0  0  0  0  0
   -1.9683   -4.3817   -2.0405 N   0  0  0  0  0  0  0  0  0  0  0  0
   -2.8764   -4.6641   -3.1275 C   0  0  0  0  0  0  0  0  0  0  0  0
   -1.3329   -5.1190   -1.7500 H   0  0  0  0  0  0  0  0  0  0  0  0
   -3.8133   -5.0770   -2.7253 H   0  0  0  0  0  0  0  0  0  0  0  0
   -3.0910   -3.7353   -3.6764 H   0  0  0  0  0  0  0  0  0  0  0  0
   -2.4164   -5.3948   -3.8089 H   0  0  0  0  0  0  0  0  0  0  0  0
 23 25  2  0  0  0  0
 22 23  1  0  0  0  0
 24 26  1  0  0  0  0
 22 24  2  0  0  0  0
 25 27  1  0  0  0  0
 26 27  2  0  0  0  0
 21 22  1  0  0  0  0
 27 28  1  0  0  0  0
  1  3  1  0  0  0  0
  1  7  1  0  0  0  0
  1  2  2  0  0  0  0
 39 40  1  0  0  0  0
 40 48  1  0  0  0  0
 40 41  2  0  0  0  0
  8  9  1  0  0  0  0
  9 17  1  0  0  0  0
  9 10  2  0  0  0  0
 18 19  1  0  0  0  0
 19 38  1  0  0  0  0
 19 20  2  0  0  0  0
 39 42  1  0  0  0  0
  8 11  1  0  0  0  0
 48 49  1  0  0  0  0
 18 21  1  0  0  0  0
 38 39  1  0  0  0  0
  7  8  1  0  0  0  0
 17 18  1  0  0  0  0
 23 33  1  0  0  0  0
 24 34  1  0  0  0  0
 25 35  1  0  0  0  0
 26 36  1  0  0  0  0
  3  4  1  0  0  0  0
  3  5  1  0  0  0  0
  3  6  1  0  0  0  0
 42 45  1  0  0  0  0
 42 46  1  0  0  0  0
 42 47  1  0  0  0  0
 11 14  1  0  0  0  0
 11 15  1  0  0  0  0
 11 16  1  0  0  0  0
 49 51  1  0  0  0  0
 49 52  1  0  0  0  0
 49 53  1  0  0  0  0
 21 31  1  0  0  0  0
 21 32  1  0  0  0  0
 39 44  1  0  0  0  0
  8 13  1  0  0  0  0
 18 30  1  0  0  0  0
 48 50  1  0  0  0  0
  7 12  1  0  0  0  0
 38 43  1  0  0  0  0
 17 29  1  0  0  0  0
 28 37  1  0  0  0  0
M  END
$$$$

  -OEChem-05262214473D

 53 53  0     1  0  0  0  0  0999 V2000
   -1.9298    0.2574    3.9747 C   0  0  0  0  0  0  0  0  0  0  0  0
   -0.9825   -0.3573    3.4990 O   0  0  0  0  0  0  0  0  0  0  0  0
   -2.3617   -0.0250    5.3754 C   0  0  0  0  0  0  0  0  0  0  0  0
   -3.1214   -0.8213    5.4288 H   0  0  0  0  0  0  0  0  0  0  0  0
   -1.5305   -0.3726    6.0097 H   0  0  0  0  0  0  0  0  0  0  0  0
   -2.7997    0.8299    5.9150 H   0  0  0  0  0  0  0  0  0  0  0  0
   -2.6795    1.2298    3.3336 N   0  0  0  0  0  0  0  0  0  0  0  0
   -2.4327    1.6559    1.9812 C   0  0  2  0  0  0  0  0  0  0  0  0
   -1.0977    1.0705    1.5400 C   0  0  0  0  0  0  0  0  0  0  0  0
   -0.2256    0.7177    2.3313 O   0  0  0  0  0  0  0  0  0  0  0  0
   -2.4239    3.1726    1.8718 C   0  0  0  0  0  0  0  0  0  0  0  0
   -3.4446    1.6657    3.8454 H   0  0  0  0  0  0  0  0  0  0  0  0
   -3.2368    1.2374    1.3661 H   0  0  0  0  0  0  0  0  0  0  0  0
   -1.6248    3.6099    2.4815 H   0  0  0  0  0  0  0  0  0  0  0  0
   -2.2644    3.4949    0.8375 H   0  0  0  0  0  0  0  0  0  0  0  0
   -3.3741    3.5939    2.2175 H   0  0  0  0  0  0  0  0  0  0  0  0
   -0.9750    1.0274    0.1566 N   0  0  0  0  0  0  0  0  0  0  0  0
    0.2023    0.5266   -0.5070 C   0  0  2  0  0  0  0  0  0  0  0  0
   -0.1429   -0.8523   -1.0582 C   0  0  0  0  0  0  0  0  0  0  0  0
    0.1930   -1.2280   -2.1793 O   0  0  0  0  0  0  0  0  0  0  0  0
    1.4058    0.4367    0.4383 C   0  0  0  0  0  0  0  0  0  0  0  0
    1.8921    1.7907    0.8943 C   0  0  0  0  0  0  0  0  0  0  0  0
    2.7203    2.5494    0.0670 C   0  0  0  0  0  0  0  0  0  0  0  0
    1.5140    2.2831    2.1434 C   0  0  0  0  0  0  0  0  0  0  0  0
    3.1701    3.8005    0.4888 C   0  0  0  0  0  0  0  0  0  0  0  0
    1.9639    3.5342    2.5652 C   0  0  0  0  0  0  0  0  0  0  0  0
    2.7920    4.2929    1.7379 C   0  0  0  0  0  0  0  0  0  0  0  0
    3.2322    5.5132    2.1498 O   0  0  0  0  0  0  0  0  0  0  0  0
   -1.7582    1.3241   -0.4207 H   0  0  0  0  0  0  0  0  0  0  0  0
    0.4031    1.2072   -1.3428 H   0  0  0  0  0  0  0  0  0  0  0  0
    2.2285   -0.1082   -0.0441 H   0  0  0  0  0  0  0  0  0  0  0  0
    1.1514   -0.1547    1.3279 H   0  0  0  0  0  0  0  0  0  0  0  0
    3.0197    2.1736   -0.9077 H   0  0  0  0  0  0  0  0  0  0  0  0
    0.8689    1.6989    2.7946 H   0  0  0  0  0  0  0  0  0  0  0  0
    3.8153    4.3868   -0.1601 H   0  0  0  0  0  0  0  0  0  0  0  0
    1.6662    3.9120    3.5393 H   0  0  0  0  0  0  0  0  0  0  0  0
    2.8861    5.7148    3.0338 H   0  0  0  0  0  0  0  0  0  0  0  0
   -0.8254   -1.6268   -0.1304 N   0  0  0  0  0  0  0  0  0  0  0  0
   -1.2512   -2.9835   -0.3889 C   0  0  2  0  0  0  0  0  0  0  0  0
   -1.9887   -2.9991   -1.7214 C   0  0  0  0  0  0  0  0  0  0  0  0
   -2.5072   -1.9987   -2.2128 O   0  0  0  0  0  0  0  0  0  0  0  0
   -2.1383   -3.5076    0.7295 C   0  0  0  0  0  0  0  0  0  0  0  0
   -1.0363   -1.2195    0.7760 H   0  0  0  0  0  0  0  0  0  0  0  0
   -0.3427   -3.5907   -0.4666 H   0  0  0  0  0  0  0  0  0  0  0  0
   -3.0536   -2.9117    0.8224 H   0  0  0  0  0  0  0  0  0  0  0  0
   -2.4367   -4.5451    0.5461 H   0  0  0  0  0  0  0  0  0  0  0  0
   -1.6167   -3.4679    1.6918 H   0  0  0  0  0  0  0  0  0  0  0  0
   -2.0369   -4.2702   -2.2763 N   0  0  0  0  0  0  0  0  0  0  0  0
   -2.6927   -4.5480   -3.5328 C   0  0  0  0  0  0  0  0  0  0  0  0
   -1.5634   -5.0378   -1.8090 H   0  0  0  0  0  0  0  0  0  0  0  0
   -3.7338   -4.8492   -3.3450 H   0  0  0  0  0  0  0  0  0  0  0  0
   -2.6800   -3.6447   -4.1604 H   0  0  0  0  0  0  0  0  0  0  0  0
   -2.1634   -5.3616   -4.0505 H   0  0  0  0  0  0  0  0  0  0  0  0
 23 25  2  0  0  0  0
 22 23  1  0  0  0  0
 24 26  1  0  0  0  0
 22 24  2  0  0  0  0
 25 27  1  0  0  0  0
 26 27  2  0  0  0  0
 21 22  1  0  0  0  0
 27 28  1  0  0  0  0
  1  3  1  0  0  0  0
  1  7  1  0  0  0  0
  1  2  2  0  0  0  0
 39 40  1  0  0  0  0
 40 48  1  0  0  0  0
 40 41  2  0  0  0  0
  8  9  1  0  0  0  0
  9 17  1  0  0  0  0
  9 10  2  0  0  0  0
 18 19  1  0  0  0  0
 19 38  1  0  0  0  0
 19 20  2  0  0  0  0
 39 42  1  0  0  0  0
  8 11  1  0  0  0  0
 48 49  1  0  0  0  0
 18 21  1  0  0  0  0
 38 39  1  0  0  0  0
  7  8  1  0  0  0  0
 17 18  1  0  0  0  0
 23 33  1  0  0  0  0
 24 34  1  0  0  0  0
 25 35  1  0  0  0  0
 26 36  1  0  0  0  0
  3  4  1  0  0  0  0
  3  5  1  0  0  0  0
  3  6  1  0  0  0  0
 42 45  1  0  0  0  0
 42 46  1  0  0  0  0
 42 47  1  0  0  0  0
 11 14  1  0  0  0  0
 11 15  1  0  0  0  0
 11 16  1  0  0  0  0
 49 51  1  0  0  0  0
 49 52  1  0  0  0  0
 49 53  1  0  0  0  0
 21 31  1  0  0  0  0
 21 32  1  0  0  0  0
 39 44  1  0  0  0  0
  8 13  1  0  0  0  0
 18 30  1  0  0  0  0
 48 50  1  0  0  0  0
  7 12  1  0  0  0  0
 38 43  1  0  0  0  0
 17 29  1  0  0  0  0
 28 37  1  0  0  0  0
M  END
$$$$

  -OEChem-05262214473D

 53 53  0     1  0  0  0  0  0999 V2000
   -1.9298    0.2574    3.9747 C   0  0  0  0  0  0  0  0  0  0  0  0
   -0.9825   -0.3573    3.4990 O   0  0  0  0  0  0  0  0  0  0  0  0
   -2.3617   -0.0250    5.3754 C   0  0  0  0  0  0  0  0  0  0  0  0
   -3.1214   -0.8213    5.4288 H   0  0  0  0  0  0  0  0  0  0  0  0
   -1.5305   -0.3726    6.0097 H   0  0  0  0  0  0  0  0  0  0  0  0
   -2.7997    0.8299    5.9150 H   0  0  0  0  0  0  0  0  0  0  0  0
   -2.6795    1.2298    3.3336 N   0  0  0  0  0  0  0  0  0  0  0  0
   -2.4327    1.6559    1.9812 C   0  0  2  0  0  0  0  0  0  0  0  0
   -1.0977    1.0705    1.5400 C   0  0  0  0  0  0  0  0  0  0  0  0
   -0.2256    0.7177    2.3313 O   0  0  0  0  0  0  0  0  0  0  0  0
   -2.4239    3.1726    1.8718 C   0  0  0  0  0  0  0  0  0  0  0  0
   -3.4446    1.6657    3.8454 H   0  0  0  0  0  0  0  0  0  0  0  0
   -3.2368    1.2374    1.3661 H   0  0  0  0  0  0  0  0  0  0  0  0
   -1.6248    3.6099    2.4815 H   0  0  0  0  0  0  0  0  0  0  0  0
   -2.2644    3.4949    0.8375 H   0  0  0  0  0  0  0  0  0  0  0  0
   -3.3741    3.5939    2.2175 H   0  0  0  0  0  0  0  0  0  0  0  0
   -0.9750    1.0274    0.1566 N   0  0  0  0  0  0  0  0  0  0  0  0
    0.2023    0.5266   -0.5070 C   0  0  2  0  0  0  0  0  0  0  0  0
   -0.1429   -0.8523   -1.0582 C   0  0  0  0  0  0  0  0  0  0  0  0
    0.4037   -1.3330   -2.0487 O   0  0  0  0  0  0  0  0  0  0  0  0
    1.4058    0.4367    0.4383 C   0  0  0  0  0  0  0  0  0  0  0  0
    1.8921    1.7907    0.8943 C   0  0  0  0  0  0  0  0  0  0  0  0
    2.7203    2.5494    0.0670 C   0  0  0  0  0  0  0  0  0  0  0  0
    1.5140    2.2831    2.1434 C   0  0  0  0  0  0  0  0  0  0  0  0
    3.1701    3.8005    0.4888 C   0  0  0  0  0  0  0  0  0  0  0  0
    1.9639    3.5342    2.5652 C   0  0  0  0  0  0  0  0  0  0  0  0
    2.7920    4.2929    1.7379 C   0  0  0  0  0  0  0  0  0  0  0  0
    3.2322    5.5132    2.1498 O   0  0  0  0  0  0  0  0  0  0  0  0
   -1.7582    1.3241   -0.4207 H   0  0  0  0  0  0  0  0  0  0  0  0
    0.4031    1.2072   -1.3428 H   0  0  0  0  0  0  0  0  0  0  0  0
    2.2285   -0.1082   -0.0441 H   0  0  0  0  0  0  0  0  0  0  0  0
    1.1514   -0.1547    1.3279 H   0  0  0  0  0  0  0  0  0  0  0  0
    3.0197    2.1736   -0.9077 H   0  0  0  0  0  0  0  0  0  0  0  0
    0.8689    1.6989    2.7946 H   0  0  0  0  0  0  0  0  0  0  0  0
    3.8153    4.3868   -0.1601 H   0  0  0  0  0  0  0  0  0  0  0  0
    1.6662    3.9120    3.5393 H   0  0  0  0  0  0  0  0  0  0  0  0
    2.8861    5.7148    3.0338 H   0  0  0  0  0  0  0  0  0  0  0  0
   -1.0958   -1.4982   -0.2828 N   0  0  0  0  0  0  0  0  0  0  0  0
   -1.5844   -2.8276   -0.5702 C   0  0  2  0  0  0  0  0  0  0  0  0
   -1.9914   -2.8722   -2.0371 C   0  0  0  0  0  0  0  0  0  0  0  0
   -2.2790   -1.8674   -2.6843 O   0  0  0  0  0  0  0  0  0  0  0  0
   -2.7543   -3.1937    0.3299 C   0  0  0  0  0  0  0  0  0  0  0  0
   -1.4686   -1.0120    0.5274 H   0  0  0  0  0  0  0  0  0  0  0  0
   -0.7485   -3.5151   -0.4015 H   0  0  0  0  0  0  0  0  0  0  0  0
   -3.6015   -2.5157    0.1750 H   0  0  0  0  0  0  0  0  0  0  0  0
   -3.1049   -4.2117    0.1304 H   0  0  0  0  0  0  0  0  0  0  0  0
   -2.4681   -3.1323    1.3854 H   0  0  0  0  0  0  0  0  0  0  0  0
   -2.0376   -4.1700   -2.5267 N   0  0  0  0  0  0  0  0  0  0  0  0
   -2.4094   -4.4769   -3.8882 C   0  0  0  0  0  0  0  0  0  0  0  0
   -1.7647   -4.9412   -1.9246 H   0  0  0  0  0  0  0  0  0  0  0  0
   -3.4907   -4.6730   -3.9382 H   0  0  0  0  0  0  0  0  0  0  0  0
   -2.1612   -3.6240   -4.5370 H   0  0  0  0  0  0  0  0  0  0  0  0
   -1.8594   -5.3674   -4.2265 H   0  0  0  0  0  0  0  0  0  0  0  0
 23 25  2  0  0  0  0
 22 23  1  0  0  0  0
 24 26  1  0  0  0  0
 22 24  2  0  0  0  0
 25 27  1  0  0  0  0
 26 27  2  0  0  0  0
 21 22  1  0  0  0  0
 27 28  1  0  0  0  0
  1  3  1  0  0  0  0
  1  7  1  0  0  0  0
  1  2  2  0  0  0  0
 39 40  1  0  0  0  0
 40 48  1  0  0  0  0
 40 41  2  0  0  0  0
  8  9  1  0  0  0  0
  9 17  1  0  0  0  0
  9 10  2  0  0  0  0
 18 19  1  0  0  0  0
 19 38  1  0  0  0  0
 19 20  2  0  0  0  0
 39 42  1  0  0  0  0
  8 11  1  0  0  0  0
 48 49  1  0  0  0  0
 18 21  1  0  0  0  0
 38 39  1  0  0  0  0
  7  8  1  0  0  0  0
 17 18  1  0  0  0  0
 23 33  1  0  0  0  0
 24 34  1  0  0  0  0
 25 35  1  0  0  0  0
 26 36  1  0  0  0  0
  3  4  1  0  0  0  0
  3  5  1  0  0  0  0
  3  6  1  0  0  0  0
 42 45  1  0  0  0  0
 42 46  1  0  0  0  0
 42 47  1  0  0  0  0
 11 14  1  0  0  0  0
 11 15  1  0  0  0  0
 11 16  1  0  0  0  0
 49 51  1  0  0  0  0
 49 52  1  0  0  0  0
 49 53  1  0  0  0  0
 21 31  1  0  0  0  0
 21 32  1  0  0  0  0
 39 44  1  0  0  0  0
  8 13  1  0  0  0  0
 18 30  1  0  0  0  0
 48 50  1  0  0  0  0
  7 12  1  0  0  0  0
 38 43  1  0  0  0  0
 17 29  1  0  0  0  0
 28 37  1  0  0  0  0
M  END
$$$$

  -OEChem-05262214473D

 53 53  0     1  0  0  0  0  0999 V2000
   -1.9298    0.2574    3.9747 C   0  0  0  0  0  0  0  0  0  0  0  0
   -0.9825   -0.3573    3.4990 O   0  0  0  0  0  0  0  0  0  0  0  0
   -2.3617   -0.0250    5.3754 C   0  0  0  0  0  0  0  0  0  0  0  0
   -3.1214   -0.8213    5.4288 H   0  0  0  0  0  0  0  0  0  0  0  0
   -1.5305   -0.3726    6.0097 H   0  0  0  0  0  0  0  0  0  0  0  0
   -2.7997    0.8299    5.9150 H   0  0  0  0  0  0  0  0  0  0  0  0
   -2.6795    1.2298    3.3336 N   0  0  0  0  0  0  0  0  0  0  0  0
   -2.4327    1.6559    1.9812 C   0  0  2  0  0  0  0  0  0  0  0  0
   -1.0977    1.0705    1.5400 C   0  0  0  0  0  0  0  0  0  0  0  0
   -0.2256    0.7177    2.3313 O   0  0  0  0  0  0  0  0  0  0  0  0
   -2.4239    3.1726    1.8718 C   0  0  0  0  0  0  0  0  0  0  0  0
   -3.4446    1.6657    3.8454 H   0  0  0  0  0  0  0  0  0  0  0  0
   -3.2368    1.2374    1.3661 H   0  0  0  0  0  0  0  0  0  0  0  0
   -1.6248    3.6099    2.4815 H   0  0  0  0  0  0  0  0  0  0  0  0
   -2.2644    3.4949    0.8375 H   0  0  0  0  0  0  0  0  0  0  0  0
   -3.3741    3.5939    2.2175 H   0  0  0  0  0  0  0  0  0  0  0  0
   -0.9750    1.0274    0.1566 N   0  0  0  0  0  0  0  0  0  0  0  0
    0.2023    0.5266   -0.5070 C   0  0  2  0  0  0  0  0  0  0  0  0
   -0.1429   -0.8523   -1.0582 C   0  0  0  0  0  0  0  0  0  0  0  0
    0.5668   -1.4464   -1.8671 O   0  0  0  0  0  0  0  0  0  0  0  0
    1.4058    0.4367    0.4383 C   0  0  0  0  0  0  0  0  0  0  0  0
    1.8921    1.7907    0.8943 C   0  0  0  0  0  0  0  0  0  0  0  0
    2.7203    2.5494    0.0670 C   0  0  0  0  0  0  0  0  0  0  0  0
    1.5140    2.2831    2.1434 C   0  0  0  0  0  0  0  0  0  0  0  0
    3.1701    3.8005    0.4888 C   0  0  0  0  0  0  0  0  0  0  0  0
    1.9639    3.5342    2.5652 C   0  0  0  0  0  0  0  0  0  0  0  0
    2.7920    4.2929    1.7379 C   0  0  0  0  0  0  0  0  0  0  0  0
    3.2322    5.5132    2.1498 O   0  0  0  0  0  0  0  0  0  0  0  0
   -1.7582    1.3241   -0.4207 H   0  0  0  0  0  0  0  0  0  0  0  0
    0.4031    1.2072   -1.3428 H   0  0  0  0  0  0  0  0  0  0  0  0
    2.2285   -0.1082   -0.0441 H   0  0  0  0  0  0  0  0  0  0  0  0
    1.1514   -0.1547    1.3279 H   0  0  0  0  0  0  0  0  0  0  0  0
    3.0197    2.1736   -0.9077 H   0  0  0  0  0  0  0  0  0  0  0  0
    0.8689    1.6989    2.7946 H   0  0  0  0  0  0  0  0  0  0  0  0
    3.8153    4.3868   -0.1601 H   0  0  0  0  0  0  0  0  0  0  0  0
    1.6662    3.9120    3.5393 H   0  0  0  0  0  0  0  0  0  0  0  0
    2.8861    5.7148    3.0338 H   0  0  0  0  0  0  0  0  0  0  0  0
   -1.3093   -1.3576   -0.5009 N   0  0  0  0  0  0  0  0  0  0  0  0
   -1.8493   -2.6565   -0.8324 C   0  0  2  0  0  0  0  0  0  0  0  0
   -1.9083   -2.7678   -2.3502 C   0  0  0  0  0  0  0  0  0  0  0  0
   -1.9358   -1.7895   -3.0939 O   0  0  0  0  0  0  0  0  0  0  0  0
   -3.2263   -2.8563   -0.2188 C   0  0  0  0  0  0  0  0  0  0  0  0
   -1.8085   -0.7856    0.1740 H   0  0  0  0  0  0  0  0  0  0  0  0
   -1.1485   -3.4004   -0.4380 H   0  0  0  0  0  0  0  0  0  0  0  0
   -3.9422   -2.1199   -0.6019 H   0  0  0  0  0  0  0  0  0  0  0  0
   -3.6219   -3.8515   -0.4470 H   0  0  0  0  0  0  0  0  0  0  0  0
   -3.1874   -2.7464    0.8704 H   0  0  0  0  0  0  0  0  0  0  0  0
   -1.9703   -4.0877   -2.7746 N   0  0  0  0  0  0  0  0  0  0  0  0
   -2.0460   -4.4555   -4.1693 C   0  0  0  0  0  0  0  0  0  0  0  0
   -1.9229   -4.8358   -2.0891 H   0  0  0  0  0  0  0  0  0  0  0  0
   -3.1004   -4.5602   -4.4646 H   0  0  0  0  0  0  0  0  0  0  0  0
   -1.5699   -3.6747   -4.7806 H   0  0  0  0  0  0  0  0  0  0  0  0
   -1.5250   -5.4117   -4.3250 H   0  0  0  0  0  0  0  0  0  0  0  0
 23 25  2  0  0  0  0
 22 23  1  0  0  0  0
 24 26  1  0  0  0  0
 22 24  2  0  0  0  0
 25 27  1  0  0  0  0
 26 27  2  0  0  0  0
 21 22  1  0  0  0  0
 27 28  1  0  0  0  0
  1  3  1  0  0  0  0
  1  7  1  0  0  0  0
  1  2  2  0  0  0  0
 39 40  1  0  0  0  0
 40 48  1  0  0  0  0
 40 41  2  0  0  0  0
  8  9  1  0  0  0  0
  9 17  1  0  0  0  0
  9 10  2  0  0  0  0
 18 19  1  0  0  0  0
 19 38  1  0  0  0  0
 19 20  2  0  0  0  0
 39 42  1  0  0  0  0
  8 11  1  0  0  0  0
 48 49  1  0  0  0  0
 18 21  1  0  0  0  0
 38 39  1  0  0  0  0
  7  8  1  0  0  0  0
 17 18  1  0  0  0  0
 23 33  1  0  0  0  0
 24 34  1  0  0  0  0
 25 35  1  0  0  0  0
 26 36  1  0  0  0  0
  3  4  1  0  0  0  0
  3  5  1  0  0  0  0
  3  6  1  0  0  0  0
 42 45  1  0  0  0  0
 42 46  1  0  0  0  0
 42 47  1  0  0  0  0
 11 14  1  0  0  0  0
 11 15  1  0  0  0  0
 11 16  1  0  0  0  0
 49 51  1  0  0  0  0
 49 52  1  0  0  0  0
 49 53  1  0  0  0  0
 21 31  1  0  0  0  0
 21 32  1  0  0  0  0
 39 44  1  0  0  0  0
  8 13  1  0  0  0  0
 18 30  1  0  0  0  0
 48 50  1  0  0  0  0
  7 12  1  0  0  0  0
 38 43  1  0  0  0  0
 17 29  1  0  0  0  0
 28 37  1  0  0  0  0
M  END
$$$$

  -OEChem-05262214473D

 53 53  0     1  0  0  0  0  0999 V2000
   -1.9298    0.2574    3.9747 C   0  0  0  0  0  0  0  0  0  0  0  0
   -0.9825   -0.3573    3.4990 O   0  0  0  0  0  0  0  0  0  0  0  0
   -2.3617   -0.0250    5.3754 C   0  0  0  0  0  0  0  0  0  0  0  0
   -3.1214   -0.8213    5.4288 H   0  0  0  0  0  0  0  0  0  0  0  0
   -1.5305   -0.3726    6.0097 H   0  0  0  0  0  0  0  0  0  0  0  0
   -2.7997    0.8299    5.9150 H   0  0  0  0  0  0  0  0  0  0  0  0
   -2.6795    1.2298    3.3336 N   0  0  0  0  0  0  0  0  0  0  0  0
   -2.4327    1.6559    1.9812 C   0  0  2  0  0  0  0  0  0  0  0  0
   -1.0977    1.0705    1.5400 C   0  0  0  0  0  0  0  0  0  0  0  0
   -0.2256    0.7177    2.3313 O   0  0  0  0  0  0  0  0  0  0  0  0
   -2.4239    3.1726    1.8718 C   0  0  0  0  0  0  0  0  0  0  0  0
   -3.4446    1.6657    3.8454 H   0  0  0  0  0  0  0  0  0  0  0  0
   -3.2368    1.2374    1.3661 H   0  0  0  0  0  0  0  0  0  0  0  0
   -1.6248    3.6099    2.4815 H   0  0  0  0  0  0  0  0  0  0  0  0
   -2.2644    3.4949    0.8375 H   0  0  0  0  0  0  0  0  0  0  0  0
   -3.3741    3.5939    2.2175 H   0  0  0  0  0  0  0  0  0  0  0  0
   -0.9750    1.0274    0.1566 N   0  0  0  0  0  0  0  0  0  0  0  0
    0.2023    0.5266   -0.5070 C   0  0  2  0  0  0  0  0  0  0  0  0
   -0.1429   -0.8523   -1.0582 C   0  0  0  0  0  0  0  0  0  0  0  0
    0.6712   -1.5606   -1.6468 O   0  0  0  0  0  0  0  0  0  0  0  0
    1.4058    0.4367    0.4383 C   0  0  0  0  0  0  0  0  0  0  0  0
    1.8921    1.7907    0.8943 C   0  0  0  0  0  0  0  0  0  0  0  0
    2.7203    2.5494    0.0670 C   0  0  0  0  0  0  0  0  0  0  0  0
    1.5140    2.2831    2.1434 C   0  0  0  0  0  0  0  0  0  0  0  0
    3.1701    3.8005    0.4888 C   0  0  0  0  0  0  0  0  0  0  0  0
    1.9639    3.5342    2.5652 C   0  0  0  0  0  0  0  0  0  0  0  0
    2.7920    4.2929    1.7379 C   0  0  0  0  0  0  0  0  0  0  0  0
    3.2322    5.5132    2.1498 O   0  0  0  0  0  0  0  0  0  0  0  0
   -1.7582    1.3241   -0.4207 H   0  0  0  0  0  0  0  0  0  0  0  0
    0.4031    1.2072   -1.3428 H   0  0  0  0  0  0  0  0  0  0  0  0
    2.2285   -0.1082   -0.0441 H   0  0  0  0  0  0  0  0  0  0  0  0
    1.1514   -0.1547    1.3279 H   0  0  0  0  0  0  0  0  0  0  0  0
    3.0197    2.1736   -0.9077 H   0  0  0  0  0  0  0  0  0  0  0  0
    0.8689    1.6989    2.7946 H   0  0  0  0  0  0  0  0  0  0  0  0
    3.8153    4.3868   -0.1601 H   0  0  0  0  0  0  0  0  0  0  0  0
    1.6662    3.9120    3.5393 H   0  0  0  0  0  0  0  0  0  0  0  0
    2.8861    5.7148    3.0338 H   0  0  0  0  0  0  0  0  0  0  0  0
   -1.4513   -1.2146   -0.7697 N   0  0  0  0  0  0  0  0  0  0  0  0
   -2.0278   -2.4818   -1.1577 C   0  0  2  0  0  0  0  0  0  0  0  0
   -1.7450   -2.6932   -2.6392 C   0  0  0  0  0  0  0  0  0  0  0  0
   -1.5012   -1.7704   -3.4139 O   0  0  0  0  0  0  0  0  0  0  0  0
   -3.5223   -2.5183   -0.8789 C   0  0  0  0  0  0  0  0  0  0  0  0
   -2.0330   -0.5559   -0.2602 H   0  0  0  0  0  0  0  0  0  0  0  0
   -1.5156   -3.2543   -0.5737 H   0  0  0  0  0  0  0  0  0  0  0  0
   -4.0524   -1.7513   -1.4553 H   0  0  0  0  0  0  0  0  0  0  0  0
   -3.9523   -3.4891   -1.1469 H   0  0  0  0  0  0  0  0  0  0  0  0
   -3.7255   -2.3365    0.1819 H   0  0  0  0  0  0  0  0  0  0  0  0
   -1.8395   -4.0291   -3.0031 N   0  0  0  0  0  0  0  0  0  0  0  0
   -1.6272   -4.4853   -4.3569 C   0  0  0  0  0  0  0  0  0  0  0  0
   -2.0275   -4.7289   -2.2912 H   0  0  0  0  0  0  0  0  0  0  0  0
   -2.5897   -4.5187   -4.8884 H   0  0  0  0  0  0  0  0  0  0  0  0
   -0.9466   -3.7932   -4.8744 H   0  0  0  0  0  0  0  0  0  0  0  0
   -1.1831   -5.4915   -4.3393 H   0  0  0  0  0  0  0  0  0  0  0  0
 23 25  2  0  0  0  0
 22 23  1  0  0  0  0
 24 26  1  0  0  0  0
 22 24  2  0  0  0  0
 25 27  1  0  0  0  0
 26 27  2  0  0  0  0
 21 22  1  0  0  0  0
 27 28  1  0  0  0  0
  1  3  1  0  0  0  0
  1  7  1  0  0  0  0
  1  2  2  0  0  0  0
 39 40  1  0  0  0  0
 40 48  1  0  0  0  0
 40 41  2  0  0  0  0
  8  9  1  0  0  0  0
  9 17  1  0  0  0  0
  9 10  2  0  0  0  0
 18 19  1  0  0  0  0
 19 38  1  0  0  0  0
 19 20  2  0  0  0  0
 39 42  1  0  0  0  0
  8 11  1  0  0  0  0
 48 49  1  0  0  0  0
 18 21  1  0  0  0  0
 38 39  1  0  0  0  0
  7  8  1  0  0  0  0
 17 18  1  0  0  0  0
 23 33  1  0  0  0  0
 24 34  1  0  0  0  0
 25 35  1  0  0  0  0
 26 36  1  0  0  0  0
  3  4  1  0  0  0  0
  3  5  1  0  0  0  0
  3  6  1  0  0  0  0
 42 45  1  0  0  0  0
 42 46  1  0  0  0  0
 42 47  1  0  0  0  0
 11 14  1  0  0  0  0
 11 15  1  0  0  0  0
 11 16  1  0  0  0  0
 49 51  1  0  0  0  0
 49 52  1  0  0  0  0
 49 53  1  0  0  0  0
 21 31  1  0  0  0  0
 21 32  1  0  0  0  0
 39 44  1  0  0  0  0
  8 13  1  0  0  0  0
 18 30  1  0  0  0  0
 48 50  1  0  0  0  0
  7 12  1  0  0  0  0
 38 43  1  0  0  0  0
 17 29  1  0  0  0  0
 28 37  1  0  0  0  0
M  END
$$$$

  -OEChem-05262214473D

 53 53  0     1  0  0  0  0  0999 V2000
   -1.9298    0.2574    3.9747 C   0  0  0  0  0  0  0  0  0  0  0  0
   -0.9825   -0.3573    3.4990 O   0  0  0  0  0  0  0  0  0  0  0  0
   -2.3617   -0.0250    5.3754 C   0  0  0  0  0  0  0  0  0  0  0  0
   -3.1214   -0.8213    5.4288 H   0  0  0  0  0  0  0  0  0  0  0  0
   -1.5305   -0.3726    6.0097 H   0  0  0  0  0  0  0  0  0  0  0  0
   -2.7997    0.8299    5.9150 H   0  0  0  0  0  0  0  0  0  0  0  0
   -2.6795    1.2298    3.3336 N   0  0  0  0  0  0  0  0  0  0  0  0
   -2.4327    1.6559    1.9812 C   0  0  2  0  0  0  0  0  0  0  0  0
   -1.0977    1.0705    1.5400 C   0  0  0  0  0  0  0  0  0  0  0  0
   -0.2256    0.7177    2.3313 O   0  0  0  0  0  0  0  0  0  0  0  0
   -2.4239    3.1726    1.8718 C   0  0  0  0  0  0  0  0  0  0  0  0
   -3.4446    1.6657    3.8454 H   0  0  0  0  0  0  0  0  0  0  0  0
   -3.2368    1.2374    1.3661 H   0  0  0  0  0  0  0  0  0  0  0  0
   -1.6248    3.6099    2.4815 H   0  0  0  0  0  0  0  0  0  0  0  0
   -2.2644    3.4949    0.8375 H   0  0  0  0  0  0  0  0  0  0  0  0
   -3.3741    3.5939    2.2175 H   0  0  0  0  0  0  0  0  0  0  0  0
   -0.9750    1.0274    0.1566 N   0  0  0  0  0  0  0  0  0  0  0  0
    0.2023    0.5266   -0.5070 C   0  0  2  0  0  0  0  0  0  0  0  0
   -0.1429   -0.8523   -1.0582 C   0  0  0  0  0  0  0  0  0  0  0  0
    0.7099   -1.6677   -1.4029 O   0  0  0  0  0  0  0  0  0  0  0  0
    1.4058    0.4367    0.4383 C   0  0  0  0  0  0  0  0  0  0  0  0
    1.8921    1.7907    0.8943 C   0  0  0  0  0  0  0  0  0  0  0  0
    2.7203    2.5494    0.0670 C   0  0  0  0  0  0  0  0  0  0  0  0
    1.5140    2.2831    2.1434 C   0  0  0  0  0  0  0  0  0  0  0  0
    3.1701    3.8005    0.4888 C   0  0  0  0  0  0  0  0  0  0  0  0
    1.9639    3.5342    2.5652 C   0  0  0  0  0  0  0  0  0  0  0  0
    2.7920    4.2929    1.7379 C   0  0  0  0  0  0  0  0  0  0  0  0
    3.2322    5.5132    2.1498 O   0  0  0  0  0  0  0  0  0  0  0  0
   -1.7582    1.3241   -0.4207 H   0  0  0  0  0  0  0  0  0  0  0  0
    0.4031    1.2072   -1.3428 H   0  0  0  0  0  0  0  0  0  0  0  0
    2.2285   -0.1082   -0.0441 H   0  0  0  0  0  0  0  0  0  0  0  0
    1.1514   -0.1547    1.3279 H   0  0  0  0  0  0  0  0  0  0  0  0
    3.0197    2.1736   -0.9077 H   0  0  0  0  0  0  0  0  0  0  0  0
    0.8689    1.6989    2.7946 H   0  0  0  0  0  0  0  0  0  0  0  0
    3.8153    4.3868   -0.1601 H   0  0  0  0  0  0  0  0  0  0  0  0
    1.6662    3.9120    3.5393 H   0  0  0  0  0  0  0  0  0  0  0  0
    2.8861    5.7148    3.0338 H   0  0  0  0  0  0  0  0  0  0  0  0
   -1.5121   -1.0789   -1.0710 N   0  0  0  0  0  0  0  0  0  0  0  0
   -2.1077   -2.3154   -1.5239 C   0  0  2  0  0  0  0  0  0  0  0  0
   -1.5126   -2.6533   -2.8845 C   0  0  0  0  0  0  0  0  0  0  0  0
   -1.0047   -1.8114   -3.6223 O   0  0  0  0  0  0  0  0  0  0  0  0
   -3.6220   -2.2029   -1.6057 C   0  0  0  0  0  0  0  0  0  0  0  0
   -2.1266   -0.3384   -0.7456 H   0  0  0  0  0  0  0  0  0  0  0  0
   -1.8248   -3.0867   -0.7993 H   0  0  0  0  0  0  0  0  0  0  0  0
   -3.9245   -1.4349   -2.3270 H   0  0  0  0  0  0  0  0  0  0  0  0
   -4.0737   -3.1490   -1.9216 H   0  0  0  0  0  0  0  0  0  0  0  0
   -4.0457   -1.9306   -0.6330 H   0  0  0  0  0  0  0  0  0  0  0  0
   -1.6542   -3.9982   -3.1967 N   0  0  0  0  0  0  0  0  0  0  0  0
   -1.1814   -4.5643   -4.4385 C   0  0  0  0  0  0  0  0  0  0  0  0
   -2.0711   -4.6276   -2.5172 H   0  0  0  0  0  0  0  0  0  0  0  0
   -1.9933   -4.5512   -5.1806 H   0  0  0  0  0  0  0  0  0  0  0  0
   -0.3336   -3.9715   -4.8122 H   0  0  0  0  0  0  0  0  0  0  0  0
   -0.8570   -5.6015   -4.2684 H   0  0  0  0  0  0  0  0  0  0  0  0
 23 25  2  0  0  0  0
 22 23  1  0  0  0  0
 24 26  1  0  0  0  0
 22 24  2  0  0  0  0
 25 27  1  0  0  0  0
 26 27  2  0  0  0  0
 21 22  1  0  0  0  0
 27 28  1  0  0  0  0
  1  3  1  0  0  0  0
  1  7  1  0  0  0  0
  1  2  2  0  0  0  0
 39 40  1  0  0  0  0
 40 48  1  0  0  0  0
 40 41  2  0  0  0  0
  8  9  1  0  0  0  0
  9 17  1  0  0  0  0
  9 10  2  0  0  0  0
 18 19  1  0  0  0  0
 19 38  1  0  0  0  0
 19 20  2  0  0  0  0
 39 42  1  0  0  0  0
  8 11  1  0  0  0  0
 48 49  1  0  0  0  0
 18 21  1  0  0  0  0
 38 39  1  0  0  0  0
  7  8  1  0  0  0  0
 17 18  1  0  0  0  0
 23 33  1  0  0  0  0
 24 34  1  0  0  0  0
 25 35  1  0  0  0  0
 26 36  1  0  0  0  0
  3  4  1  0  0  0  0
  3  5  1  0  0  0  0
  3  6  1  0  0  0  0
 42 45  1  0  0  0  0
 42 46  1  0  0  0  0
 42 47  1  0  0  0  0
 11 14  1  0  0  0  0
 11 15  1  0  0  0  0
 11 16  1  0  0  0  0
 49 51  1  0  0  0  0
 49 52  1  0  0  0  0
 49 53  1  0  0  0  0
 21 31  1  0  0  0  0
 21 32  1  0  0  0  0
 39 44  1  0  0  0  0
  8 13  1  0  0  0  0
 18 30  1  0  0  0  0
 48 50  1  0  0  0  0
  7 12  1  0  0  0  0
 38 43  1  0  0  0  0
 17 29  1  0  0  0  0
 28 37  1  0  0  0  0
M  END
$$$$

  -OEChem-05262214473D

 53 53  0     1  0  0  0  0  0999 V2000
   -1.9298    0.2574    3.9747 C   0  0  0  0  0  0  0  0  0  0  0  0
   -0.9825   -0.3573    3.4990 O   0  0  0  0  0  0  0  0  0  0  0  0
   -2.3617   -0.0250    5.3754 C   0  0  0  0  0  0  0  0  0  0  0  0
   -3.1214   -0.8213    5.4288 H   0  0  0  0  0  0  0  0  0  0  0  0
   -1.5305   -0.3726    6.0097 H   0  0  0  0  0  0  0  0  0  0  0  0
   -2.7997    0.8299    5.9150 H   0  0  0  0  0  0  0  0  0  0  0  0
   -2.6795    1.2298    3.3336 N   0  0  0  0  0  0  0  0  0  0  0  0
   -2.4327    1.6559    1.9812 C   0  0  2  0  0  0  0  0  0  0  0  0
   -1.0977    1.0705    1.5400 C   0  0  0  0  0  0  0  0  0  0  0  0
   -0.2256    0.7177    2.3313 O   0  0  0  0  0  0  0  0  0  0  0  0
   -2.4239    3.1726    1.8718 C   0  0  0  0  0  0  0  0  0  0  0  0
   -3.4446    1.6657    3.8454 H   0  0  0  0  0  0  0  0  0  0  0  0
   -3.2368    1.2374    1.3661 H   0  0  0  0  0  0  0  0  0  0  0  0
   -1.6248    3.6099    2.4815 H   0  0  0  0  0  0  0  0  0  0  0  0
   -2.2644    3.4949    0.8375 H   0  0  0  0  0  0  0  0  0  0  0  0
   -3.3741    3.5939    2.2175 H   0  0  0  0  0  0  0  0  0  0  0  0
   -0.9750    1.0274    0.1566 N   0  0  0  0  0  0  0  0  0  0  0  0
    0.2023    0.5266   -0.5070 C   0  0  2  0  0  0  0  0  0  0  0  0
   -0.1429   -0.8523   -1.0582 C   0  0  0  0  0  0  0  0  0  0  0  0
    0.6800   -1.7605   -1.1520 O   0  0  0  0  0  0  0  0  0  0  0  0
    1.4058    0.4367    0.4383 C   0  0  0  0  0  0  0  0  0  0  0  0
    1.8921    1.7907    0.8943 C   0  0  0  0  0  0  0  0  0  0  0  0
    2.7203    2.5494    0.0670 C   0  0  0  0  0  0  0  0  0  0  0  0
    1.5140    2.2831    2.1434 C   0  0  0  0  0  0  0  0  0  0  0  0
    3.1701    3.8005    0.4888 C   0  0  0  0  0  0  0  0  0  0  0  0
    1.9639    3.5342    2.5652 C   0  0  0  0  0  0  0  0  0  0  0  0
    2.7920    4.2929    1.7379 C   0  0  0  0  0  0  0  0  0  0  0  0
    3.2322    5.5132    2.1498 O   0  0  0  0  0  0  0  0  0  0  0  0
   -1.7582    1.3241   -0.4207 H   0  0  0  0  0  0  0  0  0  0  0  0
    0.4031    1.2072   -1.3428 H   0  0  0  0  0  0  0  0  0  0  0  0
    2.2285   -0.1082   -0.0441 H   0  0  0  0  0  0  0  0  0  0  0  0
    1.1514   -0.1547    1.3279 H   0  0  0  0  0  0  0  0  0  0  0  0
    3.0197    2.1736   -0.9077 H   0  0  0  0  0  0  0  0  0  0  0  0
    0.8689    1.6989    2.7946 H   0  0  0  0  0  0  0  0  0  0  0  0
    3.8153    4.3868   -0.1601 H   0  0  0  0  0  0  0  0  0  0  0  0
    1.6662    3.9120    3.5393 H   0  0  0  0  0  0  0  0  0  0  0  0
    2.8861    5.7148    3.0338 H   0  0  0  0  0  0  0  0  0  0  0  0
   -1.4877   -0.9598   -1.3842 N   0  0  0  0  0  0  0  0  0  0  0  0
   -2.0835   -2.1687   -1.9061 C   0  0  2  0  0  0  0  0  0  0  0  0
   -1.2270   -2.6509   -3.0695 C   0  0  0  0  0  0  0  0  0  0  0  0
   -0.4802   -1.9096   -3.7050 O   0  0  0  0  0  0  0  0  0  0  0  0
   -3.5187   -1.9314   -2.3496 C   0  0  0  0  0  0  0  0  0  0  0  0
   -2.0831   -0.1480   -1.2492 H   0  0  0  0  0  0  0  0  0  0  0  0
   -2.0550   -2.9092   -1.0993 H   0  0  0  0  0  0  0  0  0  0  0  0
   -3.5674   -1.1923   -3.1575 H   0  0  0  0  0  0  0  0  0  0  0  0
   -3.9779   -2.8546   -2.7182 H   0  0  0  0  0  0  0  0  0  0  0  0
   -4.1263   -1.5563   -1.5190 H   0  0  0  0  0  0  0  0  0  0  0  0
   -1.4270   -3.9969   -3.3420 N   0  0  0  0  0  0  0  0  0  0  0  0
   -0.7392   -4.6870   -4.4082 C   0  0  0  0  0  0  0  0  0  0  0  0
   -2.0509   -4.5390   -2.7516 H   0  0  0  0  0  0  0  0  0  0  0  0
   -1.3519   -4.6555   -5.3213 H   0  0  0  0  0  0  0  0  0  0  0  0
    0.2273   -4.1974   -4.5982 H   0  0  0  0  0  0  0  0  0  0  0  0
   -0.5689   -5.7341   -4.1171 H   0  0  0  0  0  0  0  0  0  0  0  0
 23 25  2  0  0  0  0
 22 23  1  0  0  0  0
 24 26  1  0  0  0  0
 22 24  2  0  0  0  0
 25 27  1  0  0  0  0
 26 27  2  0  0  0  0
 21 22  1  0  0  0  0
 27 28  1  0  0  0  0
  1  3  1  0  0  0  0
  1  7  1  0  0  0  0
  1  2  2  0  0  0  0
 39 40  1  0  0  0  0
 40 48  1  0  0  0  0
 40 41  2  0  0  0  0
  8  9  1  0  0  0  0
  9 17  1  0  0  0  0
  9 10  2  0  0  0  0
 18 19  1  0  0  0  0
 19 38  1  0  0  0  0
 19 20  2  0  0  0  0
 39 42  1  0  0  0  0
  8 11  1  0  0  0  0
 48 49  1  0  0  0  0
 18 21  1  0  0  0  0
 38 39  1  0  0  0  0
  7  8  1  0  0  0  0
 17 18  1  0  0  0  0
 23 33  1  0  0  0  0
 24 34  1  0  0  0  0
 25 35  1  0  0  0  0
 26 36  1  0  0  0  0
  3  4  1  0  0  0  0
  3  5  1  0  0  0  0
  3  6  1  0  0  0  0
 42 45  1  0  0  0  0
 42 46  1  0  0  0  0
 42 47  1  0  0  0  0
 11 14  1  0  0  0  0
 11 15  1  0  0  0  0
 11 16  1  0  0  0  0
 49 51  1  0  0  0  0
 49 52  1  0  0  0  0
 49 53  1  0  0  0  0
 21 31  1  0  0  0  0
 21 32  1  0  0  0  0
 39 44  1  0  0  0  0
  8 13  1  0  0  0  0
 18 30  1  0  0  0  0
 48 50  1  0  0  0  0
  7 12  1  0  0  0  0
 38 43  1  0  0  0  0
 17 29  1  0  0  0  0
 28 37  1  0  0  0  0
M  END
$$$$

  -OEChem-05262214473D

 53 53  0     1  0  0  0  0  0999 V2000
   -1.9298    0.2574    3.9747 C   0  0  0  0  0  0  0  0  0  0  0  0
   -0.9825   -0.3573    3.4990 O   0  0  0  0  0  0  0  0  0  0  0  0
   -2.3617   -0.0250    5.3754 C   0  0  0  0  0  0  0  0  0  0  0  0
   -3.1214   -0.8213    5.4288 H   0  0  0  0  0  0  0  0  0  0  0  0
   -1.5305   -0.3726    6.0097 H   0  0  0  0  0  0  0  0  0  0  0  0
   -2.7997    0.8299    5.9150 H   0  0  0  0  0  0  0  0  0  0  0  0
   -2.6795    1.2298    3.3336 N   0  0  0  0  0  0  0  0  0  0  0  0
   -2.4327    1.6559    1.9812 C   0  0  2  0  0  0  0  0  0  0  0  0
   -1.0977    1.0705    1.5400 C   0  0  0  0  0  0  0  0  0  0  0  0
   -0.2256    0.7177    2.3313 O   0  0  0  0  0  0  0  0  0  0  0  0
   -2.4239    3.1726    1.8718 C   0  0  0  0  0  0  0  0  0  0  0  0
   -3.4446    1.6657    3.8454 H   0  0  0  0  0  0  0  0  0  0  0  0
   -3.2368    1.2374    1.3661 H   0  0  0  0  0  0  0  0  0  0  0  0
   -1.6248    3.6099    2.4815 H   0  0  0  0  0  0  0  0  0  0  0  0
   -2.2644    3.4949    0.8375 H   0  0  0  0  0  0  0  0  0  0  0  0
   -3.3741    3.5939    2.2175 H   0  0  0  0  0  0  0  0  0  0  0  0
   -0.9750    1.0274    0.1566 N   0  0  0  0  0  0  0  0  0  0  0  0
    0.2023    0.5266   -0.5070 C   0  0  2  0  0  0  0  0  0  0  0  0
   -0.1429   -0.8523   -1.0582 C   0  0  0  0  0  0  0  0  0  0  0  0
    0.5838   -1.8327   -0.9112 O   0  0  0  0  0  0  0  0  0  0  0  0
    1.4058    0.4367    0.4383 C   0  0  0  0  0  0  0  0  0  0  0  0
    1.8921    1.7907    0.8943 C   0  0  0  0  0  0  0  0  0  0  0  0
    2.7203    2.5494    0.0670 C   0  0  0  0  0  0  0  0  0  0  0  0
    1.5140    2.2831    2.1434 C   0  0  0  0  0  0  0  0  0  0  0  0
    3.1701    3.8005    0.4888 C   0  0  0  0  0  0  0  0  0  0  0  0
    1.9639    3.5342    2.5652 C   0  0  0  0  0  0  0  0  0  0  0  0
    2.7920    4.2929    1.7379 C   0  0  0  0  0  0  0  0  0  0  0  0
    3.2322    5.5132    2.1498 O   0  0  0  0  0  0  0  0  0  0  0  0
   -1.7582    1.3241   -0.4207 H   0  0  0  0  0  0  0  0  0  0  0  0
    0.4031    1.2072   -1.3428 H   0  0  0  0  0  0  0  0  0  0  0  0
    2.2285   -0.1082   -0.0441 H   0  0  0  0  0  0  0  0  0  0  0  0
    1.1514   -0.1547    1.3279 H   0  0  0  0  0  0  0  0  0  0  0  0
    3.0197    2.1736   -0.9077 H   0  0  0  0  0  0  0  0  0  0  0  0
    0.8689    1.6989    2.7946 H   0  0  0  0  0  0  0  0  0  0  0  0
    3.8153    4.3868   -0.1601 H   0  0  0  0  0  0  0  0  0  0  0  0
    1.6662    3.9120    3.5393 H   0  0  0  0  0  0  0  0  0  0  0  0
    2.8861    5.7148    3.0338 H   0  0  0  0  0  0  0  0  0  0  0  0
   -1.3796   -0.8654   -1.6880 N   0  0  0  0  0  0  0  0  0  0  0  0
   -1.9570   -2.0516   -2.2782 C   0  0  2  0  0  0  0  0  0  0  0  0
   -0.9076   -2.6861   -3.1813 C   0  0  0  0  0  0  0  0  0  0  0  0
    0.0366   -2.0584   -3.6564 O   0  0  0  0  0  0  0  0  0  0  0  0
   -3.2194   -1.7225   -3.0598 C   0  0  0  0  0  0  0  0  0  0  0  0
   -1.9054    0.0023   -1.7366 H   0  0  0  0  0  0  0  0  0  0  0  0
   -2.1905   -2.7337   -1.4535 H   0  0  0  0  0  0  0  0  0  0  0  0
   -3.0053   -1.0400   -3.8904 H   0  0  0  0  0  0  0  0  0  0  0  0
   -3.6713   -2.6259   -3.4824 H   0  0  0  0  0  0  0  0  0  0  0  0
   -3.9617   -1.2392   -2.4155 H   0  0  0  0  0  0  0  0  0  0  0  0
   -1.1734   -4.0255   -3.4294 N   0  0  0  0  0  0  0  0  0  0  0  0
   -0.3306   -4.8452   -4.2683 C   0  0  0  0  0  0  0  0  0  0  0  0
   -1.9682   -4.4690   -2.9785 H   0  0  0  0  0  0  0  0  0  0  0  0
   -0.7091   -4.8245   -5.3009 H   0  0  0  0  0  0  0  0  0  0  0  0
    0.6978   -4.4556   -4.2469 H   0  0  0  0  0  0  0  0  0  0  0  0
   -0.3384   -5.8802   -3.8958 H   0  0  0  0  0  0  0  0  0  0  0  0
 23 25  2  0  0  0  0
 22 23  1  0  0  0  0
 24 26  1  0  0  0  0
 22 24  2  0  0  0  0
 25 27  1  0  0  0  0
 26 27  2  0  0  0  0
 21 22  1  0  0  0  0
 27 28  1  0  0  0  0
  1  3  1  0  0  0  0
  1  7  1  0  0  0  0
  1  2  2  0  0  0  0
 39 40  1  0  0  0  0
 40 48  1  0  0  0  0
 40 41  2  0  0  0  0
  8  9  1  0  0  0  0
  9 17  1  0  0  0  0
  9 10  2  0  0  0  0
 18 19  1  0  0  0  0
 19 38  1  0  0  0  0
 19 20  2  0  0  0  0
 39 42  1  0  0  0  0
  8 11  1  0  0  0  0
 48 49  1  0  0  0  0
 18 21  1  0  0  0  0
 38 39  1  0  0  0  0
  7  8  1  0  0  0  0
 17 18  1  0  0  0  0
 23 33  1  0  0  0  0
 24 34  1  0  0  0  0
 25 35  1  0  0  0  0
 26 36  1  0  0  0  0
  3  4  1  0  0  0  0
  3  5  1  0  0  0  0
  3  6  1  0  0  0  0
 42 45  1  0  0  0  0
 42 46  1  0  0  0  0
 42 47  1  0  0  0  0
 11 14  1  0  0  0  0
 11 15  1  0  0  0  0
 11 16  1  0  0  0  0
 49 51  1  0  0  0  0
 49 52  1  0  0  0  0
 49 53  1  0  0  0  0
 21 31  1  0  0  0  0
 21 32  1  0  0  0  0
 39 44  1  0  0  0  0
  8 13  1  0  0  0  0
 18 30  1  0  0  0  0
 48 50  1  0  0  0  0
  7 12  1  0  0  0  0
 38 43  1  0  0  0  0
 17 29  1  0  0  0  0
 28 37  1  0  0  0  0
M  END
$$$$

  -OEChem-05262214473D

 53 53  0     1  0  0  0  0  0999 V2000
   -1.9298    0.2574    3.9747 C   0  0  0  0  0  0  0  0  0  0  0  0
   -0.9825   -0.3573    3.4990 O   0  0  0  0  0  0  0  0  0  0  0  0
   -2.3617   -0.0250    5.3754 C   0  0  0  0  0  0  0  0  0  0  0  0
   -3.1214   -0.8213    5.4288 H   0  0  0  0  0  0  0  0  0  0  0  0
   -1.5305   -0.3726    6.0097 H   0  0  0  0  0  0  0  0  0  0  0  0
   -2.7997    0.8299    5.9150 H   0  0  0  0  0  0  0  0  0  0  0  0
   -2.6795    1.2298    3.3336 N   0  0  0  0  0  0  0  0  0  0  0  0
   -2.4327    1.6559    1.9812 C   0  0  2  0  0  0  0  0  0  0  0  0
   -1.0977    1.0705    1.5400 C   0  0  0  0  0  0  0  0  0  0  0  0
   -0.2256    0.7177    2.3313 O   0  0  0  0  0  0  0  0  0  0  0  0
   -2.4239    3.1726    1.8718 C   0  0  0  0  0  0  0  0  0  0  0  0
   -3.4446    1.6657    3.8454 H   0  0  0  0  0  0  0  0  0  0  0  0
   -3.2368    1.2374    1.3661 H   0  0  0  0  0  0  0  0  0  0  0  0
   -1.6248    3.6099    2.4815 H   0  0  0  0  0  0  0  0  0  0  0  0
   -2.2644    3.4949    0.8375 H   0  0  0  0  0  0  0  0  0  0  0  0
   -3.3741    3.5939    2.2175 H   0  0  0  0  0  0  0  0  0  0  0  0
   -0.9750    1.0274    0.1566 N   0  0  0  0  0  0  0  0  0  0  0  0
    0.2023    0.5266   -0.5070 C   0  0  2  0  0  0  0  0  0  0  0  0
   -0.1429   -0.8523   -1.0582 C   0  0  0  0  0  0  0  0  0  0  0  0
    0.4278   -1.8793   -0.6969 O   0  0  0  0  0  0  0  0  0  0  0  0
    1.4058    0.4367    0.4383 C   0  0  0  0  0  0  0  0  0  0  0  0
    1.8921    1.7907    0.8943 C   0  0  0  0  0  0  0  0  0  0  0  0
    2.7203    2.5494    0.0670 C   0  0  0  0  0  0  0  0  0  0  0  0
    1.5140    2.2831    2.1434 C   0  0  0  0  0  0  0  0  0  0  0  0
    3.1701    3.8005    0.4888 C   0  0  0  0  0  0  0  0  0  0  0  0
    1.9639    3.5342    2.5652 C   0  0  0  0  0  0  0  0  0  0  0  0
    2.7920    4.2929    1.7379 C   0  0  0  0  0  0  0  0  0  0  0  0
    3.2322    5.5132    2.1498 O   0  0  0  0  0  0  0  0  0  0  0  0
   -1.7582    1.3241   -0.4207 H   0  0  0  0  0  0  0  0  0  0  0  0
    0.4031    1.2072   -1.3428 H   0  0  0  0  0  0  0  0  0  0  0  0
    2.2285   -0.1082   -0.0441 H   0  0  0  0  0  0  0  0  0  0  0  0
    1.1514   -0.1547    1.3279 H   0  0  0  0  0  0  0  0  0  0  0  0
    3.0197    2.1736   -0.9077 H   0  0  0  0  0  0  0  0  0  0  0  0
    0.8689    1.6989    2.7946 H   0  0  0  0  0  0  0  0  0  0  0  0
    3.8153    4.3868   -0.1601 H   0  0  0  0  0  0  0  0  0  0  0  0
    1.6662    3.9120    3.5393 H   0  0  0  0  0  0  0  0  0  0  0  0
    2.8861    5.7148    3.0338 H   0  0  0  0  0  0  0  0  0  0  0  0
   -1.1953   -0.8022   -1.9617 N   0  0  0  0  0  0  0  0  0  0  0  0
   -1.7367   -1.9722   -2.6149 C   0  0  2  0  0  0  0  0  0  0  0  0
   -0.5761   -2.7566   -3.2126 C   0  0  0  0  0  0  0  0  0  0  0  0
    0.5105   -2.2477   -3.4797 O   0  0  0  0  0  0  0  0  0  0  0  0
   -2.7444   -1.5902   -3.6880 C   0  0  0  0  0  0  0  0  0  0  0  0
   -1.6056    0.1023   -2.1745 H   0  0  0  0  0  0  0  0  0  0  0  0
   -2.2220   -2.5723   -1.8375 H   0  0  0  0  0  0  0  0  0  0  0  0
   -2.2765   -0.9885   -4.4757 H   0  0  0  0  0  0  0  0  0  0  0  0
   -3.1748   -2.4784   -4.1623 H   0  0  0  0  0  0  0  0  0  0  0  0
   -3.5632   -1.0007   -3.2616 H   0  0  0  0  0  0  0  0  0  0  0  0
   -0.9106   -4.0819   -3.4527 N   0  0  0  0  0  0  0  0  0  0  0  0
    0.0165   -5.0281   -4.0282 C   0  0  0  0  0  0  0  0  0  0  0  0
   -1.8287   -4.4224   -3.1823 H   0  0  0  0  0  0  0  0  0  0  0  0
   -0.1088   -5.0467   -5.1209 H   0  0  0  0  0  0  0  0  0  0  0  0
    1.0459   -4.7284   -3.7824 H   0  0  0  0  0  0  0  0  0  0  0  0
   -0.1813   -6.0300   -3.6195 H   0  0  0  0  0  0  0  0  0  0  0  0
 23 25  2  0  0  0  0
 22 23  1  0  0  0  0
 24 26  1  0  0  0  0
 22 24  2  0  0  0  0
 25 27  1  0  0  0  0
 26 27  2  0  0  0  0
 21 22  1  0  0  0  0
 27 28  1  0  0  0  0
  1  3  1  0  0  0  0
  1  7  1  0  0  0  0
  1  2  2  0  0  0  0
 39 40  1  0  0  0  0
 40 48  1  0  0  0  0
 40 41  2  0  0  0  0
  8  9  1  0  0  0  0
  9 17  1  0  0  0  0
  9 10  2  0  0  0  0
 18 19  1  0  0  0  0
 19 38  1  0  0  0  0
 19 20  2  0  0  0  0
 39 42  1  0  0  0  0
  8 11  1  0  0  0  0
 48 49  1  0  0  0  0
 18 21  1  0  0  0  0
 38 39  1  0  0  0  0
  7  8  1  0  0  0  0
 17 18  1  0  0  0  0
 23 33  1  0  0  0  0
 24 34  1  0  0  0  0
 25 35  1  0  0  0  0
 26 36  1  0  0  0  0
  3  4  1  0  0  0  0
  3  5  1  0  0  0  0
  3  6  1  0  0  0  0
 42 45  1  0  0  0  0
 42 46  1  0  0  0  0
 42 47  1  0  0  0  0
 11 14  1  0  0  0  0
 11 15  1  0  0  0  0
 11 16  1  0  0  0  0
 49 51  1  0  0  0  0
 49 52  1  0  0  0  0
 49 53  1  0  0  0  0
 21 31  1  0  0  0  0
 21 32  1  0  0  0  0
 39 44  1  0  0  0  0
  8 13  1  0  0  0  0
 18 30  1  0  0  0  0
 48 50  1  0  0  0  0
  7 12  1  0  0  0  0
 38 43  1  0  0  0  0
 17 29  1  0  0  0  0
 28 37  1  0  0  0  0
M  END
$$$$

  -OEChem-05262214473D

 53 53  0     1  0  0  0  0  0999 V2000
   -1.9298    0.2574    3.9747 C   0  0  0  0  0  0  0  0  0  0  0  0
   -0.9825   -0.3573    3.4990 O   0  0  0  0  0  0  0  0  0  0  0  0
   -2.3617   -0.0250    5.3754 C   0  0  0  0  0  0  0  0  0  0  0  0
   -3.1214   -0.8213    5.4288 H   0  0  0  0  0  0  0  0  0  0  0  0
   -1.5305   -0.3726    6.0097 H   0  0  0  0  0  0  0  0  0  0  0  0
   -2.7997    0.8299    5.9150 H   0  0  0  0  0  0  0  0  0  0  0  0
   -2.6795    1.2298    3.3336 N   0  0  0  0  0  0  0  0  0  0  0  0
   -2.4327    1.6559    1.9812 C   0  0  2  0  0  0  0  0  0  0  0  0
   -1.0977    1.0705    1.5400 C   0  0  0  0  0  0  0  0  0  0  0  0
   -0.2256    0.7177    2.3313 O   0  0  0  0  0  0  0  0  0  0  0  0
   -2.4239    3.1726    1.8718 C   0  0  0  0  0  0  0  0  0  0  0  0
   -3.4446    1.6657    3.8454 H   0  0  0  0  0  0  0  0  0  0  0  0
   -3.2368    1.2374    1.3661 H   0  0  0  0  0  0  0  0  0  0  0  0
   -1.6248    3.6099    2.4815 H   0  0  0  0  0  0  0  0  0  0  0  0
   -2.2644    3.4949    0.8375 H   0  0  0  0  0  0  0  0  0  0  0  0
   -3.3741    3.5939    2.2175 H   0  0  0  0  0  0  0  0  0  0  0  0
   -0.9750    1.0274    0.1566 N   0  0  0  0  0  0  0  0  0  0  0  0
    0.2023    0.5266   -0.5070 C   0  0  2  0  0  0  0  0  0  0  0  0
   -0.1429   -0.8523   -1.0582 C   0  0  0  0  0  0  0  0  0  0  0  0
    0.2225   -1.8972   -0.5237 O   0  0  0  0  0  0  0  0  0  0  0  0
    1.4058    0.4367    0.4383 C   0  0  0  0  0  0  0  0  0  0  0  0
    1.8921    1.7907    0.8943 C   0  0  0  0  0  0  0  0  0  0  0  0
    2.7203    2.5494    0.0670 C   0  0  0  0  0  0  0  0  0  0  0  0
    1.5140    2.2831    2.1434 C   0  0  0  0  0  0  0  0  0  0  0  0
    3.1701    3.8005    0.4888 C   0  0  0  0  0  0  0  0  0  0  0  0
    1.9639    3.5342    2.5652 C   0  0  0  0  0  0  0  0  0  0  0  0
    2.7920    4.2929    1.7379 C   0  0  0  0  0  0  0  0  0  0  0  0
    3.2322    5.5132    2.1498 O   0  0  0  0  0  0  0  0  0  0  0  0
   -1.7582    1.3241   -0.4207 H   0  0  0  0  0  0  0  0  0  0  0  0
    0.4031    1.2072   -1.3428 H   0  0  0  0  0  0  0  0  0  0  0  0
    2.2285   -0.1082   -0.0441 H   0  0  0  0  0  0  0  0  0  0  0  0
    1.1514   -0.1547    1.3279 H   0  0  0  0  0  0  0  0  0  0  0  0
    3.0197    2.1736   -0.9077 H   0  0  0  0  0  0  0  0  0  0  0  0
    0.8689    1.6989    2.7946 H   0  0  0  0  0  0  0  0  0  0  0  0
    3.8153    4.3868   -0.1601 H   0  0  0  0  0  0  0  0  0  0  0  0
    1.6662    3.9120    3.5393 H   0  0  0  0  0  0  0  0  0  0  0  0
    2.8861    5.7148    3.0338 H   0  0  0  0  0  0  0  0  0  0  0  0
   -0.9472   -0.7744   -2.1866 N   0  0  0  0  0  0  0  0  0  0  0  0
   -1.4377   -1.9358   -2.8932 C   0  0  2  0  0  0  0  0  0  0  0  0
   -0.2553   -2.8575   -3.1610 C   0  0  0  0  0  0  0  0  0  0  0  0
    0.9092   -2.4644   -3.1869 O   0  0  0  0  0  0  0  0  0  0  0  0
   -2.1262   -1.5438   -4.1913 C   0  0  0  0  0  0  0  0  0  0  0  0
   -1.2041    0.1452   -2.5333 H   0  0  0  0  0  0  0  0  0  0  0  0
   -2.1475   -2.4360   -2.2253 H   0  0  0  0  0  0  0  0  0  0  0  0
   -1.4307   -1.0412   -4.8734 H   0  0  0  0  0  0  0  0  0  0  0  0
   -2.5223   -2.4223   -4.7114 H   0  0  0  0  0  0  0  0  0  0  0  0
   -2.9579   -0.8573   -3.9995 H   0  0  0  0  0  0  0  0  0  0  0  0
   -0.6567   -4.1624   -3.4104 N   0  0  0  0  0  0  0  0  0  0  0  0
    0.2784   -5.2231   -3.7044 C   0  0  0  0  0  0  0  0  0  0  0  0
   -1.6418   -4.4025   -3.3494 H   0  0  0  0  0  0  0  0  0  0  0  0
    0.4081   -5.3069   -4.7935 H   0  0  0  0  0  0  0  0  0  0  0  0
    1.2479   -4.9973   -3.2362 H   0  0  0  0  0  0  0  0  0  0  0  0
   -0.1082   -6.1732   -3.3070 H   0  0  0  0  0  0  0  0  0  0  0  0
 23 25  2  0  0  0  0
 22 23  1  0  0  0  0
 24 26  1  0  0  0  0
 22 24  2  0  0  0  0
 25 27  1  0  0  0  0
 26 27  2  0  0  0  0
 21 22  1  0  0  0  0
 27 28  1  0  0  0  0
  1  3  1  0  0  0  0
  1  7  1  0  0  0  0
  1  2  2  0  0  0  0
 39 40  1  0  0  0  0
 40 48  1  0  0  0  0
 40 41  2  0  0  0  0
  8  9  1  0  0  0  0
  9 17  1  0  0  0  0
  9 10  2  0  0  0  0
 18 19  1  0  0  0  0
 19 38  1  0  0  0  0
 19 20  2  0  0  0  0
 39 42  1  0  0  0  0
  8 11  1  0  0  0  0
 48 49  1  0  0  0  0
 18 21  1  0  0  0  0
 38 39  1  0  0  0  0
  7  8  1  0  0  0  0
 17 18  1  0  0  0  0
 23 33  1  0  0  0  0
 24 34  1  0  0  0  0
 25 35  1  0  0  0  0
 26 36  1  0  0  0  0
  3  4  1  0  0  0  0
  3  5  1  0  0  0  0
  3  6  1  0  0  0  0
 42 45  1  0  0  0  0
 42 46  1  0  0  0  0
 42 47  1  0  0  0  0
 11 14  1  0  0  0  0
 11 15  1  0  0  0  0
 11 16  1  0  0  0  0
 49 51  1  0  0  0  0
 49 52  1  0  0  0  0
 49 53  1  0  0  0  0
 21 31  1  0  0  0  0
 21 32  1  0  0  0  0
 39 44  1  0  0  0  0
  8 13  1  0  0  0  0
 18 30  1  0  0  0  0
 48 50  1  0  0  0  0
  7 12  1  0  0  0  0
 38 43  1  0  0  0  0
 17 29  1  0  0  0  0
 28 37  1  0  0  0  0
M  END
$$$$

  -OEChem-05262214473D

 53 53  0     1  0  0  0  0  0999 V2000
   -1.9298    0.2574    3.9747 C   0  0  0  0  0  0  0  0  0  0  0  0
   -0.9825   -0.3573    3.4990 O   0  0  0  0  0  0  0  0  0  0  0  0
   -2.3617   -0.0250    5.3754 C   0  0  0  0  0  0  0  0  0  0  0  0
   -3.1214   -0.8213    5.4288 H   0  0  0  0  0  0  0  0  0  0  0  0
   -1.5305   -0.3726    6.0097 H   0  0  0  0  0  0  0  0  0  0  0  0
   -2.7997    0.8299    5.9150 H   0  0  0  0  0  0  0  0  0  0  0  0
   -2.6795    1.2298    3.3336 N   0  0  0  0  0  0  0  0  0  0  0  0
   -2.4327    1.6559    1.9812 C   0  0  2  0  0  0  0  0  0  0  0  0
   -1.0977    1.0705    1.5400 C   0  0  0  0  0  0  0  0  0  0  0  0
   -0.2256    0.7177    2.3313 O   0  0  0  0  0  0  0  0  0  0  0  0
   -2.4239    3.1726    1.8718 C   0  0  0  0  0  0  0  0  0  0  0  0
   -3.4446    1.6657    3.8454 H   0  0  0  0  0  0  0  0  0  0  0  0
   -3.2368    1.2374    1.3661 H   0  0  0  0  0  0  0  0  0  0  0  0
   -1.6248    3.6099    2.4815 H   0  0  0  0  0  0  0  0  0  0  0  0
   -2.2644    3.4949    0.8375 H   0  0  0  0  0  0  0  0  0  0  0  0
   -3.3741    3.5939    2.2175 H   0  0  0  0  0  0  0  0  0  0  0  0
   -0.9750    1.0274    0.1566 N   0  0  0  0  0  0  0  0  0  0  0  0
    0.2023    0.5266   -0.5070 C   0  0  2  0  0  0  0  0  0  0  0  0
   -0.1429   -0.8523   -1.0582 C   0  0  0  0  0  0  0  0  0  0  0  0
   -0.0180   -1.8850   -0.4034 O   0  0  0  0  0  0  0  0  0  0  0  0
    1.4058    0.4367    0.4383 C   0  0  0  0  0  0  0  0  0  0  0  0
    1.8921    1.7907    0.8943 C   0  0  0  0  0  0  0  0  0  0  0  0
    2.7203    2.5494    0.0670 C   0  0  0  0  0  0  0  0  0  0  0  0
    1.5140    2.2831    2.1434 C   0  0  0  0  0  0  0  0  0  0  0  0
    3.1701    3.8005    0.4888 C   0  0  0  0  0  0  0  0  0  0  0  0
    1.9639    3.5342    2.5652 C   0  0  0  0  0  0  0  0  0  0  0  0
    2.7920    4.2929    1.7379 C   0  0  0  0  0  0  0  0  0  0  0  0
    3.2322    5.5132    2.1498 O   0  0  0  0  0  0  0  0  0  0  0  0
   -1.7582    1.3241   -0.4207 H   0  0  0  0  0  0  0  0  0  0  0  0
    0.4031    1.2072   -1.3428 H   0  0  0  0  0  0  0  0  0  0  0  0
    2.2285   -0.1082   -0.0441 H   0  0  0  0  0  0  0  0  0  0  0  0
    1.1514   -0.1547    1.3279 H   0  0  0  0  0  0  0  0  0  0  0  0
    3.0197    2.1736   -0.9077 H   0  0  0  0  0  0  0  0  0  0  0  0
    0.8689    1.6989    2.7946 H   0  0  0  0  0  0  0  0  0  0  0  0
    3.8153    4.3868   -0.1601 H   0  0  0  0  0  0  0  0  0  0  0  0
    1.6662    3.9120    3.5393 H   0  0  0  0  0  0  0  0  0  0  0  0
    2.8861    5.7148    3.0338 H   0  0  0  0  0  0  0  0  0  0  0  0
   -0.6524   -0.7839   -2.3474 N   0  0  0  0  0  0  0  0  0  0  0  0
   -1.0804   -1.9449   -3.0942 C   0  0  2  0  0  0  0  0  0  0  0  0
    0.0332   -2.9820   -3.0302 C   0  0  0  0  0  0  0  0  0  0  0  0
    1.2055   -2.6940   -2.7982 O   0  0  0  0  0  0  0  0  0  0  0  0
   -1.4069   -1.5862   -4.5355 C   0  0  0  0  0  0  0  0  0  0  0  0
   -0.7283    0.1281   -2.7883 H   0  0  0  0  0  0  0  0  0  0  0  0
   -1.9719   -2.3340   -2.5905 H   0  0  0  0  0  0  0  0  0  0  0  0
   -0.5256   -1.1946   -5.0565 H   0  0  0  0  0  0  0  0  0  0  0  0
   -1.7582   -2.4612   -5.0923 H   0  0  0  0  0  0  0  0  0  0  0  0
   -2.1871   -0.8186   -4.5789 H   0  0  0  0  0  0  0  0  0  0  0  0
   -0.4288   -4.2614   -3.3053 N   0  0  0  0  0  0  0  0  0  0  0  0
    0.4374   -5.4170   -3.3188 C   0  0  0  0  0  0  0  0  0  0  0  0
   -1.4203   -4.4104   -3.4681 H   0  0  0  0  0  0  0  0  0  0  0  0
    0.8064   -5.5875   -4.3409 H   0  0  0  0  0  0  0  0  0  0  0  0
    1.2899   -5.2439   -2.6455 H   0  0  0  0  0  0  0  0  0  0  0  0
   -0.1241   -6.3000   -2.9797 H   0  0  0  0  0  0  0  0  0  0  0  0
 23 25  2  0  0  0  0
 22 23  1  0  0  0  0
 24 26  1  0  0  0  0
 22 24  2  0  0  0  0
 25 27  1  0  0  0  0
 26 27  2  0  0  0  0
 21 22  1  0  0  0  0
 27 28  1  0  0  0  0
  1  3  1  0  0  0  0
  1  7  1  0  0  0  0
  1  2  2  0  0  0  0
 39 40  1  0  0  0  0
 40 48  1  0  0  0  0
 40 41  2  0  0  0  0
  8  9  1  0  0  0  0
  9 17  1  0  0  0  0
  9 10  2  0  0  0  0
 18 19  1  0  0  0  0
 19 38  1  0  0  0  0
 19 20  2  0  0  0  0
 39 42  1  0  0  0  0
  8 11  1  0  0  0  0
 48 49  1  0  0  0  0
 18 21  1  0  0  0  0
 38 39  1  0  0  0  0
  7  8  1  0  0  0  0
 17 18  1  0  0  0  0
 23 33  1  0  0  0  0
 24 34  1  0  0  0  0
 25 35  1  0  0  0  0
 26 36  1  0  0  0  0
  3  4  1  0  0  0  0
  3  5  1  0  0  0  0
  3  6  1  0  0  0  0
 42 45  1  0  0  0  0
 42 46  1  0  0  0  0
 42 47  1  0  0  0  0
 11 14  1  0  0  0  0
 11 15  1  0  0  0  0
 11 16  1  0  0  0  0
 49 51  1  0  0  0  0
 49 52  1  0  0  0  0
 49 53  1  0  0  0  0
 21 31  1  0  0  0  0
 21 32  1  0  0  0  0
 39 44  1  0  0  0  0
  8 13  1  0  0  0  0
 18 30  1  0  0  0  0
 48 50  1  0  0  0  0
  7 12  1  0  0  0  0
 38 43  1  0  0  0  0
 17 29  1  0  0  0  0
 28 37  1  0  0  0  0
M  END
$$$$

  -OEChem-05262214473D

 53 53  0     1  0  0  0  0  0999 V2000
   -1.9298    0.2574    3.9747 C   0  0  0  0  0  0  0  0  0  0  0  0
   -0.9825   -0.3573    3.4990 O   0  0  0  0  0  0  0  0  0  0  0  0
   -2.3617   -0.0250    5.3754 C   0  0  0  0  0  0  0  0  0  0  0  0
   -3.1214   -0.8213    5.4288 H   0  0  0  0  0  0  0  0  0  0  0  0
   -1.5305   -0.3726    6.0097 H   0  0  0  0  0  0  0  0  0  0  0  0
   -2.7997    0.8299    5.9150 H   0  0  0  0  0  0  0  0  0  0  0  0
   -2.6795    1.2298    3.3336 N   0  0  0  0  0  0  0  0  0  0  0  0
   -2.4327    1.6559    1.9812 C   0  0  2  0  0  0  0  0  0  0  0  0
   -1.0977    1.0705    1.5400 C   0  0  0  0  0  0  0  0  0  0  0  0
   -0.2256    0.7177    2.3313 O   0  0  0  0  0  0  0  0  0  0  0  0
   -2.4239    3.1726    1.8718 C   0  0  0  0  0  0  0  0  0  0  0  0
   -3.4446    1.6657    3.8454 H   0  0  0  0  0  0  0  0  0  0  0  0
   -3.2368    1.2374    1.3661 H   0  0  0  0  0  0  0  0  0  0  0  0
   -1.6248    3.6099    2.4815 H   0  0  0  0  0  0  0  0  0  0  0  0
   -2.2644    3.4949    0.8375 H   0  0  0  0  0  0  0  0  0  0  0  0
   -3.3741    3.5939    2.2175 H   0  0  0  0  0  0  0  0  0  0  0  0
   -0.9750    1.0274    0.1566 N   0  0  0  0  0  0  0  0  0  0  0  0
    0.2023    0.5266   -0.5070 C   0  0  2  0  0  0  0  0  0  0  0  0
   -0.1429   -0.8523   -1.0582 C   0  0  0  0  0  0  0  0  0  0  0  0
   -0.2773   -1.8438   -0.3442 O   0  0  0  0  0  0  0  0  0  0  0  0
    1.4058    0.4367    0.4383 C   0  0  0  0  0  0  0  0  0  0  0  0
    1.8921    1.7907    0.8943 C   0  0  0  0  0  0  0  0  0  0  0  0
    2.7203    2.5494    0.0670 C   0  0  0  0  0  0  0  0  0  0  0  0
    1.5140    2.2831    2.1434 C   0  0  0  0  0  0  0  0  0  0  0  0
    3.1701    3.8005    0.4888 C   0  0  0  0  0  0  0  0  0  0  0  0
    1.9639    3.5342    2.5652 C   0  0  0  0  0  0  0  0  0  0  0  0
    2.7920    4.2929    1.7379 C   0  0  0  0  0  0  0  0  0  0  0  0
    3.2322    5.5132    2.1498 O   0  0  0  0  0  0  0  0  0  0  0  0
   -1.7582    1.3241   -0.4207 H   0  0  0  0  0  0  0  0  0  0  0  0
    0.4031    1.2072   -1.3428 H   0  0  0  0  0  0  0  0  0  0  0  0
    2.2285   -0.1082   -0.0441 H   0  0  0  0  0  0  0  0  0  0  0  0
    1.1514   -0.1547    1.3279 H   0  0  0  0  0  0  0  0  0  0  0  0
    3.0197    2.1736   -0.9077 H   0  0  0  0  0  0  0  0  0  0  0  0
    0.8689    1.6989    2.7946 H   0  0  0  0  0  0  0  0  0  0  0  0
    3.8153    4.3868   -0.1601 H   0  0  0  0  0  0  0  0  0  0  0  0
    1.6662    3.9120    3.5393 H   0  0  0  0  0  0  0  0  0  0  0  0
    2.8861    5.7148    3.0338 H   0  0  0  0  0  0  0  0  0  0  0  0
   -0.3308   -0.8301   -2.4332 N   0  0  0  0  0  0  0  0  0  0  0  0
   -0.6890   -1.9989   -3.2041 C   0  0  2  0  0  0  0  0  0  0  0  0
    0.2695   -3.1215   -2.8291 C   0  0  0  0  0  0  0  0  0  0  0  0
    1.3792   -2.9207   -2.3399 O   0  0  0  0  0  0  0  0  0  0  0  0
   -0.6355   -1.7147   -4.6971 C   0  0  0  0  0  0  0  0  0  0  0  0
   -0.2106    0.0520   -2.9222 H   0  0  0  0  0  0  0  0  0  0  0  0
   -1.7074   -2.2732   -2.9081 H   0  0  0  0  0  0  0  0  0  0  0  0
    0.3772   -1.4381   -5.0125 H   0  0  0  0  0  0  0  0  0  0  0  0
   -0.9347   -2.5927   -5.2791 H   0  0  0  0  0  0  0  0  0  0  0  0
   -1.3033   -0.8873   -4.9605 H   0  0  0  0  0  0  0  0  0  0  0  0
   -0.2426   -4.3722   -3.1448 N   0  0  0  0  0  0  0  0  0  0  0  0
    0.4826   -5.5966   -2.8978 C   0  0  0  0  0  0  0  0  0  0  0  0
   -1.1794   -4.4458   -3.5305 H   0  0  0  0  0  0  0  0  0  0  0  0
    1.0589   -5.8693   -3.7942 H   0  0  0  0  0  0  0  0  0  0  0  0
    1.1692   -5.4514   -2.0507 H   0  0  0  0  0  0  0  0  0  0  0  0
   -0.2280   -6.4019   -2.6599 H   0  0  0  0  0  0  0  0  0  0  0  0
 23 25  2  0  0  0  0
 22 23  1  0  0  0  0
 24 26  1  0  0  0  0
 22 24  2  0  0  0  0
 25 27  1  0  0  0  0
 26 27  2  0  0  0  0
 21 22  1  0  0  0  0
 27 28  1  0  0  0  0
  1  3  1  0  0  0  0
  1  7  1  0  0  0  0
  1  2  2  0  0  0  0
 39 40  1  0  0  0  0
 40 48  1  0  0  0  0
 40 41  2  0  0  0  0
  8  9  1  0  0  0  0
  9 17  1  0  0  0  0
  9 10  2  0  0  0  0
 18 19  1  0  0  0  0
 19 38  1  0  0  0  0
 19 20  2  0  0  0  0
 39 42  1  0  0  0  0
  8 11  1  0  0  0  0
 48 49  1  0  0  0  0
 18 21  1  0  0  0  0
 38 39  1  0  0  0  0
  7  8  1  0  0  0  0
 17 18  1  0  0  0  0
 23 33  1  0  0  0  0
 24 34  1  0  0  0  0
 25 35  1  0  0  0  0
 26 36  1  0  0  0  0
  3  4  1  0  0  0  0
  3  5  1  0  0  0  0
  3  6  1  0  0  0  0
 42 45  1  0  0  0  0
 42 46  1  0  0  0  0
 42 47  1  0  0  0  0
 11 14  1  0  0  0  0
 11 15  1  0  0  0  0
 11 16  1  0  0  0  0
 49 51  1  0  0  0  0
 49 52  1  0  0  0  0
 49 53  1  0  0  0  0
 21 31  1  0  0  0  0
 21 32  1  0  0  0  0
 39 44  1  0  0  0  0
  8 13  1  0  0  0  0
 18 30  1  0  0  0  0
 48 50  1  0  0  0  0
  7 12  1  0  0  0  0
 38 43  1  0  0  0  0
 17 29  1  0  0  0  0
 28 37  1  0  0  0  0
M  END
$$$$

  -OEChem-05262214473D

 53 53  0     1  0  0  0  0  0999 V2000
   -1.9298    0.2574    3.9747 C   0  0  0  0  0  0  0  0  0  0  0  0
   -0.9825   -0.3573    3.4990 O   0  0  0  0  0  0  0  0  0  0  0  0
   -2.3617   -0.0250    5.3754 C   0  0  0  0  0  0  0  0  0  0  0  0
   -3.1214   -0.8213    5.4288 H   0  0  0  0  0  0  0  0  0  0  0  0
   -1.5305   -0.3726    6.0097 H   0  0  0  0  0  0  0  0  0  0  0  0
   -2.7997    0.8299    5.9150 H   0  0  0  0  0  0  0  0  0  0  0  0
   -2.6795    1.2298    3.3336 N   0  0  0  0  0  0  0  0  0  0  0  0
   -2.4327    1.6559    1.9812 C   0  0  2  0  0  0  0  0  0  0  0  0
   -1.0977    1.0705    1.5400 C   0  0  0  0  0  0  0  0  0  0  0  0
   -0.2256    0.7177    2.3313 O   0  0  0  0  0  0  0  0  0  0  0  0
   -2.4239    3.1726    1.8718 C   0  0  0  0  0  0  0  0  0  0  0  0
   -3.4446    1.6657    3.8454 H   0  0  0  0  0  0  0  0  0  0  0  0
   -3.2368    1.2374    1.3661 H   0  0  0  0  0  0  0  0  0  0  0  0
   -1.6248    3.6099    2.4815 H   0  0  0  0  0  0  0  0  0  0  0  0
   -2.2644    3.4949    0.8375 H   0  0  0  0  0  0  0  0  0  0  0  0
   -3.3741    3.5939    2.2175 H   0  0  0  0  0  0  0  0  0  0  0  0
   -0.9750    1.0274    0.1566 N   0  0  0  0  0  0  0  0  0  0  0  0
    0.2023    0.5266   -0.5070 C   0  0  2  0  0  0  0  0  0  0  0  0
   -0.1429   -0.8523   -1.0582 C   0  0  0  0  0  0  0  0  0  0  0  0
   -0.5378   -1.7762   -0.3502 O   0  0  0  0  0  0  0  0  0  0  0  0
    1.4058    0.4367    0.4383 C   0  0  0  0  0  0  0  0  0  0  0  0
    1.8921    1.7907    0.8943 C   0  0  0  0  0  0  0  0  0  0  0  0
    2.7203    2.5494    0.0670 C   0  0  0  0  0  0  0  0  0  0  0  0
    1.5140    2.2831    2.1434 C   0  0  0  0  0  0  0  0  0  0  0  0
    3.1701    3.8005    0.4888 C   0  0  0  0  0  0  0  0  0  0  0  0
    1.9639    3.5342    2.5652 C   0  0  0  0  0  0  0  0  0  0  0  0
    2.7920    4.2929    1.7379 C   0  0  0  0  0  0  0  0  0  0  0  0
    3.2322    5.5132    2.1498 O   0  0  0  0  0  0  0  0  0  0  0  0
   -1.7582    1.3241   -0.4207 H   0  0  0  0  0  0  0  0  0  0  0  0
    0.4031    1.2072   -1.3428 H   0  0  0  0  0  0  0  0  0  0  0  0
    2.2285   -0.1082   -0.0441 H   0  0  0  0  0  0  0  0  0  0  0  0
    1.1514   -0.1547    1.3279 H   0  0  0  0  0  0  0  0  0  0  0  0
    3.0197    2.1736   -0.9077 H   0  0  0  0  0  0  0  0  0  0  0  0
    0.8689    1.6989    2.7946 H   0  0  0  0  0  0  0  0  0  0  0  0
    3.8153    4.3868   -0.1601 H   0  0  0  0  0  0  0  0  0  0  0  0
    1.6662    3.9120    3.5393 H   0  0  0  0  0  0  0  0  0  0  0  0
    2.8861    5.7148    3.0338 H   0  0  0  0  0  0  0  0  0  0  0  0
   -0.0045   -0.9098   -2.4380 N   0  0  0  0  0  0  0  0  0  0  0  0
   -0.2902   -2.0942   -3.2155 C   0  0  2  0  0  0  0  0  0  0  0  0
    0.4376   -3.2666   -2.5713 C   0  0  0  0  0  0  0  0  0  0  0  0
    1.4185   -3.1290   -1.8432 O   0  0  0  0  0  0  0  0  0  0  0  0
    0.1354   -1.9205   -4.6651 C   0  0  0  0  0  0  0  0  0  0  0  0
    0.3136   -0.0777   -2.9260 H   0  0  0  0  0  0  0  0  0  0  0  0
   -1.3718   -2.2580   -3.1564 H   0  0  0  0  0  0  0  0  0  0  0  0
    1.2161   -1.7553   -4.7444 H   0  0  0  0  0  0  0  0  0  0  0  0
   -0.1077   -2.8077   -5.2591 H   0  0  0  0  0  0  0  0  0  0  0  0
   -0.3666   -1.0587   -5.1181 H   0  0  0  0  0  0  0  0  0  0  0  0
   -0.1106   -4.4873   -2.9396 N   0  0  0  0  0  0  0  0  0  0  0  0
    0.4109   -5.7496   -2.4700 C   0  0  0  0  0  0  0  0  0  0  0  0
   -0.9353   -4.5062   -3.5323 H   0  0  0  0  0  0  0  0  0  0  0  0
    1.1484   -6.1330   -3.1904 H   0  0  0  0  0  0  0  0  0  0  0  0
    0.8940   -5.6057   -1.4923 H   0  0  0  0  0  0  0  0  0  0  0  0
   -0.4128   -6.4718   -2.3693 H   0  0  0  0  0  0  0  0  0  0  0  0
 23 25  2  0  0  0  0
 22 23  1  0  0  0  0
 24 26  1  0  0  0  0
 22 24  2  0  0  0  0
 25 27  1  0  0  0  0
 26 27  2  0  0  0  0
 21 22  1  0  0  0  0
 27 28  1  0  0  0  0
  1  3  1  0  0  0  0
  1  7  1  0  0  0  0
  1  2  2  0  0  0  0
 39 40  1  0  0  0  0
 40 48  1  0  0  0  0
 40 41  2  0  0  0  0
  8  9  1  0  0  0  0
  9 17  1  0  0  0  0
  9 10  2  0  0  0  0
 18 19  1  0  0  0  0
 19 38  1  0  0  0  0
 19 20  2  0  0  0  0
 39 42  1  0  0  0  0
  8 11  1  0  0  0  0
 48 49  1  0  0  0  0
 18 21  1  0  0  0  0
 38 39  1  0  0  0  0
  7  8  1  0  0  0  0
 17 18  1  0  0  0  0
 23 33  1  0  0  0  0
 24 34  1  0  0  0  0
 25 35  1  0  0  0  0
 26 36  1  0  0  0  0
  3  4  1  0  0  0  0
  3  5  1  0  0  0  0
  3  6  1  0  0  0  0
 42 45  1  0  0  0  0
 42 46  1  0  0  0  0
 42 47  1  0  0  0  0
 11 14  1  0  0  0  0
 11 15  1  0  0  0  0
 11 16  1  0  0  0  0
 49 51  1  0  0  0  0
 49 52  1  0  0  0  0
 49 53  1  0  0  0  0
 21 31  1  0  0  0  0
 21 32  1  0  0  0  0
 39 44  1  0  0  0  0
  8 13  1  0  0  0  0
 18 30  1  0  0  0  0
 48 50  1  0  0  0  0
  7 12  1  0  0  0  0
 38 43  1  0  0  0  0
 17 29  1  0  0  0  0
 28 37  1  0  0  0  0
M  END
$$$$

  -OEChem-05262214473D

 53 53  0     1  0  0  0  0  0999 V2000
   -1.9298    0.2574    3.9747 C   0  0  0  0  0  0  0  0  0  0  0  0
   -0.9825   -0.3573    3.4990 O   0  0  0  0  0  0  0  0  0  0  0  0
   -2.3617   -0.0250    5.3754 C   0  0  0  0  0  0  0  0  0  0  0  0
   -3.1214   -0.8213    5.4288 H   0  0  0  0  0  0  0  0  0  0  0  0
   -1.5305   -0.3726    6.0097 H   0  0  0  0  0  0  0  0  0  0  0  0
   -2.7997    0.8299    5.9150 H   0  0  0  0  0  0  0  0  0  0  0  0
   -2.6795    1.2298    3.3336 N   0  0  0  0  0  0  0  0  0  0  0  0
   -2.4327    1.6559    1.9812 C   0  0  2  0  0  0  0  0  0  0  0  0
   -1.0977    1.0705    1.5400 C   0  0  0  0  0  0  0  0  0  0  0  0
   -0.2256    0.7177    2.3313 O   0  0  0  0  0  0  0  0  0  0  0  0
   -2.4239    3.1726    1.8718 C   0  0  0  0  0  0  0  0  0  0  0  0
   -3.4446    1.6657    3.8454 H   0  0  0  0  0  0  0  0  0  0  0  0
   -3.2368    1.2374    1.3661 H   0  0  0  0  0  0  0  0  0  0  0  0
   -1.6248    3.6099    2.4815 H   0  0  0  0  0  0  0  0  0  0  0  0
   -2.2644    3.4949    0.8375 H   0  0  0  0  0  0  0  0  0  0  0  0
   -3.3741    3.5939    2.2175 H   0  0  0  0  0  0  0  0  0  0  0  0
   -0.9750    1.0274    0.1566 N   0  0  0  0  0  0  0  0  0  0  0  0
    0.2023    0.5266   -0.5070 C   0  0  2  0  0  0  0  0  0  0  0  0
   -0.1429   -0.8523   -1.0582 C   0  0  0  0  0  0  0  0  0  0  0  0
   -0.7817   -1.6869   -0.4209 O   0  0  0  0  0  0  0  0  0  0  0  0
    1.4058    0.4367    0.4383 C   0  0  0  0  0  0  0  0  0  0  0  0
    1.8921    1.7907    0.8943 C   0  0  0  0  0  0  0  0  0  0  0  0
    2.7203    2.5494    0.0670 C   0  0  0  0  0  0  0  0  0  0  0  0
    1.5140    2.2831    2.1434 C   0  0  0  0  0  0  0  0  0  0  0  0
    3.1701    3.8005    0.4888 C   0  0  0  0  0  0  0  0  0  0  0  0
    1.9639    3.5342    2.5652 C   0  0  0  0  0  0  0  0  0  0  0  0
    2.7920    4.2929    1.7379 C   0  0  0  0  0  0  0  0  0  0  0  0
    3.2322    5.5132    2.1498 O   0  0  0  0  0  0  0  0  0  0  0  0
   -1.7582    1.3241   -0.4207 H   0  0  0  0  0  0  0  0  0  0  0  0
    0.4031    1.2072   -1.3428 H   0  0  0  0  0  0  0  0  0  0  0  0
    2.2285   -0.1082   -0.0441 H   0  0  0  0  0  0  0  0  0  0  0  0
    1.1514   -0.1547    1.3279 H   0  0  0  0  0  0  0  0  0  0  0  0
    3.0197    2.1736   -0.9077 H   0  0  0  0  0  0  0  0  0  0  0  0
    0.8689    1.6989    2.7946 H   0  0  0  0  0  0  0  0  0  0  0  0
    3.8153    4.3868   -0.1601 H   0  0  0  0  0  0  0  0  0  0  0  0
    1.6662    3.9120    3.5393 H   0  0  0  0  0  0  0  0  0  0  0  0
    2.8861    5.7148    3.0338 H   0  0  0  0  0  0  0  0  0  0  0  0
    0.3044   -1.0177   -2.3616 N   0  0  0  0  0  0  0  0  0  0  0  0
    0.0887   -2.2242   -3.1276 C   0  0  2  0  0  0  0  0  0  0  0  0
    0.5261   -3.4074   -2.2744 C   0  0  0  0  0  0  0  0  0  0  0  0
    1.3207   -3.3048   -1.3421 O   0  0  0  0  0  0  0  0  0  0  0  0
    0.8533   -2.1895   -4.4417 C   0  0  0  0  0  0  0  0  0  0  0  0
    0.8088   -0.2523   -2.7993 H   0  0  0  0  0  0  0  0  0  0  0  0
   -0.9880   -2.2891   -3.3187 H   0  0  0  0  0  0  0  0  0  0  0  0
    1.9340   -2.1244   -4.2704 H   0  0  0  0  0  0  0  0  0  0  0  0
    0.6662   -3.0915   -5.0335 H   0  0  0  0  0  0  0  0  0  0  0  0
    0.5589   -1.3212   -5.0411 H   0  0  0  0  0  0  0  0  0  0  0  0
   -0.0420   -4.5987   -2.7037 N   0  0  0  0  0  0  0  0  0  0  0  0
    0.2271   -5.8657   -2.0646 C   0  0  0  0  0  0  0  0  0  0  0  0
   -0.7048   -4.5874   -3.4733 H   0  0  0  0  0  0  0  0  0  0  0  0
    1.0689   -6.3608   -2.5708 H   0  0  0  0  0  0  0  0  0  0  0  0
    0.4829   -5.6963   -1.0083 H   0  0  0  0  0  0  0  0  0  0  0  0
   -0.6658   -6.5050   -2.1277 H   0  0  0  0  0  0  0  0  0  0  0  0
 23 25  2  0  0  0  0
 22 23  1  0  0  0  0
 24 26  1  0  0  0  0
 22 24  2  0  0  0  0
 25 27  1  0  0  0  0
 26 27  2  0  0  0  0
 21 22  1  0  0  0  0
 27 28  1  0  0  0  0
  1  3  1  0  0  0  0
  1  7  1  0  0  0  0
  1  2  2  0  0  0  0
 39 40  1  0  0  0  0
 40 48  1  0  0  0  0
 40 41  2  0  0  0  0
  8  9  1  0  0  0  0
  9 17  1  0  0  0  0
  9 10  2  0  0  0  0
 18 19  1  0  0  0  0
 19 38  1  0  0  0  0
 19 20  2  0  0  0  0
 39 42  1  0  0  0  0
  8 11  1  0  0  0  0
 48 49  1  0  0  0  0
 18 21  1  0  0  0  0
 38 39  1  0  0  0  0
  7  8  1  0  0  0  0
 17 18  1  0  0  0  0
 23 33  1  0  0  0  0
 24 34  1  0  0  0  0
 25 35  1  0  0  0  0
 26 36  1  0  0  0  0
  3  4  1  0  0  0  0
  3  5  1  0  0  0  0
  3  6  1  0  0  0  0
 42 45  1  0  0  0  0
 42 46  1  0  0  0  0
 42 47  1  0  0  0  0
 11 14  1  0  0  0  0
 11 15  1  0  0  0  0
 11 16  1  0  0  0  0
 49 51  1  0  0  0  0
 49 52  1  0  0  0  0
 49 53  1  0  0  0  0
 21 31  1  0  0  0  0
 21 32  1  0  0  0  0
 39 44  1  0  0  0  0
  8 13  1  0  0  0  0
 18 30  1  0  0  0  0
 48 50  1  0  0  0  0
  7 12  1  0  0  0  0
 38 43  1  0  0  0  0
 17 29  1  0  0  0  0
 28 37  1  0  0  0  0
M  END
$$$$

  -OEChem-05262214473D

 53 53  0     1  0  0  0  0  0999 V2000
   -1.9298    0.2574    3.9747 C   0  0  0  0  0  0  0  0  0  0  0  0
   -0.9825   -0.3573    3.4990 O   0  0  0  0  0  0  0  0  0  0  0  0
   -2.3617   -0.0250    5.3754 C   0  0  0  0  0  0  0  0  0  0  0  0
   -3.1214   -0.8213    5.4288 H   0  0  0  0  0  0  0  0  0  0  0  0
   -1.5305   -0.3726    6.0097 H   0  0  0  0  0  0  0  0  0  0  0  0
   -2.7997    0.8299    5.9150 H   0  0  0  0  0  0  0  0  0  0  0  0
   -2.6795    1.2298    3.3336 N   0  0  0  0  0  0  0  0  0  0  0  0
   -2.4327    1.6559    1.9812 C   0  0  2  0  0  0  0  0  0  0  0  0
   -1.0977    1.0705    1.5400 C   0  0  0  0  0  0  0  0  0  0  0  0
   -0.2256    0.7177    2.3313 O   0  0  0  0  0  0  0  0  0  0  0  0
   -2.4239    3.1726    1.8718 C   0  0  0  0  0  0  0  0  0  0  0  0
   -3.4446    1.6657    3.8454 H   0  0  0  0  0  0  0  0  0  0  0  0
   -3.2368    1.2374    1.3661 H   0  0  0  0  0  0  0  0  0  0  0  0
   -1.6248    3.6099    2.4815 H   0  0  0  0  0  0  0  0  0  0  0  0
   -2.2644    3.4949    0.8375 H   0  0  0  0  0  0  0  0  0  0  0  0
   -3.3741    3.5939    2.2175 H   0  0  0  0  0  0  0  0  0  0  0  0
   -0.9750    1.0274    0.1566 N   0  0  0  0  0  0  0  0  0  0  0  0
    0.2023    0.5266   -0.5070 C   0  0  2  0  0  0  0  0  0  0  0  0
   -0.1429   -0.8523   -1.0582 C   0  0  0  0  0  0  0  0  0  0  0  0
   -0.9924   -1.5820   -0.5515 O   0  0  0  0  0  0  0  0  0  0  0  0
    1.4058    0.4367    0.4383 C   0  0  0  0  0  0  0  0  0  0  0  0
    1.8921    1.7907    0.8943 C   0  0  0  0  0  0  0  0  0  0  0  0
    2.7203    2.5494    0.0670 C   0  0  0  0  0  0  0  0  0  0  0  0
    1.5140    2.2831    2.1434 C   0  0  0  0  0  0  0  0  0  0  0  0
    3.1701    3.8005    0.4888 C   0  0  0  0  0  0  0  0  0  0  0  0
    1.9639    3.5342    2.5652 C   0  0  0  0  0  0  0  0  0  0  0  0
    2.7920    4.2929    1.7379 C   0  0  0  0  0  0  0  0  0  0  0  0
    3.2322    5.5132    2.1498 O   0  0  0  0  0  0  0  0  0  0  0  0
   -1.7582    1.3241   -0.4207 H   0  0  0  0  0  0  0  0  0  0  0  0
    0.4031    1.2072   -1.3428 H   0  0  0  0  0  0  0  0  0  0  0  0
    2.2285   -0.1082   -0.0441 H   0  0  0  0  0  0  0  0  0  0  0  0
    1.1514   -0.1547    1.3279 H   0  0  0  0  0  0  0  0  0  0  0  0
    3.0197    2.1736   -0.9077 H   0  0  0  0  0  0  0  0  0  0  0  0
    0.8689    1.6989    2.7946 H   0  0  0  0  0  0  0  0  0  0  0  0
    3.8153    4.3868   -0.1601 H   0  0  0  0  0  0  0  0  0  0  0  0
    1.6662    3.9120    3.5393 H   0  0  0  0  0  0  0  0  0  0  0  0
    2.8861    5.7148    3.0338 H   0  0  0  0  0  0  0  0  0  0  0  0
    0.5748   -1.1463   -2.2092 N   0  0  0  0  0  0  0  0  0  0  0  0
    0.4219   -2.3800   -2.9464 C   0  0  2  0  0  0  0  0  0  0  0  0
    0.5288   -3.5343   -1.9586 C   0  0  0  0  0  0  0  0  0  0  0  0
    1.0924   -3.4362   -0.8706 O   0  0  0  0  0  0  0  0  0  0  0  0
    1.4693   -2.5034   -4.0420 C   0  0  0  0  0  0  0  0  0  0  0  0
    1.2411   -0.4598   -2.5507 H   0  0  0  0  0  0  0  0  0  0  0  0
   -0.5823   -2.3647   -3.3837 H   0  0  0  0  0  0  0  0  0  0  0  0
    2.4819   -2.5203   -3.6229 H   0  0  0  0  0  0  0  0  0  0  0  0
    1.3344   -3.4249   -4.6179 H   0  0  0  0  0  0  0  0  0  0  0  0
    1.4103   -1.6568   -4.7346 H   0  0  0  0  0  0  0  0  0  0  0  0
   -0.0413   -4.6990   -2.4533 N   0  0  0  0  0  0  0  0  0  0  0  0
   -0.0561   -5.9368   -1.7093 C   0  0  0  0  0  0  0  0  0  0  0  0
   -0.5036   -4.6840   -3.3577 H   0  0  0  0  0  0  0  0  0  0  0  0
    0.8258   -6.5370   -1.9775 H   0  0  0  0  0  0  0  0  0  0  0  0
   -0.0359   -5.7170   -0.6317 H   0  0  0  0  0  0  0  0  0  0  0  0
   -0.9699   -6.4992   -1.9517 H   0  0  0  0  0  0  0  0  0  0  0  0
 23 25  2  0  0  0  0
 22 23  1  0  0  0  0
 24 26  1  0  0  0  0
 22 24  2  0  0  0  0
 25 27  1  0  0  0  0
 26 27  2  0  0  0  0
 21 22  1  0  0  0  0
 27 28  1  0  0  0  0
  1  3  1  0  0  0  0
  1  7  1  0  0  0  0
  1  2  2  0  0  0  0
 39 40  1  0  0  0  0
 40 48  1  0  0  0  0
 40 41  2  0  0  0  0
  8  9  1  0  0  0  0
  9 17  1  0  0  0  0
  9 10  2  0  0  0  0
 18 19  1  0  0  0  0
 19 38  1  0  0  0  0
 19 20  2  0  0  0  0
 39 42  1  0  0  0  0
  8 11  1  0  0  0  0
 48 49  1  0  0  0  0
 18 21  1  0  0  0  0
 38 39  1  0  0  0  0
  7  8  1  0  0  0  0
 17 18  1  0  0  0  0
 23 33  1  0  0  0  0
 24 34  1  0  0  0  0
 25 35  1  0  0  0  0
 26 36  1  0  0  0  0
  3  4  1  0  0  0  0
  3  5  1  0  0  0  0
  3  6  1  0  0  0  0
 42 45  1  0  0  0  0
 42 46  1  0  0  0  0
 42 47  1  0  0  0  0
 11 14  1  0  0  0  0
 11 15  1  0  0  0  0
 11 16  1  0  0  0  0
 49 51  1  0  0  0  0
 49 52  1  0  0  0  0
 49 53  1  0  0  0  0
 21 31  1  0  0  0  0
 21 32  1  0  0  0  0
 39 44  1  0  0  0  0
  8 13  1  0  0  0  0
 18 30  1  0  0  0  0
 48 50  1  0  0  0  0
  7 12  1  0  0  0  0
 38 43  1  0  0  0  0
 17 29  1  0  0  0  0
 28 37  1  0  0  0  0
M  END
$$$$

  -OEChem-05262214473D

 53 53  0     1  0  0  0  0  0999 V2000
   -1.9298    0.2574    3.9747 C   0  0  0  0  0  0  0  0  0  0  0  0
   -0.9825   -0.3573    3.4990 O   0  0  0  0  0  0  0  0  0  0  0  0
   -2.3617   -0.0250    5.3754 C   0  0  0  0  0  0  0  0  0  0  0  0
   -3.1214   -0.8213    5.4288 H   0  0  0  0  0  0  0  0  0  0  0  0
   -1.5305   -0.3726    6.0097 H   0  0  0  0  0  0  0  0  0  0  0  0
   -2.7997    0.8299    5.9150 H   0  0  0  0  0  0  0  0  0  0  0  0
   -2.6795    1.2298    3.3336 N   0  0  0  0  0  0  0  0  0  0  0  0
   -2.4327    1.6559    1.9812 C   0  0  2  0  0  0  0  0  0  0  0  0
   -1.0977    1.0705    1.5400 C   0  0  0  0  0  0  0  0  0  0  0  0
   -0.2256    0.7177    2.3313 O   0  0  0  0  0  0  0  0  0  0  0  0
   -2.4239    3.1726    1.8718 C   0  0  0  0  0  0  0  0  0  0  0  0
   -3.4446    1.6657    3.8454 H   0  0  0  0  0  0  0  0  0  0  0  0
   -3.2368    1.2374    1.3661 H   0  0  0  0  0  0  0  0  0  0  0  0
   -1.6248    3.6099    2.4815 H   0  0  0  0  0  0  0  0  0  0  0  0
   -2.2644    3.4949    0.8375 H   0  0  0  0  0  0  0  0  0  0  0  0
   -3.3741    3.5939    2.2175 H   0  0  0  0  0  0  0  0  0  0  0  0
   -0.9750    1.0274    0.1566 N   0  0  0  0  0  0  0  0  0  0  0  0
    0.2023    0.5266   -0.5070 C   0  0  2  0  0  0  0  0  0  0  0  0
   -0.1429   -0.8523   -1.0582 C   0  0  0  0  0  0  0  0  0  0  0  0
   -1.1555   -1.4686   -0.7331 O   0  0  0  0  0  0  0  0  0  0  0  0
    1.4058    0.4367    0.4383 C   0  0  0  0  0  0  0  0  0  0  0  0
    1.8921    1.7907    0.8943 C   0  0  0  0  0  0  0  0  0  0  0  0
    2.7203    2.5494    0.0670 C   0  0  0  0  0  0  0  0  0  0  0  0
    1.5140    2.2831    2.1434 C   0  0  0  0  0  0  0  0  0  0  0  0
    3.1701    3.8005    0.4888 C   0  0  0  0  0  0  0  0  0  0  0  0
    1.9639    3.5342    2.5652 C   0  0  0  0  0  0  0  0  0  0  0  0
    2.7920    4.2929    1.7379 C   0  0  0  0  0  0  0  0  0  0  0  0
    3.2322    5.5132    2.1498 O   0  0  0  0  0  0  0  0  0  0  0  0
   -1.7582    1.3241   -0.4207 H   0  0  0  0  0  0  0  0  0  0  0  0
    0.4031    1.2072   -1.3428 H   0  0  0  0  0  0  0  0  0  0  0  0
    2.2285   -0.1082   -0.0441 H   0  0  0  0  0  0  0  0  0  0  0  0
    1.1514   -0.1547    1.3279 H   0  0  0  0  0  0  0  0  0  0  0  0
    3.0197    2.1736   -0.9077 H   0  0  0  0  0  0  0  0  0  0  0  0
    0.8689    1.6989    2.7946 H   0  0  0  0  0  0  0  0  0  0  0  0
    3.8153    4.3868   -0.1601 H   0  0  0  0  0  0  0  0  0  0  0  0
    1.6662    3.9120    3.5393 H   0  0  0  0  0  0  0  0  0  0  0  0
    2.8861    5.7148    3.0338 H   0  0  0  0  0  0  0  0  0  0  0  0
    0.7883   -1.2869   -1.9912 N   0  0  0  0  0  0  0  0  0  0  0  0
    0.6868   -2.5511   -2.6841 C   0  0  2  0  0  0  0  0  0  0  0  0
    0.4457   -3.6387   -1.6456 C   0  0  0  0  0  0  0  0  0  0  0  0
    0.7493   -3.5140   -0.4609 O   0  0  0  0  0  0  0  0  0  0  0  0
    1.9413   -2.8408   -3.4934 C   0  0  0  0  0  0  0  0  0  0  0  0
    1.5810   -0.6862   -2.1973 H   0  0  0  0  0  0  0  0  0  0  0  0
   -0.1823   -2.4794   -3.3472 H   0  0  0  0  0  0  0  0  0  0  0  0
    2.8226   -2.9161   -2.8461 H   0  0  0  0  0  0  0  0  0  0  0  0
    1.8514   -3.7851   -4.0404 H   0  0  0  0  0  0  0  0  0  0  0  0
    2.1296   -2.0427   -4.2196 H   0  0  0  0  0  0  0  0  0  0  0  0
   -0.1087   -4.7812   -2.2054 N   0  0  0  0  0  0  0  0  0  0  0  0
   -0.4195   -5.9582   -1.4282 C   0  0  0  0  0  0  0  0  0  0  0  0
   -0.3453   -4.7894   -3.1932 H   0  0  0  0  0  0  0  0  0  0  0  0
    0.4355   -6.6498   -1.4511 H   0  0  0  0  0  0  0  0  0  0  0  0
   -0.6271   -5.6664   -0.3881 H   0  0  0  0  0  0  0  0  0  0  0  0
   -1.3042   -6.4549   -1.8532 H   0  0  0  0  0  0  0  0  0  0  0  0
 23 25  2  0  0  0  0
 22 23  1  0  0  0  0
 24 26  1  0  0  0  0
 22 24  2  0  0  0  0
 25 27  1  0  0  0  0
 26 27  2  0  0  0  0
 21 22  1  0  0  0  0
 27 28  1  0  0  0  0
  1  3  1  0  0  0  0
  1  7  1  0  0  0  0
  1  2  2  0  0  0  0
 39 40  1  0  0  0  0
 40 48  1  0  0  0  0
 40 41  2  0  0  0  0
  8  9  1  0  0  0  0
  9 17  1  0  0  0  0
  9 10  2  0  0  0  0
 18 19  1  0  0  0  0
 19 38  1  0  0  0  0
 19 20  2  0  0  0  0
 39 42  1  0  0  0  0
  8 11  1  0  0  0  0
 48 49  1  0  0  0  0
 18 21  1  0  0  0  0
 38 39  1  0  0  0  0
  7  8  1  0  0  0  0
 17 18  1  0  0  0  0
 23 33  1  0  0  0  0
 24 34  1  0  0  0  0
 25 35  1  0  0  0  0
 26 36  1  0  0  0  0
  3  4  1  0  0  0  0
  3  5  1  0  0  0  0
  3  6  1  0  0  0  0
 42 45  1  0  0  0  0
 42 46  1  0  0  0  0
 42 47  1  0  0  0  0
 11 14  1  0  0  0  0
 11 15  1  0  0  0  0
 11 16  1  0  0  0  0
 49 51  1  0  0  0  0
 49 52  1  0  0  0  0
 49 53  1  0  0  0  0
 21 31  1  0  0  0  0
 21 32  1  0  0  0  0
 39 44  1  0  0  0  0
  8 13  1  0  0  0  0
 18 30  1  0  0  0  0
 48 50  1  0  0  0  0
  7 12  1  0  0  0  0
 38 43  1  0  0  0  0
 17 29  1  0  0  0  0
 28 37  1  0  0  0  0
M  END
$$$$

  -OEChem-05262214473D

 53 53  0     1  0  0  0  0  0999 V2000
   -1.9298    0.2574    3.9747 C   0  0  0  0  0  0  0  0  0  0  0  0
   -0.9825   -0.3573    3.4990 O   0  0  0  0  0  0  0  0  0  0  0  0
   -2.3617   -0.0250    5.3754 C   0  0  0  0  0  0  0  0  0  0  0  0
   -3.1214   -0.8213    5.4288 H   0  0  0  0  0  0  0  0  0  0  0  0
   -1.5305   -0.3726    6.0097 H   0  0  0  0  0  0  0  0  0  0  0  0
   -2.7997    0.8299    5.9150 H   0  0  0  0  0  0  0  0  0  0  0  0
   -2.6795    1.2298    3.3336 N   0  0  0  0  0  0  0  0  0  0  0  0
   -2.4327    1.6559    1.9812 C   0  0  2  0  0  0  0  0  0  0  0  0
   -1.0977    1.0705    1.5400 C   0  0  0  0  0  0  0  0  0  0  0  0
   -0.2256    0.7177    2.3313 O   0  0  0  0  0  0  0  0  0  0  0  0
   -2.4239    3.1726    1.8718 C   0  0  0  0  0  0  0  0  0  0  0  0
   -3.4446    1.6657    3.8454 H   0  0  0  0  0  0  0  0  0  0  0  0
   -3.2368    1.2374    1.3661 H   0  0  0  0  0  0  0  0  0  0  0  0
   -1.6248    3.6099    2.4815 H   0  0  0  0  0  0  0  0  0  0  0  0
   -2.2644    3.4949    0.8375 H   0  0  0  0  0  0  0  0  0  0  0  0
   -3.3741    3.5939    2.2175 H   0  0  0  0  0  0  0  0  0  0  0  0
   -0.9750    1.0274    0.1566 N   0  0  0  0  0  0  0  0  0  0  0  0
    0.2023    0.5266   -0.5070 C   0  0  2  0  0  0  0  0  0  0  0  0
   -0.2333   -0.6530   -1.3690 C   0  0  0  0  0  0  0  0  0  0  0  0
   -1.4035   -1.0177   -1.4620 O   0  0  0  0  0  0  0  0  0  0  0  0
    1.2851    0.0896    0.4862 C   0  0  0  0  0  0  0  0  0  0  0  0
    1.8674    1.2465    1.2611 C   0  0  0  0  0  0  0  0  0  0  0  0
    2.8542    2.0461    0.6845 C   0  0  0  0  0  0  0  0  0  0  0  0
    1.4192    1.5156    2.5543 C   0  0  0  0  0  0  0  0  0  0  0  0
    3.3927    3.1149    1.4009 C   0  0  0  0  0  0  0  0  0  0  0  0
    1.9577    2.5843    3.2708 C   0  0  0  0  0  0  0  0  0  0  0  0
    2.9444    3.3840    2.6941 C   0  0  0  0  0  0  0  0  0  0  0  0
    3.4709    4.4262    3.3936 O   0  0  0  0  0  0  0  0  0  0  0  0
   -1.7582    1.3241   -0.4207 H   0  0  0  0  0  0  0  0  0  0  0  0
    0.5612    1.3330   -1.1573 H   0  0  0  0  0  0  0  0  0  0  0  0
    2.0885   -0.4456   -0.0379 H   0  0  0  0  0  0  0  0  0  0  0  0
    0.8775   -0.6345    1.2040 H   0  0  0  0  0  0  0  0  0  0  0  0
    3.2093    1.8438   -0.3224 H   0  0  0  0  0  0  0  0  0  0  0  0
    0.6505    0.8978    3.0116 H   0  0  0  0  0  0  0  0  0  0  0  0
    4.1615    3.7341    0.9463 H   0  0  0  0  0  0  0  0  0  0  0  0
    1.6046    2.7886    4.2777 H   0  0  0  0  0  0  0  0  0  0  0  0
    3.0600    4.4842    4.2709 H   0  0  0  0  0  0  0  0  0  0  0  0
    0.8327   -1.2148   -2.0579 N   0  0  0  0  0  0  0  0  0  0  0  0
    0.6918   -2.3324   -2.9633 C   0  0  2  0  0  0  0  0  0  0  0  0
   -0.0955   -3.4217   -2.2471 C   0  0  0  0  0  0  0  0  0  0  0  0
   -0.1688   -3.5014   -1.0226 O   0  0  0  0  0  0  0  0  0  0  0  0
    2.0475   -2.8509   -3.4174 C   0  0  0  0  0  0  0  0  0  0  0  0
    1.7584   -0.8206   -1.9186 H   0  0  0  0  0  0  0  0  0  0  0  0
    0.1178   -1.9718   -3.8238 H   0  0  0  0  0  0  0  0  0  0  0  0
    2.6371   -3.2164   -2.5688 H   0  0  0  0  0  0  0  0  0  0  0  0
    1.9386   -3.6790   -4.1255 H   0  0  0  0  0  0  0  0  0  0  0  0
    2.6242   -2.0581   -3.9059 H   0  0  0  0  0  0  0  0  0  0  0  0
   -0.6711   -4.3194   -3.1353 N   0  0  0  0  0  0  0  0  0  0  0  0
   -1.4581   -5.4498   -2.7009 C   0  0  0  0  0  0  0  0  0  0  0  0
   -0.5744   -4.1652   -4.1346 H   0  0  0  0  0  0  0  0  0  0  0  0
   -0.8090   -6.3321   -2.6001 H   0  0  0  0  0  0  0  0  0  0  0  0
   -1.9211   -5.2225   -1.7294 H   0  0  0  0  0  0  0  0  0  0  0  0
   -2.2441   -5.6558   -3.4424 H   0  0  0  0  0  0  0  0  0  0  0  0
 23 25  2  0  0  0  0
 22 23  1  0  0  0  0
 24 26  1  0  0  0  0
 22 24  2  0  0  0  0
 25 27  1  0  0  0  0
 26 27  2  0  0  0  0
 21 22  1  0  0  0  0
 27 28  1  0  0  0  0
  1  3  1  0  0  0  0
  1  7  1  0  0  0  0
  1  2  2  0  0  0  0
 39 40  1  0  0  0  0
 40 48  1  0  0  0  0
 40 41  2  0  0  0  0
  8  9  1  0  0  0  0
  9 17  1  0  0  0  0
  9 10  2  0  0  0  0
 18 19  1  0  0  0  0
 19 38  1  0  0  0  0
 19 20  2  0  0  0  0
 39 42  1  0  0  0  0
  8 11  1  0  0  0  0
 48 49  1  0  0  0  0
 18 21  1  0  0  0  0
 38 39  1  0  0  0  0
  7  8  1  0  0  0  0
 17 18  1  0  0  0  0
 23 33  1  0  0  0  0
 24 34  1  0  0  0  0
 25 35  1  0  0  0  0
 26 36  1  0  0  0  0
  3  4  1  0  0  0  0
  3  5  1  0  0  0  0
  3  6  1  0  0  0  0
 42 45  1  0  0  0  0
 42 46  1  0  0  0  0
 42 47  1  0  0  0  0
 11 14  1  0  0  0  0
 11 15  1  0  0  0  0
 11 16  1  0  0  0  0
 49 51  1  0  0  0  0
 49 52  1  0  0  0  0
 49 53  1  0  0  0  0
 21 31  1  0  0  0  0
 21 32  1  0  0  0  0
 39 44  1  0  0  0  0
  8 13  1  0  0  0  0
 18 30  1  0  0  0  0
 48 50  1  0  0  0  0
  7 12  1  0  0  0  0
 38 43  1  0  0  0  0
 17 29  1  0  0  0  0
 28 37  1  0  0  0  0
M  END
$$$$

  -OEChem-05262214473D

 53 53  0     1  0  0  0  0  0999 V2000
   -1.9298    0.2574    3.9747 C   0  0  0  0  0  0  0  0  0  0  0  0
   -0.9825   -0.3573    3.4990 O   0  0  0  0  0  0  0  0  0  0  0  0
   -2.3617   -0.0250    5.3754 C   0  0  0  0  0  0  0  0  0  0  0  0
   -3.1214   -0.8213    5.4288 H   0  0  0  0  0  0  0  0  0  0  0  0
   -1.5305   -0.3726    6.0097 H   0  0  0  0  0  0  0  0  0  0  0  0
   -2.7997    0.8299    5.9150 H   0  0  0  0  0  0  0  0  0  0  0  0
   -2.6795    1.2298    3.3336 N   0  0  0  0  0  0  0  0  0  0  0  0
   -2.4327    1.6559    1.9812 C   0  0  2  0  0  0  0  0  0  0  0  0
   -1.0977    1.0705    1.5400 C   0  0  0  0  0  0  0  0  0  0  0  0
   -0.2256    0.7177    2.3313 O   0  0  0  0  0  0  0  0  0  0  0  0
   -2.4239    3.1726    1.8718 C   0  0  0  0  0  0  0  0  0  0  0  0
   -3.4446    1.6657    3.8454 H   0  0  0  0  0  0  0  0  0  0  0  0
   -3.2368    1.2374    1.3661 H   0  0  0  0  0  0  0  0  0  0  0  0
   -1.6248    3.6099    2.4815 H   0  0  0  0  0  0  0  0  0  0  0  0
   -2.2644    3.4949    0.8375 H   0  0  0  0  0  0  0  0  0  0  0  0
   -3.3741    3.5939    2.2175 H   0  0  0  0  0  0  0  0  0  0  0  0
   -0.9750    1.0274    0.1566 N   0  0  0  0  0  0  0  0  0  0  0  0
    0.2023    0.5266   -0.5070 C   0  0  2  0  0  0  0  0  0  0  0  0
   -0.2333   -0.6530   -1.3690 C   0  0  0  0  0  0  0  0  0  0  0  0
   -1.4048   -0.8586   -1.6791 O   0  0  0  0  0  0  0  0  0  0  0  0
    1.2851    0.0896    0.4862 C   0  0  0  0  0  0  0  0  0  0  0  0
    1.8674    1.2465    1.2611 C   0  0  0  0  0  0  0  0  0  0  0  0
    2.8542    2.0461    0.6845 C   0  0  0  0  0  0  0  0  0  0  0  0
    1.4192    1.5156    2.5543 C   0  0  0  0  0  0  0  0  0  0  0  0
    3.3927    3.1149    1.4009 C   0  0  0  0  0  0  0  0  0  0  0  0
    1.9577    2.5843    3.2708 C   0  0  0  0  0  0  0  0  0  0  0  0
    2.9444    3.3840    2.6941 C   0  0  0  0  0  0  0  0  0  0  0  0
    3.4709    4.4262    3.3936 O   0  0  0  0  0  0  0  0  0  0  0  0
   -1.7582    1.3241   -0.4207 H   0  0  0  0  0  0  0  0  0  0  0  0
    0.5612    1.3330   -1.1573 H   0  0  0  0  0  0  0  0  0  0  0  0
    2.0885   -0.4456   -0.0379 H   0  0  0  0  0  0  0  0  0  0  0  0
    0.8775   -0.6345    1.2040 H   0  0  0  0  0  0  0  0  0  0  0  0
    3.2093    1.8438   -0.3224 H   0  0  0  0  0  0  0  0  0  0  0  0
    0.6505    0.8978    3.0116 H   0  0  0  0  0  0  0  0  0  0  0  0
    4.1615    3.7341    0.9463 H   0  0  0  0  0  0  0  0  0  0  0  0
    1.6046    2.7886    4.2777 H   0  0  0  0  0  0  0  0  0  0  0  0
    3.0600    4.4842    4.2709 H   0  0  0  0  0  0  0  0  0  0  0  0
    0.8470   -1.4163   -1.7894 N   0  0  0  0  0  0  0  0  0  0  0  0
    0.7150   -2.5795   -2.6369 C   0  0  2  0  0  0  0  0  0  0  0  0
   -0.3548   -3.4809   -2.0349 C   0  0  0  0  0  0  0  0  0  0  0  0
   -0.6765   -3.4406   -0.8491 O   0  0  0  0  0  0  0  0  0  0  0  0
    2.0368   -3.3194   -2.7709 C   0  0  0  0  0  0  0  0  0  0  0  0
    1.7773   -1.1436   -1.4861 H   0  0  0  0  0  0  0  0  0  0  0  0
    0.3819   -2.2207   -3.6168 H   0  0  0  0  0  0  0  0  0  0  0  0
    2.3865   -3.6864   -1.7990 H   0  0  0  0  0  0  0  0  0  0  0  0
    1.9419   -4.1841   -3.4360 H   0  0  0  0  0  0  0  0  0  0  0  0
    2.8127   -2.6609   -3.1762 H   0  0  0  0  0  0  0  0  0  0  0  0
   -0.8776   -4.3654   -2.9679 N   0  0  0  0  0  0  0  0  0  0  0  0
   -1.8985   -5.3326   -2.6389 C   0  0  0  0  0  0  0  0  0  0  0  0
   -0.5655   -4.3155   -3.9333 H   0  0  0  0  0  0  0  0  0  0  0  0
   -1.4251   -6.2840   -2.3547 H   0  0  0  0  0  0  0  0  0  0  0  0
   -2.5012   -4.9577   -1.7985 H   0  0  0  0  0  0  0  0  0  0  0  0
   -2.5472   -5.4925   -3.5127 H   0  0  0  0  0  0  0  0  0  0  0  0
 23 25  2  0  0  0  0
 22 23  1  0  0  0  0
 24 26  1  0  0  0  0
 22 24  2  0  0  0  0
 25 27  1  0  0  0  0
 26 27  2  0  0  0  0
 21 22  1  0  0  0  0
 27 28  1  0  0  0  0
  1  3  1  0  0  0  0
  1  7  1  0  0  0  0
  1  2  2  0  0  0  0
 39 40  1  0  0  0  0
 40 48  1  0  0  0  0
 40 41  2  0  0  0  0
  8  9  1  0  0  0  0
  9 17  1  0  0  0  0
  9 10  2  0  0  0  0
 18 19  1  0  0  0  0
 19 38  1  0  0  0  0
 19 20  2  0  0  0  0
 39 42  1  0  0  0  0
  8 11  1  0  0  0  0
 48 49  1  0  0  0  0
 18 21  1  0  0  0  0
 38 39  1  0  0  0  0
  7  8  1  0  0  0  0
 17 18  1  0  0  0  0
 23 33  1  0  0  0  0
 24 34  1  0  0  0  0
 25 35  1  0  0  0  0
 26 36  1  0  0  0  0
  3  4  1  0  0  0  0
  3  5  1  0  0  0  0
  3  6  1  0  0  0  0
 42 45  1  0  0  0  0
 42 46  1  0  0  0  0
 42 47  1  0  0  0  0
 11 14  1  0  0  0  0
 11 15  1  0  0  0  0
 11 16  1  0  0  0  0
 49 51  1  0  0  0  0
 49 52  1  0  0  0  0
 49 53  1  0  0  0  0
 21 31  1  0  0  0  0
 21 32  1  0  0  0  0
 39 44  1  0  0  0  0
  8 13  1  0  0  0  0
 18 30  1  0  0  0  0
 48 50  1  0  0  0  0
  7 12  1  0  0  0  0
 38 43  1  0  0  0  0
 17 29  1  0  0  0  0
 28 37  1  0  0  0  0
M  END
$$$$

  -OEChem-05262214473D

 53 53  0     1  0  0  0  0  0999 V2000
   -1.9298    0.2574    3.9747 C   0  0  0  0  0  0  0  0  0  0  0  0
   -0.9825   -0.3573    3.4990 O   0  0  0  0  0  0  0  0  0  0  0  0
   -2.3617   -0.0250    5.3754 C   0  0  0  0  0  0  0  0  0  0  0  0
   -3.1214   -0.8213    5.4288 H   0  0  0  0  0  0  0  0  0  0  0  0
   -1.5305   -0.3726    6.0097 H   0  0  0  0  0  0  0  0  0  0  0  0
   -2.7997    0.8299    5.9150 H   0  0  0  0  0  0  0  0  0  0  0  0
   -2.6795    1.2298    3.3336 N   0  0  0  0  0  0  0  0  0  0  0  0
   -2.4327    1.6559    1.9812 C   0  0  2  0  0  0  0  0  0  0  0  0
   -1.0977    1.0705    1.5400 C   0  0  0  0  0  0  0  0  0  0  0  0
   -0.2256    0.7177    2.3313 O   0  0  0  0  0  0  0  0  0  0  0  0
   -2.4239    3.1726    1.8718 C   0  0  0  0  0  0  0  0  0  0  0  0
   -3.4446    1.6657    3.8454 H   0  0  0  0  0  0  0  0  0  0  0  0
   -3.2368    1.2374    1.3661 H   0  0  0  0  0  0  0  0  0  0  0  0
   -1.6248    3.6099    2.4815 H   0  0  0  0  0  0  0  0  0  0  0  0
   -2.2644    3.4949    0.8375 H   0  0  0  0  0  0  0  0  0  0  0  0
   -3.3741    3.5939    2.2175 H   0  0  0  0  0  0  0  0  0  0  0  0
   -0.9750    1.0274    0.1566 N   0  0  0  0  0  0  0  0  0  0  0  0
    0.2023    0.5266   -0.5070 C   0  0  2  0  0  0  0  0  0  0  0  0
   -0.2333   -0.6530   -1.3690 C   0  0  0  0  0  0  0  0  0  0  0  0
   -1.3394   -0.7207   -1.9009 O   0  0  0  0  0  0  0  0  0  0  0  0
    1.2851    0.0896    0.4862 C   0  0  0  0  0  0  0  0  0  0  0  0
    1.8674    1.2465    1.2611 C   0  0  0  0  0  0  0  0  0  0  0  0
    2.8542    2.0461    0.6845 C   0  0  0  0  0  0  0  0  0  0  0  0
    1.4192    1.5156    2.5543 C   0  0  0  0  0  0  0  0  0  0  0  0
    3.3927    3.1149    1.4009 C   0  0  0  0  0  0  0  0  0  0  0  0
    1.9577    2.5843    3.2708 C   0  0  0  0  0  0  0  0  0  0  0  0
    2.9444    3.3840    2.6941 C   0  0  0  0  0  0  0  0  0  0  0  0
    3.4709    4.4262    3.3936 O   0  0  0  0  0  0  0  0  0  0  0  0
   -1.7582    1.3241   -0.4207 H   0  0  0  0  0  0  0  0  0  0  0  0
    0.5612    1.3330   -1.1573 H   0  0  0  0  0  0  0  0  0  0  0  0
    2.0885   -0.4456   -0.0379 H   0  0  0  0  0  0  0  0  0  0  0  0
    0.8775   -0.6345    1.2040 H   0  0  0  0  0  0  0  0  0  0  0  0
    3.2093    1.8438   -0.3224 H   0  0  0  0  0  0  0  0  0  0  0  0
    0.6505    0.8978    3.0116 H   0  0  0  0  0  0  0  0  0  0  0  0
    4.1615    3.7341    0.9463 H   0  0  0  0  0  0  0  0  0  0  0  0
    1.6046    2.7886    4.2777 H   0  0  0  0  0  0  0  0  0  0  0  0
    3.0600    4.4842    4.2709 H   0  0  0  0  0  0  0  0  0  0  0  0
    0.7776   -1.5931   -1.5123 N   0  0  0  0  0  0  0  0  0  0  0  0
    0.6358   -2.7974   -2.2986 C   0  0  2  0  0  0  0  0  0  0  0  0
   -0.6565   -3.4846   -1.8775 C   0  0  0  0  0  0  0  0  0  0  0  0
   -1.1929   -3.2948   -0.7878 O   0  0  0  0  0  0  0  0  0  0  0  0
    1.8285   -3.7226   -2.1138 C   0  0  0  0  0  0  0  0  0  0  0  0
    1.6617   -1.4264   -1.0407 H   0  0  0  0  0  0  0  0  0  0  0  0
    0.5592   -2.4844   -3.3456 H   0  0  0  0  0  0  0  0  0  0  0  0
    1.9215   -4.0468   -1.0709 H   0  0  0  0  0  0  0  0  0  0  0  0
    1.7330   -4.6214   -2.7320 H   0  0  0  0  0  0  0  0  0  0  0  0
    2.7603   -3.2169   -2.3890 H   0  0  0  0  0  0  0  0  0  0  0  0
   -1.1173   -4.3673   -2.8443 N   0  0  0  0  0  0  0  0  0  0  0  0
   -2.3191   -5.1503   -2.6758 C   0  0  0  0  0  0  0  0  0  0  0  0
   -0.6193   -4.4472   -3.7260 H   0  0  0  0  0  0  0  0  0  0  0  0
   -2.0623   -6.1291   -2.2446 H   0  0  0  0  0  0  0  0  0  0  0  0
   -3.0090   -4.6222   -2.0010 H   0  0  0  0  0  0  0  0  0  0  0  0
   -2.8020   -5.2956   -3.6534 H   0  0  0  0  0  0  0  0  0  0  0  0
 23 25  2  0  0  0  0
 22 23  1  0  0  0  0
 24 26  1  0  0  0  0
 22 24  2  0  0  0  0
 25 27  1  0  0  0  0
 26 27  2  0  0  0  0
 21 22  1  0  0  0  0
 27 28  1  0  0  0  0
  1  3  1  0  0  0  0
  1  7  1  0  0  0  0
  1  2  2  0  0  0  0
 39 40  1  0  0  0  0
 40 48  1  0  0  0  0
 40 41  2  0  0  0  0
  8  9  1  0  0  0  0
  9 17  1  0  0  0  0
  9 10  2  0  0  0  0
 18 19  1  0  0  0  0
 19 38  1  0  0  0  0
 19 20  2  0  0  0  0
 39 42  1  0  0  0  0
  8 11  1  0  0  0  0
 48 49  1  0  0  0  0
 18 21  1  0  0  0  0
 38 39  1  0  0  0  0
  7  8  1  0  0  0  0
 17 18  1  0  0  0  0
 23 33  1  0  0  0  0
 24 34  1  0  0  0  0
 25 35  1  0  0  0  0
 26 36  1  0  0  0  0
  3  4  1  0  0  0  0
  3  5  1  0  0  0  0
  3  6  1  0  0  0  0
 42 45  1  0  0  0  0
 42 46  1  0  0  0  0
 42 47  1  0  0  0  0
 11 14  1  0  0  0  0
 11 15  1  0  0  0  0
 11 16  1  0  0  0  0
 49 51  1  0  0  0  0
 49 52  1  0  0  0  0
 49 53  1  0  0  0  0
 21 31  1  0  0  0  0
 21 32  1  0  0  0  0
 39 44  1  0  0  0  0
  8 13  1  0  0  0  0
 18 30  1  0  0  0  0
 48 50  1  0  0  0  0
  7 12  1  0  0  0  0
 38 43  1  0  0  0  0
 17 29  1  0  0  0  0
 28 37  1  0  0  0  0
M  END
$$$$

  -OEChem-05262214473D

 53 53  0     1  0  0  0  0  0999 V2000
   -1.9298    0.2574    3.9747 C   0  0  0  0  0  0  0  0  0  0  0  0
   -0.9825   -0.3573    3.4990 O   0  0  0  0  0  0  0  0  0  0  0  0
   -2.3617   -0.0250    5.3754 C   0  0  0  0  0  0  0  0  0  0  0  0
   -3.1214   -0.8213    5.4288 H   0  0  0  0  0  0  0  0  0  0  0  0
   -1.5305   -0.3726    6.0097 H   0  0  0  0  0  0  0  0  0  0  0  0
   -2.7997    0.8299    5.9150 H   0  0  0  0  0  0  0  0  0  0  0  0
   -2.6795    1.2298    3.3336 N   0  0  0  0  0  0  0  0  0  0  0  0
   -2.4327    1.6559    1.9812 C   0  0  2  0  0  0  0  0  0  0  0  0
   -1.0977    1.0705    1.5400 C   0  0  0  0  0  0  0  0  0  0  0  0
   -0.2256    0.7177    2.3313 O   0  0  0  0  0  0  0  0  0  0  0  0
   -2.4239    3.1726    1.8718 C   0  0  0  0  0  0  0  0  0  0  0  0
   -3.4446    1.6657    3.8454 H   0  0  0  0  0  0  0  0  0  0  0  0
   -3.2368    1.2374    1.3661 H   0  0  0  0  0  0  0  0  0  0  0  0
   -1.6248    3.6099    2.4815 H   0  0  0  0  0  0  0  0  0  0  0  0
   -2.2644    3.4949    0.8375 H   0  0  0  0  0  0  0  0  0  0  0  0
   -3.3741    3.5939    2.2175 H   0  0  0  0  0  0  0  0  0  0  0  0
   -0.9750    1.0274    0.1566 N   0  0  0  0  0  0  0  0  0  0  0  0
    0.2023    0.5266   -0.5070 C   0  0  2  0  0  0  0  0  0  0  0  0
   -0.2333   -0.6530   -1.3690 C   0  0  0  0  0  0  0  0  0  0  0  0
   -1.2117   -0.6135   -2.1121 O   0  0  0  0  0  0  0  0  0  0  0  0
    1.2851    0.0896    0.4862 C   0  0  0  0  0  0  0  0  0  0  0  0
    1.8674    1.2465    1.2611 C   0  0  0  0  0  0  0  0  0  0  0  0
    2.8542    2.0461    0.6845 C   0  0  0  0  0  0  0  0  0  0  0  0
    1.4192    1.5156    2.5543 C   0  0  0  0  0  0  0  0  0  0  0  0
    3.3927    3.1149    1.4009 C   0  0  0  0  0  0  0  0  0  0  0  0
    1.9577    2.5843    3.2708 C   0  0  0  0  0  0  0  0  0  0  0  0
    2.9444    3.3840    2.6941 C   0  0  0  0  0  0  0  0  0  0  0  0
    3.4709    4.4262    3.3936 O   0  0  0  0  0  0  0  0  0  0  0  0
   -1.7582    1.3241   -0.4207 H   0  0  0  0  0  0  0  0  0  0  0  0
    0.5612    1.3330   -1.1573 H   0  0  0  0  0  0  0  0  0  0  0  0
    2.0885   -0.4456   -0.0379 H   0  0  0  0  0  0  0  0  0  0  0  0
    0.8775   -0.6345    1.2040 H   0  0  0  0  0  0  0  0  0  0  0  0
    3.2093    1.8438   -0.3224 H   0  0  0  0  0  0  0  0  0  0  0  0
    0.6505    0.8978    3.0116 H   0  0  0  0  0  0  0  0  0  0  0  0
    4.1615    3.7341    0.9463 H   0  0  0  0  0  0  0  0  0  0  0  0
    1.6046    2.7886    4.2777 H   0  0  0  0  0  0  0  0  0  0  0  0
    3.0600    4.4842    4.2709 H   0  0  0  0  0  0  0  0  0  0  0  0
    0.6292   -1.7333   -1.2454 N   0  0  0  0  0  0  0  0  0  0  0  0
    0.4596   -2.9713   -1.9716 C   0  0  2  0  0  0  0  0  0  0  0  0
   -0.9800   -3.4323   -1.7856 C   0  0  0  0  0  0  0  0  0  0  0  0
   -1.6825   -3.0738   -0.8427 O   0  0  0  0  0  0  0  0  0  0  0  0
    1.4367   -4.0330   -1.4911 C   0  0  0  0  0  0  0  0  0  0  0  0
    1.4195   -1.6497   -0.6127 H   0  0  0  0  0  0  0  0  0  0  0  0
    0.6375   -2.7450   -3.0286 H   0  0  0  0  0  0  0  0  0  0  0  0
    1.2738   -4.2730   -0.4341 H   0  0  0  0  0  0  0  0  0  0  0  0
    1.3263   -4.9612   -2.0616 H   0  0  0  0  0  0  0  0  0  0  0  0
    2.4708   -3.6880   -1.5980 H   0  0  0  0  0  0  0  0  0  0  0  0
   -1.3738   -4.3249   -2.7726 N   0  0  0  0  0  0  0  0  0  0  0  0
   -2.6914   -4.9153   -2.8091 C   0  0  0  0  0  0  0  0  0  0  0  0
   -0.7320   -4.5511   -3.5267 H   0  0  0  0  0  0  0  0  0  0  0  0
   -2.6772   -5.8782   -2.2773 H   0  0  0  0  0  0  0  0  0  0  0  0
   -3.4098   -4.2388   -2.3232 H   0  0  0  0  0  0  0  0  0  0  0  0
   -2.9911   -5.0786   -3.8549 H   0  0  0  0  0  0  0  0  0  0  0  0
 23 25  2  0  0  0  0
 22 23  1  0  0  0  0
 24 26  1  0  0  0  0
 22 24  2  0  0  0  0
 25 27  1  0  0  0  0
 26 27  2  0  0  0  0
 21 22  1  0  0  0  0
 27 28  1  0  0  0  0
  1  3  1  0  0  0  0
  1  7  1  0  0  0  0
  1  2  2  0  0  0  0
 39 40  1  0  0  0  0
 40 48  1  0  0  0  0
 40 41  2  0  0  0  0
  8  9  1  0  0  0  0
  9 17  1  0  0  0  0
  9 10  2  0  0  0  0
 18 19  1  0  0  0  0
 19 38  1  0  0  0  0
 19 20  2  0  0  0  0
 39 42  1  0  0  0  0
  8 11  1  0  0  0  0
 48 49  1  0  0  0  0
 18 21  1  0  0  0  0
 38 39  1  0  0  0  0
  7  8  1  0  0  0  0
 17 18  1  0  0  0  0
 23 33  1  0  0  0  0
 24 34  1  0  0  0  0
 25 35  1  0  0  0  0
 26 36  1  0  0  0  0
  3  4  1  0  0  0  0
  3  5  1  0  0  0  0
  3  6  1  0  0  0  0
 42 45  1  0  0  0  0
 42 46  1  0  0  0  0
 42 47  1  0  0  0  0
 11 14  1  0  0  0  0
 11 15  1  0  0  0  0
 11 16  1  0  0  0  0
 49 51  1  0  0  0  0
 49 52  1  0  0  0  0
 49 53  1  0  0  0  0
 21 31  1  0  0  0  0
 21 32  1  0  0  0  0
 39 44  1  0  0  0  0
  8 13  1  0  0  0  0
 18 30  1  0  0  0  0
 48 50  1  0  0  0  0
  7 12  1  0  0  0  0
 38 43  1  0  0  0  0
 17 29  1  0  0  0  0
 28 37  1  0  0  0  0
M  END
$$$$

  -OEChem-05262214473D

 53 53  0     1  0  0  0  0  0999 V2000
   -1.9298    0.2574    3.9747 C   0  0  0  0  0  0  0  0  0  0  0  0
   -0.9825   -0.3573    3.4990 O   0  0  0  0  0  0  0  0  0  0  0  0
   -2.3617   -0.0250    5.3754 C   0  0  0  0  0  0  0  0  0  0  0  0
   -3.1214   -0.8213    5.4288 H   0  0  0  0  0  0  0  0  0  0  0  0
   -1.5305   -0.3726    6.0097 H   0  0  0  0  0  0  0  0  0  0  0  0
   -2.7997    0.8299    5.9150 H   0  0  0  0  0  0  0  0  0  0  0  0
   -2.6795    1.2298    3.3336 N   0  0  0  0  0  0  0  0  0  0  0  0
   -2.4327    1.6559    1.9812 C   0  0  2  0  0  0  0  0  0  0  0  0
   -1.0977    1.0705    1.5400 C   0  0  0  0  0  0  0  0  0  0  0  0
   -0.2256    0.7177    2.3313 O   0  0  0  0  0  0  0  0  0  0  0  0
   -2.4239    3.1726    1.8718 C   0  0  0  0  0  0  0  0  0  0  0  0
   -3.4446    1.6657    3.8454 H   0  0  0  0  0  0  0  0  0  0  0  0
   -3.2368    1.2374    1.3661 H   0  0  0  0  0  0  0  0  0  0  0  0
   -1.6248    3.6099    2.4815 H   0  0  0  0  0  0  0  0  0  0  0  0
   -2.2644    3.4949    0.8375 H   0  0  0  0  0  0  0  0  0  0  0  0
   -3.3741    3.5939    2.2175 H   0  0  0  0  0  0  0  0  0  0  0  0
   -0.9750    1.0274    0.1566 N   0  0  0  0  0  0  0  0  0  0  0  0
    0.2023    0.5266   -0.5070 C   0  0  2  0  0  0  0  0  0  0  0  0
   -0.2333   -0.6530   -1.3690 C   0  0  0  0  0  0  0  0  0  0  0  0
   -1.0302   -0.5442   -2.2985 O   0  0  0  0  0  0  0  0  0  0  0  0
    1.2851    0.0896    0.4862 C   0  0  0  0  0  0  0  0  0  0  0  0
    1.8674    1.2465    1.2611 C   0  0  0  0  0  0  0  0  0  0  0  0
    2.8542    2.0461    0.6845 C   0  0  0  0  0  0  0  0  0  0  0  0
    1.4192    1.5156    2.5543 C   0  0  0  0  0  0  0  0  0  0  0  0
    3.3927    3.1149    1.4009 C   0  0  0  0  0  0  0  0  0  0  0  0
    1.9577    2.5843    3.2708 C   0  0  0  0  0  0  0  0  0  0  0  0
    2.9444    3.3840    2.6941 C   0  0  0  0  0  0  0  0  0  0  0  0
    3.4709    4.4262    3.3936 O   0  0  0  0  0  0  0  0  0  0  0  0
   -1.7582    1.3241   -0.4207 H   0  0  0  0  0  0  0  0  0  0  0  0
    0.5612    1.3330   -1.1573 H   0  0  0  0  0  0  0  0  0  0  0  0
    2.0885   -0.4456   -0.0379 H   0  0  0  0  0  0  0  0  0  0  0  0
    0.8775   -0.6345    1.2040 H   0  0  0  0  0  0  0  0  0  0  0  0
    3.2093    1.8438   -0.3224 H   0  0  0  0  0  0  0  0  0  0  0  0
    0.6505    0.8978    3.0116 H   0  0  0  0  0  0  0  0  0  0  0  0
    4.1615    3.7341    0.9463 H   0  0  0  0  0  0  0  0  0  0  0  0
    1.6046    2.7886    4.2777 H   0  0  0  0  0  0  0  0  0  0  0  0
    3.0600    4.4842    4.2709 H   0  0  0  0  0  0  0  0  0  0  0  0
    0.4119   -1.8273   -1.0070 N   0  0  0  0  0  0  0  0  0  0  0  0
    0.1986   -3.0894   -1.6782 C   0  0  2  0  0  0  0  0  0  0  0  0
   -1.3031   -3.3276   -1.7655 C   0  0  0  0  0  0  0  0  0  0  0  0
   -2.1122   -2.7928   -1.0102 O   0  0  0  0  0  0  0  0  0  0  0  0
    0.8881   -4.2295   -0.9451 C   0  0  0  0  0  0  0  0  0  0  0  0
    1.0671   -1.7983   -0.2313 H   0  0  0  0  0  0  0  0  0  0  0  0
    0.6116   -2.9847   -2.6874 H   0  0  0  0  0  0  0  0  0  0  0  0
    0.4875   -4.3496    0.0681 H   0  0  0  0  0  0  0  0  0  0  0  0
    0.7495   -5.1803   -1.4702 H   0  0  0  0  0  0  0  0  0  0  0  0
    1.9638   -4.0422   -0.8571 H   0  0  0  0  0  0  0  0  0  0  0  0
   -1.6298   -4.2411   -2.7580 N   0  0  0  0  0  0  0  0  0  0  0  0
   -2.9899   -4.6438   -3.0299 C   0  0  0  0  0  0  0  0  0  0  0  0
   -0.8960   -4.6203   -3.3492 H   0  0  0  0  0  0  0  0  0  0  0  0
   -3.2278   -5.5482   -2.4506 H   0  0  0  0  0  0  0  0  0  0  0  0
   -3.6764   -3.8336   -2.7429 H   0  0  0  0  0  0  0  0  0  0  0  0
   -3.1016   -4.8561   -4.1034 H   0  0  0  0  0  0  0  0  0  0  0  0
 23 25  2  0  0  0  0
 22 23  1  0  0  0  0
 24 26  1  0  0  0  0
 22 24  2  0  0  0  0
 25 27  1  0  0  0  0
 26 27  2  0  0  0  0
 21 22  1  0  0  0  0
 27 28  1  0  0  0  0
  1  3  1  0  0  0  0
  1  7  1  0  0  0  0
  1  2  2  0  0  0  0
 39 40  1  0  0  0  0
 40 48  1  0  0  0  0
 40 41  2  0  0  0  0
  8  9  1  0  0  0  0
  9 17  1  0  0  0  0
  9 10  2  0  0  0  0
 18 19  1  0  0  0  0
 19 38  1  0  0  0  0
 19 20  2  0  0  0  0
 39 42  1  0  0  0  0
  8 11  1  0  0  0  0
 48 49  1  0  0  0  0
 18 21  1  0  0  0  0
 38 39  1  0  0  0  0
  7  8  1  0  0  0  0
 17 18  1  0  0  0  0
 23 33  1  0  0  0  0
 24 34  1  0  0  0  0
 25 35  1  0  0  0  0
 26 36  1  0  0  0  0
  3  4  1  0  0  0  0
  3  5  1  0  0  0  0
  3  6  1  0  0  0  0
 42 45  1  0  0  0  0
 42 46  1  0  0  0  0
 42 47  1  0  0  0  0
 11 14  1  0  0  0  0
 11 15  1  0  0  0  0
 11 16  1  0  0  0  0
 49 51  1  0  0  0  0
 49 52  1  0  0  0  0
 49 53  1  0  0  0  0
 21 31  1  0  0  0  0
 21 32  1  0  0  0  0
 39 44  1  0  0  0  0
  8 13  1  0  0  0  0
 18 30  1  0  0  0  0
 48 50  1  0  0  0  0
  7 12  1  0  0  0  0
 38 43  1  0  0  0  0
 17 29  1  0  0  0  0
 28 37  1  0  0  0  0
M  END
$$$$

  -OEChem-05262214473D

 53 53  0     1  0  0  0  0  0999 V2000
   -1.9298    0.2574    3.9747 C   0  0  0  0  0  0  0  0  0  0  0  0
   -0.9825   -0.3573    3.4990 O   0  0  0  0  0  0  0  0  0  0  0  0
   -2.3617   -0.0250    5.3754 C   0  0  0  0  0  0  0  0  0  0  0  0
   -3.1214   -0.8213    5.4288 H   0  0  0  0  0  0  0  0  0  0  0  0
   -1.5305   -0.3726    6.0097 H   0  0  0  0  0  0  0  0  0  0  0  0
   -2.7997    0.8299    5.9150 H   0  0  0  0  0  0  0  0  0  0  0  0
   -2.6795    1.2298    3.3336 N   0  0  0  0  0  0  0  0  0  0  0  0
   -2.4327    1.6559    1.9812 C   0  0  2  0  0  0  0  0  0  0  0  0
   -1.0977    1.0705    1.5400 C   0  0  0  0  0  0  0  0  0  0  0  0
   -0.2256    0.7177    2.3313 O   0  0  0  0  0  0  0  0  0  0  0  0
   -2.4239    3.1726    1.8718 C   0  0  0  0  0  0  0  0  0  0  0  0
   -3.4446    1.6657    3.8454 H   0  0  0  0  0  0  0  0  0  0  0  0
   -3.2368    1.2374    1.3661 H   0  0  0  0  0  0  0  0  0  0  0  0
   -1.6248    3.6099    2.4815 H   0  0  0  0  0  0  0  0  0  0  0  0
   -2.2644    3.4949    0.8375 H   0  0  0  0  0  0  0  0  0  0  0  0
   -3.3741    3.5939    2.2175 H   0  0  0  0  0  0  0  0  0  0  0  0
   -0.9750    1.0274    0.1566 N   0  0  0  0  0  0  0  0  0  0  0  0
    0.2023    0.5266   -0.5070 C   0  0  2  0  0  0  0  0  0  0  0  0
   -0.2333   -0.6530   -1.3690 C   0  0  0  0  0  0  0  0  0  0  0  0
   -0.8075   -0.5177   -2.4474 O   0  0  0  0  0  0  0  0  0  0  0  0
    1.2851    0.0896    0.4862 C   0  0  0  0  0  0  0  0  0  0  0  0
    1.8674    1.2465    1.2611 C   0  0  0  0  0  0  0  0  0  0  0  0
    2.8542    2.0461    0.6845 C   0  0  0  0  0  0  0  0  0  0  0  0
    1.4192    1.5156    2.5543 C   0  0  0  0  0  0  0  0  0  0  0  0
    3.3927    3.1149    1.4009 C   0  0  0  0  0  0  0  0  0  0  0  0
    1.9577    2.5843    3.2708 C   0  0  0  0  0  0  0  0  0  0  0  0
    2.9444    3.3840    2.6941 C   0  0  0  0  0  0  0  0  0  0  0  0
    3.4709    4.4262    3.3936 O   0  0  0  0  0  0  0  0  0  0  0  0
   -1.7582    1.3241   -0.4207 H   0  0  0  0  0  0  0  0  0  0  0  0
    0.5612    1.3330   -1.1573 H   0  0  0  0  0  0  0  0  0  0  0  0
    2.0885   -0.4456   -0.0379 H   0  0  0  0  0  0  0  0  0  0  0  0
    0.8775   -0.6345    1.2040 H   0  0  0  0  0  0  0  0  0  0  0  0
    3.2093    1.8438   -0.3224 H   0  0  0  0  0  0  0  0  0  0  0  0
    0.6505    0.8978    3.0116 H   0  0  0  0  0  0  0  0  0  0  0  0
    4.1615    3.7341    0.9463 H   0  0  0  0  0  0  0  0  0  0  0  0
    1.6046    2.7886    4.2777 H   0  0  0  0  0  0  0  0  0  0  0  0
    3.0600    4.4842    4.2709 H   0  0  0  0  0  0  0  0  0  0  0  0
    0.1405   -1.8687   -0.8133 N   0  0  0  0  0  0  0  0  0  0  0  0
   -0.1296   -3.1435   -1.4383 C   0  0  2  0  0  0  0  0  0  0  0  0
   -1.6040   -3.1778   -1.8185 C   0  0  0  0  0  0  0  0  0  0  0  0
   -2.4525   -2.4708   -1.2788 O   0  0  0  0  0  0  0  0  0  0  0  0
    0.2201   -4.2985   -0.5130 C   0  0  0  0  0  0  0  0  0  0  0  0
    0.6286   -1.8620    0.0775 H   0  0  0  0  0  0  0  0  0  0  0  0
    0.4831   -3.1872   -2.3453 H   0  0  0  0  0  0  0  0  0  0  0  0
   -0.3838   -4.2714    0.4014 H   0  0  0  0  0  0  0  0  0  0  0  0
    0.0418   -5.2638   -0.9984 H   0  0  0  0  0  0  0  0  0  0  0  0
    1.2738   -4.2553   -0.2168 H   0  0  0  0  0  0  0  0  0  0  0  0
   -1.8677   -4.1216   -2.8013 N   0  0  0  0  0  0  0  0  0  0  0  0
   -3.1943   -4.3542   -3.3229 C   0  0  0  0  0  0  0  0  0  0  0  0
   -1.1001   -4.6500   -3.2054 H   0  0  0  0  0  0  0  0  0  0  0  0
   -3.6767   -5.1617   -2.7527 H   0  0  0  0  0  0  0  0  0  0  0  0
   -3.7905   -3.4343   -3.2317 H   0  0  0  0  0  0  0  0  0  0  0  0
   -3.1261   -4.6435   -4.3820 H   0  0  0  0  0  0  0  0  0  0  0  0
 23 25  2  0  0  0  0
 22 23  1  0  0  0  0
 24 26  1  0  0  0  0
 22 24  2  0  0  0  0
 25 27  1  0  0  0  0
 26 27  2  0  0  0  0
 21 22  1  0  0  0  0
 27 28  1  0  0  0  0
  1  3  1  0  0  0  0
  1  7  1  0  0  0  0
  1  2  2  0  0  0  0
 39 40  1  0  0  0  0
 40 48  1  0  0  0  0
 40 41  2  0  0  0  0
  8  9  1  0  0  0  0
  9 17  1  0  0  0  0
  9 10  2  0  0  0  0
 18 19  1  0  0  0  0
 19 38  1  0  0  0  0
 19 20  2  0  0  0  0
 39 42  1  0  0  0  0
  8 11  1  0  0  0  0
 48 49  1  0  0  0  0
 18 21  1  0  0  0  0
 38 39  1  0  0  0  0
  7  8  1  0  0  0  0
 17 18  1  0  0  0  0
 23 33  1  0  0  0  0
 24 34  1  0  0  0  0
 25 35  1  0  0  0  0
 26 36  1  0  0  0  0
  3  4  1  0  0  0  0
  3  5  1  0  0  0  0
  3  6  1  0  0  0  0
 42 45  1  0  0  0  0
 42 46  1  0  0  0  0
 42 47  1  0  0  0  0
 11 14  1  0  0  0  0
 11 15  1  0  0  0  0
 11 16  1  0  0  0  0
 49 51  1  0  0  0  0
 49 52  1  0  0  0  0
 49 53  1  0  0  0  0
 21 31  1  0  0  0  0
 21 32  1  0  0  0  0
 39 44  1  0  0  0  0
  8 13  1  0  0  0  0
 18 30  1  0  0  0  0
 48 50  1  0  0  0  0
  7 12  1  0  0  0  0
 38 43  1  0  0  0  0
 17 29  1  0  0  0  0
 28 37  1  0  0  0  0
M  END
$$$$

  -OEChem-05262214473D

 53 53  0     1  0  0  0  0  0999 V2000
   -1.9298    0.2574    3.9747 C   0  0  0  0  0  0  0  0  0  0  0  0
   -0.9825   -0.3573    3.4990 O   0  0  0  0  0  0  0  0  0  0  0  0
   -2.3617   -0.0250    5.3754 C   0  0  0  0  0  0  0  0  0  0  0  0
   -3.1214   -0.8213    5.4288 H   0  0  0  0  0  0  0  0  0  0  0  0
   -1.5305   -0.3726    6.0097 H   0  0  0  0  0  0  0  0  0  0  0  0
   -2.7997    0.8299    5.9150 H   0  0  0  0  0  0  0  0  0  0  0  0
   -2.6795    1.2298    3.3336 N   0  0  0  0  0  0  0  0  0  0  0  0
   -2.4327    1.6559    1.9812 C   0  0  2  0  0  0  0  0  0  0  0  0
   -1.0977    1.0705    1.5400 C   0  0  0  0  0  0  0  0  0  0  0  0
   -0.2256    0.7177    2.3313 O   0  0  0  0  0  0  0  0  0  0  0  0
   -2.4239    3.1726    1.8718 C   0  0  0  0  0  0  0  0  0  0  0  0
   -3.4446    1.6657    3.8454 H   0  0  0  0  0  0  0  0  0  0  0  0
   -3.2368    1.2374    1.3661 H   0  0  0  0  0  0  0  0  0  0  0  0
   -1.6248    3.6099    2.4815 H   0  0  0  0  0  0  0  0  0  0  0  0
   -2.2644    3.4949    0.8375 H   0  0  0  0  0  0  0  0  0  0  0  0
   -3.3741    3.5939    2.2175 H   0  0  0  0  0  0  0  0  0  0  0  0
   -0.9750    1.0274    0.1566 N   0  0  0  0  0  0  0  0  0  0  0  0
    0.2023    0.5266   -0.5070 C   0  0  2  0  0  0  0  0  0  0  0  0
   -0.2333   -0.6530   -1.3690 C   0  0  0  0  0  0  0  0  0  0  0  0
   -0.5587   -0.5357   -2.5485 O   0  0  0  0  0  0  0  0  0  0  0  0
    1.2851    0.0896    0.4862 C   0  0  0  0  0  0  0  0  0  0  0  0
    1.8674    1.2465    1.2611 C   0  0  0  0  0  0  0  0  0  0  0  0
    2.8542    2.0461    0.6845 C   0  0  0  0  0  0  0  0  0  0  0  0
    1.4192    1.5156    2.5543 C   0  0  0  0  0  0  0  0  0  0  0  0
    3.3927    3.1149    1.4009 C   0  0  0  0  0  0  0  0  0  0  0  0
    1.9577    2.5843    3.2708 C   0  0  0  0  0  0  0  0  0  0  0  0
    2.9444    3.3840    2.6941 C   0  0  0  0  0  0  0  0  0  0  0  0
    3.4709    4.4262    3.3936 O   0  0  0  0  0  0  0  0  0  0  0  0
   -1.7582    1.3241   -0.4207 H   0  0  0  0  0  0  0  0  0  0  0  0
    0.5612    1.3330   -1.1573 H   0  0  0  0  0  0  0  0  0  0  0  0
    2.0885   -0.4456   -0.0379 H   0  0  0  0  0  0  0  0  0  0  0  0
    0.8775   -0.6345    1.2040 H   0  0  0  0  0  0  0  0  0  0  0  0
    3.2093    1.8438   -0.3224 H   0  0  0  0  0  0  0  0  0  0  0  0
    0.6505    0.8978    3.0116 H   0  0  0  0  0  0  0  0  0  0  0  0
    4.1615    3.7341    0.9463 H   0  0  0  0  0  0  0  0  0  0  0  0
    1.6046    2.7886    4.2777 H   0  0  0  0  0  0  0  0  0  0  0  0
    3.0600    4.4842    4.2709 H   0  0  0  0  0  0  0  0  0  0  0  0
   -0.1664   -1.8546   -0.6775 N   0  0  0  0  0  0  0  0  0  0  0  0
   -0.5026   -3.1300   -1.2683 C   0  0  2  0  0  0  0  0  0  0  0  0
   -1.8621   -2.9929   -1.9410 C   0  0  0  0  0  0  0  0  0  0  0  0
   -2.6804   -2.1299   -1.6302 O   0  0  0  0  0  0  0  0  0  0  0  0
   -0.5217   -4.2356   -0.2243 C   0  0  0  0  0  0  0  0  0  0  0  0
    0.1339   -1.8366    0.2927 H   0  0  0  0  0  0  0  0  0  0  0  0
    0.2609   -3.3388   -2.0256 H   0  0  0  0  0  0  0  0  0  0  0  0
   -1.2806   -4.0438    0.5430 H   0  0  0  0  0  0  0  0  0  0  0  0
   -0.7485   -5.2060   -0.6781 H   0  0  0  0  0  0  0  0  0  0  0  0
    0.4479   -4.3129    0.2793 H   0  0  0  0  0  0  0  0  0  0  0  0
   -2.0713   -3.9746   -2.8996 N   0  0  0  0  0  0  0  0  0  0  0  0
   -3.2906   -4.0662   -3.6684 C   0  0  0  0  0  0  0  0  0  0  0  0
   -1.3304   -4.6382   -3.1052 H   0  0  0  0  0  0  0  0  0  0  0  0
   -3.9932   -4.7450   -3.1629 H   0  0  0  0  0  0  0  0  0  0  0  0
   -3.7444   -3.0680   -3.7563 H   0  0  0  0  0  0  0  0  0  0  0  0
   -3.0628   -4.4551   -4.6718 H   0  0  0  0  0  0  0  0  0  0  0  0
 23 25  2  0  0  0  0
 22 23  1  0  0  0  0
 24 26  1  0  0  0  0
 22 24  2  0  0  0  0
 25 27  1  0  0  0  0
 26 27  2  0  0  0  0
 21 22  1  0  0  0  0
 27 28  1  0  0  0  0
  1  3  1  0  0  0  0
  1  7  1  0  0  0  0
  1  2  2  0  0  0  0
 39 40  1  0  0  0  0
 40 48  1  0  0  0  0
 40 41  2  0  0  0  0
  8  9  1  0  0  0  0
  9 17  1  0  0  0  0
  9 10  2  0  0  0  0
 18 19  1  0  0  0  0
 19 38  1  0  0  0  0
 19 20  2  0  0  0  0
 39 42  1  0  0  0  0
  8 11  1  0  0  0  0
 48 49  1  0  0  0  0
 18 21  1  0  0  0  0
 38 39  1  0  0  0  0
  7  8  1  0  0  0  0
 17 18  1  0  0  0  0
 23 33  1  0  0  0  0
 24 34  1  0  0  0  0
 25 35  1  0  0  0  0
 26 36  1  0  0  0  0
  3  4  1  0  0  0  0
  3  5  1  0  0  0  0
  3  6  1  0  0  0  0
 42 45  1  0  0  0  0
 42 46  1  0  0  0  0
 42 47  1  0  0  0  0
 11 14  1  0  0  0  0
 11 15  1  0  0  0  0
 11 16  1  0  0  0  0
 49 51  1  0  0  0  0
 49 52  1  0  0  0  0
 49 53  1  0  0  0  0
 21 31  1  0  0  0  0
 21 32  1  0  0  0  0
 39 44  1  0  0  0  0
  8 13  1  0  0  0  0
 18 30  1  0  0  0  0
 48 50  1  0  0  0  0
  7 12  1  0  0  0  0
 38 43  1  0  0  0  0
 17 29  1  0  0  0  0
 28 37  1  0  0  0  0
M  END
$$$$

  -OEChem-05262214473D

 53 53  0     1  0  0  0  0  0999 V2000
   -1.9298    0.2574    3.9747 C   0  0  0  0  0  0  0  0  0  0  0  0
   -0.9825   -0.3573    3.4990 O   0  0  0  0  0  0  0  0  0  0  0  0
   -2.3617   -0.0250    5.3754 C   0  0  0  0  0  0  0  0  0  0  0  0
   -3.1214   -0.8213    5.4288 H   0  0  0  0  0  0  0  0  0  0  0  0
   -1.5305   -0.3726    6.0097 H   0  0  0  0  0  0  0  0  0  0  0  0
   -2.7997    0.8299    5.9150 H   0  0  0  0  0  0  0  0  0  0  0  0
   -2.6795    1.2298    3.3336 N   0  0  0  0  0  0  0  0  0  0  0  0
   -2.4327    1.6559    1.9812 C   0  0  2  0  0  0  0  0  0  0  0  0
   -1.0977    1.0705    1.5400 C   0  0  0  0  0  0  0  0  0  0  0  0
   -0.2256    0.7177    2.3313 O   0  0  0  0  0  0  0  0  0  0  0  0
   -2.4239    3.1726    1.8718 C   0  0  0  0  0  0  0  0  0  0  0  0
   -3.4446    1.6657    3.8454 H   0  0  0  0  0  0  0  0  0  0  0  0
   -3.2368    1.2374    1.3661 H   0  0  0  0  0  0  0  0  0  0  0  0
   -1.6248    3.6099    2.4815 H   0  0  0  0  0  0  0  0  0  0  0  0
   -2.2644    3.4949    0.8375 H   0  0  0  0  0  0  0  0  0  0  0  0
   -3.3741    3.5939    2.2175 H   0  0  0  0  0  0  0  0  0  0  0  0
   -0.9750    1.0274    0.1566 N   0  0  0  0  0  0  0  0  0  0  0  0
    0.2023    0.5266   -0.5070 C   0  0  2  0  0  0  0  0  0  0  0  0
   -0.2333   -0.6530   -1.3690 C   0  0  0  0  0  0  0  0  0  0  0  0
   -0.3008   -0.5969   -2.5951 O   0  0  0  0  0  0  0  0  0  0  0  0
    1.2851    0.0896    0.4862 C   0  0  0  0  0  0  0  0  0  0  0  0
    1.8674    1.2465    1.2611 C   0  0  0  0  0  0  0  0  0  0  0  0
    2.8542    2.0461    0.6845 C   0  0  0  0  0  0  0  0  0  0  0  0
    1.4192    1.5156    2.5543 C   0  0  0  0  0  0  0  0  0  0  0  0
    3.3927    3.1149    1.4009 C   0  0  0  0  0  0  0  0  0  0  0  0
    1.9577    2.5843    3.2708 C   0  0  0  0  0  0  0  0  0  0  0  0
    2.9444    3.3840    2.6941 C   0  0  0  0  0  0  0  0  0  0  0  0
    3.4709    4.4262    3.3936 O   0  0  0  0  0  0  0  0  0  0  0  0
   -1.7582    1.3241   -0.4207 H   0  0  0  0  0  0  0  0  0  0  0  0
    0.5612    1.3330   -1.1573 H   0  0  0  0  0  0  0  0  0  0  0  0
    2.0885   -0.4456   -0.0379 H   0  0  0  0  0  0  0  0  0  0  0  0
    0.8775   -0.6345    1.2040 H   0  0  0  0  0  0  0  0  0  0  0  0
    3.2093    1.8438   -0.3224 H   0  0  0  0  0  0  0  0  0  0  0  0
    0.6505    0.8978    3.0116 H   0  0  0  0  0  0  0  0  0  0  0  0
    4.1615    3.7341    0.9463 H   0  0  0  0  0  0  0  0  0  0  0  0
    1.6046    2.7886    4.2777 H   0  0  0  0  0  0  0  0  0  0  0  0
    3.0600    4.4842    4.2709 H   0  0  0  0  0  0  0  0  0  0  0  0
   -0.4881   -1.7860   -0.6088 N   0  0  0  0  0  0  0  0  0  0  0  0
   -0.8949   -3.0498   -1.1798 C   0  0  2  0  0  0  0  0  0  0  0  0
   -2.0598   -2.7857   -2.1247 C   0  0  0  0  0  0  0  0  0  0  0  0
   -2.7802   -1.7932   -2.0404 O   0  0  0  0  0  0  0  0  0  0  0  0
   -1.2869   -4.0448   -0.0987 C   0  0  0  0  0  0  0  0  0  0  0  0
   -0.3834   -1.7237    0.3996 H   0  0  0  0  0  0  0  0  0  0  0  0
   -0.0400   -3.4290   -1.7502 H   0  0  0  0  0  0  0  0  0  0  0  0
   -2.1420   -3.6821    0.4834 H   0  0  0  0  0  0  0  0  0  0  0  0
   -1.5675   -5.0108   -0.5313 H   0  0  0  0  0  0  0  0  0  0  0  0
   -0.4576   -4.2109    0.5974 H   0  0  0  0  0  0  0  0  0  0  0  0
   -2.2269   -3.8100   -3.0462 N   0  0  0  0  0  0  0  0  0  0  0  0
   -3.2723   -3.7994   -4.0426 C   0  0  0  0  0  0  0  0  0  0  0  0
   -1.5712   -4.5857   -3.0554 H   0  0  0  0  0  0  0  0  0  0  0  0
   -4.1559   -4.3266   -3.6534 H   0  0  0  0  0  0  0  0  0  0  0  0
   -3.5412   -2.7597   -4.2808 H   0  0  0  0  0  0  0  0  0  0  0  0
   -2.9161   -4.3038   -4.9530 H   0  0  0  0  0  0  0  0  0  0  0  0
 23 25  2  0  0  0  0
 22 23  1  0  0  0  0
 24 26  1  0  0  0  0
 22 24  2  0  0  0  0
 25 27  1  0  0  0  0
 26 27  2  0  0  0  0
 21 22  1  0  0  0  0
 27 28  1  0  0  0  0
  1  3  1  0  0  0  0
  1  7  1  0  0  0  0
  1  2  2  0  0  0  0
 39 40  1  0  0  0  0
 40 48  1  0  0  0  0
 40 41  2  0  0  0  0
  8  9  1  0  0  0  0
  9 17  1  0  0  0  0
  9 10  2  0  0  0  0
 18 19  1  0  0  0  0
 19 38  1  0  0  0  0
 19 20  2  0  0  0  0
 39 42  1  0  0  0  0
  8 11  1  0  0  0  0
 48 49  1  0  0  0  0
 18 21  1  0  0  0  0
 38 39  1  0  0  0  0
  7  8  1  0  0  0  0
 17 18  1  0  0  0  0
 23 33  1  0  0  0  0
 24 34  1  0  0  0  0
 25 35  1  0  0  0  0
 26 36  1  0  0  0  0
  3  4  1  0  0  0  0
  3  5  1  0  0  0  0
  3  6  1  0  0  0  0
 42 45  1  0  0  0  0
 42 46  1  0  0  0  0
 42 47  1  0  0  0  0
 11 14  1  0  0  0  0
 11 15  1  0  0  0  0
 11 16  1  0  0  0  0
 49 51  1  0  0  0  0
 49 52  1  0  0  0  0
 49 53  1  0  0  0  0
 21 31  1  0  0  0  0
 21 32  1  0  0  0  0
 39 44  1  0  0  0  0
  8 13  1  0  0  0  0
 18 30  1  0  0  0  0
 48 50  1  0  0  0  0
  7 12  1  0  0  0  0
 38 43  1  0  0  0  0
 17 29  1  0  0  0  0
 28 37  1  0  0  0  0
M  END
$$$$

  -OEChem-05262214473D

 53 53  0     1  0  0  0  0  0999 V2000
   -1.9298    0.2574    3.9747 C   0  0  0  0  0  0  0  0  0  0  0  0
   -0.9825   -0.3573    3.4990 O   0  0  0  0  0  0  0  0  0  0  0  0
   -2.3617   -0.0250    5.3754 C   0  0  0  0  0  0  0  0  0  0  0  0
   -3.1214   -0.8213    5.4288 H   0  0  0  0  0  0  0  0  0  0  0  0
   -1.5305   -0.3726    6.0097 H   0  0  0  0  0  0  0  0  0  0  0  0
   -2.7997    0.8299    5.9150 H   0  0  0  0  0  0  0  0  0  0  0  0
   -2.6795    1.2298    3.3336 N   0  0  0  0  0  0  0  0  0  0  0  0
   -2.4327    1.6559    1.9812 C   0  0  2  0  0  0  0  0  0  0  0  0
   -1.0977    1.0705    1.5400 C   0  0  0  0  0  0  0  0  0  0  0  0
   -0.2256    0.7177    2.3313 O   0  0  0  0  0  0  0  0  0  0  0  0
   -2.4239    3.1726    1.8718 C   0  0  0  0  0  0  0  0  0  0  0  0
   -3.4446    1.6657    3.8454 H   0  0  0  0  0  0  0  0  0  0  0  0
   -3.2368    1.2374    1.3661 H   0  0  0  0  0  0  0  0  0  0  0  0
   -1.6248    3.6099    2.4815 H   0  0  0  0  0  0  0  0  0  0  0  0
   -2.2644    3.4949    0.8375 H   0  0  0  0  0  0  0  0  0  0  0  0
   -3.3741    3.5939    2.2175 H   0  0  0  0  0  0  0  0  0  0  0  0
   -0.9750    1.0274    0.1566 N   0  0  0  0  0  0  0  0  0  0  0  0
    0.2023    0.5266   -0.5070 C   0  0  2  0  0  0  0  0  0  0  0  0
   -0.2333   -0.6530   -1.3690 C   0  0  0  0  0  0  0  0  0  0  0  0
   -0.0513   -0.6972   -2.5838 O   0  0  0  0  0  0  0  0  0  0  0  0
    1.2851    0.0896    0.4862 C   0  0  0  0  0  0  0  0  0  0  0  0
    1.8674    1.2465    1.2611 C   0  0  0  0  0  0  0  0  0  0  0  0
    2.8542    2.0461    0.6845 C   0  0  0  0  0  0  0  0  0  0  0  0
    1.4192    1.5156    2.5543 C   0  0  0  0  0  0  0  0  0  0  0  0
    3.3927    3.1149    1.4009 C   0  0  0  0  0  0  0  0  0  0  0  0
    1.9577    2.5843    3.2708 C   0  0  0  0  0  0  0  0  0  0  0  0
    2.9444    3.3840    2.6941 C   0  0  0  0  0  0  0  0  0  0  0  0
    3.4709    4.4262    3.3936 O   0  0  0  0  0  0  0  0  0  0  0  0
   -1.7582    1.3241   -0.4207 H   0  0  0  0  0  0  0  0  0  0  0  0
    0.5612    1.3330   -1.1573 H   0  0  0  0  0  0  0  0  0  0  0  0
    2.0885   -0.4456   -0.0379 H   0  0  0  0  0  0  0  0  0  0  0  0
    0.8775   -0.6345    1.2040 H   0  0  0  0  0  0  0  0  0  0  0  0
    3.2093    1.8438   -0.3224 H   0  0  0  0  0  0  0  0  0  0  0  0
    0.6505    0.8978    3.0116 H   0  0  0  0  0  0  0  0  0  0  0  0
    4.1615    3.7341    0.9463 H   0  0  0  0  0  0  0  0  0  0  0  0
    1.6046    2.7886    4.2777 H   0  0  0  0  0  0  0  0  0  0  0  0
    3.0600    4.4842    4.2709 H   0  0  0  0  0  0  0  0  0  0  0  0
   -0.8025   -1.6675   -0.6120 N   0  0  0  0  0  0  0  0  0  0  0  0
   -1.2799   -2.9083   -1.1788 C   0  0  2  0  0  0  0  0  0  0  0  0
   -2.1836   -2.5701   -2.3571 C   0  0  0  0  0  0  0  0  0  0  0  0
   -2.7452   -1.4838   -2.4816 O   0  0  0  0  0  0  0  0  0  0  0  0
   -2.0233   -3.7393   -0.1446 C   0  0  0  0  0  0  0  0  0  0  0  0
   -0.8879   -1.5311    0.3910 H   0  0  0  0  0  0  0  0  0  0  0  0
   -0.3990   -3.4517   -1.5376 H   0  0  0  0  0  0  0  0  0  0  0  0
   -2.9091   -3.2112    0.2265 H   0  0  0  0  0  0  0  0  0  0  0  0
   -2.3595   -4.6916   -0.5680 H   0  0  0  0  0  0  0  0  0  0  0  0
   -1.3810   -3.9564    0.7157 H   0  0  0  0  0  0  0  0  0  0  0  0
   -2.3236   -3.6391   -3.2311 N   0  0  0  0  0  0  0  0  0  0  0  0
   -3.1407   -3.5721   -4.4202 C   0  0  0  0  0  0  0  0  0  0  0  0
   -1.8060   -4.4961   -3.0594 H   0  0  0  0  0  0  0  0  0  0  0  0
   -4.1535   -3.9348   -4.1907 H   0  0  0  0  0  0  0  0  0  0  0  0
   -3.1948   -2.5305   -4.7695 H   0  0  0  0  0  0  0  0  0  0  0  0
   -2.6959   -4.1999   -5.2064 H   0  0  0  0  0  0  0  0  0  0  0  0
 23 25  2  0  0  0  0
 22 23  1  0  0  0  0
 24 26  1  0  0  0  0
 22 24  2  0  0  0  0
 25 27  1  0  0  0  0
 26 27  2  0  0  0  0
 21 22  1  0  0  0  0
 27 28  1  0  0  0  0
  1  3  1  0  0  0  0
  1  7  1  0  0  0  0
  1  2  2  0  0  0  0
 39 40  1  0  0  0  0
 40 48  1  0  0  0  0
 40 41  2  0  0  0  0
  8  9  1  0  0  0  0
  9 17  1  0  0  0  0
  9 10  2  0  0  0  0
 18 19  1  0  0  0  0
 19 38  1  0  0  0  0
 19 20  2  0  0  0  0
 39 42  1  0  0  0  0
  8 11  1  0  0  0  0
 48 49  1  0  0  0  0
 18 21  1  0  0  0  0
 38 39  1  0  0  0  0
  7  8  1  0  0  0  0
 17 18  1  0  0  0  0
 23 33  1  0  0  0  0
 24 34  1  0  0  0  0
 25 35  1  0  0  0  0
 26 36  1  0  0  0  0
  3  4  1  0  0  0  0
  3  5  1  0  0  0  0
  3  6  1  0  0  0  0
 42 45  1  0  0  0  0
 42 46  1  0  0  0  0
 42 47  1  0  0  0  0
 11 14  1  0  0  0  0
 11 15  1  0  0  0  0
 11 16  1  0  0  0  0
 49 51  1  0  0  0  0
 49 52  1  0  0  0  0
 49 53  1  0  0  0  0
 21 31  1  0  0  0  0
 21 32  1  0  0  0  0
 39 44  1  0  0  0  0
  8 13  1  0  0  0  0
 18 30  1  0  0  0  0
 48 50  1  0  0  0  0
  7 12  1  0  0  0  0
 38 43  1  0  0  0  0
 17 29  1  0  0  0  0
 28 37  1  0  0  0  0
M  END
$$$$

  -OEChem-05262214473D

 53 53  0     1  0  0  0  0  0999 V2000
   -1.9298    0.2574    3.9747 C   0  0  0  0  0  0  0  0  0  0  0  0
   -0.9825   -0.3573    3.4990 O   0  0  0  0  0  0  0  0  0  0  0  0
   -2.3617   -0.0250    5.3754 C   0  0  0  0  0  0  0  0  0  0  0  0
   -3.1214   -0.8213    5.4288 H   0  0  0  0  0  0  0  0  0  0  0  0
   -1.5305   -0.3726    6.0097 H   0  0  0  0  0  0  0  0  0  0  0  0
   -2.7997    0.8299    5.9150 H   0  0  0  0  0  0  0  0  0  0  0  0
   -2.6795    1.2298    3.3336 N   0  0  0  0  0  0  0  0  0  0  0  0
   -2.4327    1.6559    1.9812 C   0  0  2  0  0  0  0  0  0  0  0  0
   -1.0977    1.0705    1.5400 C   0  0  0  0  0  0  0  0  0  0  0  0
   -0.2256    0.7177    2.3313 O   0  0  0  0  0  0  0  0  0  0  0  0
   -2.4239    3.1726    1.8718 C   0  0  0  0  0  0  0  0  0  0  0  0
   -3.4446    1.6657    3.8454 H   0  0  0  0  0  0  0  0  0  0  0  0
   -3.2368    1.2374    1.3661 H   0  0  0  0  0  0  0  0  0  0  0  0
   -1.6248    3.6099    2.4815 H   0  0  0  0  0  0  0  0  0  0  0  0
   -2.2644    3.4949    0.8375 H   0  0  0  0  0  0  0  0  0  0  0  0
   -3.3741    3.5939    2.2175 H   0  0  0  0  0  0  0  0  0  0  0  0
   -0.9750    1.0274    0.1566 N   0  0  0  0  0  0  0  0  0  0  0  0
    0.2023    0.5266   -0.5070 C   0  0  2  0  0  0  0  0  0  0  0  0
   -0.2333   -0.6530   -1.3690 C   0  0  0  0  0  0  0  0  0  0  0  0
    0.1728   -0.8299   -2.5156 O   0  0  0  0  0  0  0  0  0  0  0  0
    1.2851    0.0896    0.4862 C   0  0  0  0  0  0  0  0  0  0  0  0
    1.8674    1.2465    1.2611 C   0  0  0  0  0  0  0  0  0  0  0  0
    2.8542    2.0461    0.6845 C   0  0  0  0  0  0  0  0  0  0  0  0
    1.4192    1.5156    2.5543 C   0  0  0  0  0  0  0  0  0  0  0  0
    3.3927    3.1149    1.4009 C   0  0  0  0  0  0  0  0  0  0  0  0
    1.9577    2.5843    3.2708 C   0  0  0  0  0  0  0  0  0  0  0  0
    2.9444    3.3840    2.6941 C   0  0  0  0  0  0  0  0  0  0  0  0
    3.4709    4.4262    3.3936 O   0  0  0  0  0  0  0  0  0  0  0  0
   -1.7582    1.3241   -0.4207 H   0  0  0  0  0  0  0  0  0  0  0  0
    0.5612    1.3330   -1.1573 H   0  0  0  0  0  0  0  0  0  0  0  0
    2.0885   -0.4456   -0.0379 H   0  0  0  0  0  0  0  0  0  0  0  0
    0.8775   -0.6345    1.2040 H   0  0  0  0  0  0  0  0  0  0  0  0
    3.2093    1.8438   -0.3224 H   0  0  0  0  0  0  0  0  0  0  0  0
    0.6505    0.8978    3.0116 H   0  0  0  0  0  0  0  0  0  0  0  0
    4.1615    3.7341    0.9463 H   0  0  0  0  0  0  0  0  0  0  0  0
    1.6046    2.7886    4.2777 H   0  0  0  0  0  0  0  0  0  0  0  0
    3.0600    4.4842    4.2709 H   0  0  0  0  0  0  0  0  0  0  0  0
   -1.0883   -1.5074   -0.6867 N   0  0  0  0  0  0  0  0  0  0  0  0
   -1.6312   -2.7153   -1.2654 C   0  0  2  0  0  0  0  0  0  0  0  0
   -2.2251   -2.3610   -2.6223 C   0  0  0  0  0  0  0  0  0  0  0  0
   -2.5777   -1.2226   -2.9236 O   0  0  0  0  0  0  0  0  0  0  0  0
   -2.6806   -3.3399   -0.3591 C   0  0  0  0  0  0  0  0  0  0  0  0
   -1.3453   -1.2719    0.2673 H   0  0  0  0  0  0  0  0  0  0  0  0
   -0.7916   -3.4054   -1.4026 H   0  0  0  0  0  0  0  0  0  0  0  0
   -3.5298   -2.6630   -0.2100 H   0  0  0  0  0  0  0  0  0  0  0  0
   -3.0704   -4.2700   -0.7856 H   0  0  0  0  0  0  0  0  0  0  0  0
   -2.2594   -3.5667    0.6263 H   0  0  0  0  0  0  0  0  0  0  0  0
   -2.3551   -3.4736   -3.4417 N   0  0  0  0  0  0  0  0  0  0  0  0
   -2.9047   -3.3998   -4.7753 C   0  0  0  0  0  0  0  0  0  0  0  0
   -2.0190   -4.3754   -3.1169 H   0  0  0  0  0  0  0  0  0  0  0  0
   -3.9863   -3.5965   -4.7381 H   0  0  0  0  0  0  0  0  0  0  0  0
   -2.7287   -2.3959   -5.1892 H   0  0  0  0  0  0  0  0  0  0  0  0
   -2.4173   -4.1506   -5.4147 H   0  0  0  0  0  0  0  0  0  0  0  0
 23 25  2  0  0  0  0
 22 23  1  0  0  0  0
 24 26  1  0  0  0  0
 22 24  2  0  0  0  0
 25 27  1  0  0  0  0
 26 27  2  0  0  0  0
 21 22  1  0  0  0  0
 27 28  1  0  0  0  0
  1  3  1  0  0  0  0
  1  7  1  0  0  0  0
  1  2  2  0  0  0  0
 39 40  1  0  0  0  0
 40 48  1  0  0  0  0
 40 41  2  0  0  0  0
  8  9  1  0  0  0  0
  9 17  1  0  0  0  0
  9 10  2  0  0  0  0
 18 19  1  0  0  0  0
 19 38  1  0  0  0  0
 19 20  2  0  0  0  0
 39 42  1  0  0  0  0
  8 11  1  0  0  0  0
 48 49  1  0  0  0  0
 18 21  1  0  0  0  0
 38 39  1  0  0  0  0
  7  8  1  0  0  0  0
 17 18  1  0  0  0  0
 23 33  1  0  0  0  0
 24 34  1  0  0  0  0
 25 35  1  0  0  0  0
 26 36  1  0  0  0  0
  3  4  1  0  0  0  0
  3  5  1  0  0  0  0
  3  6  1  0  0  0  0
 42 45  1  0  0  0  0
 42 46  1  0  0  0  0
 42 47  1  0  0  0  0
 11 14  1  0  0  0  0
 11 15  1  0  0  0  0
 11 16  1  0  0  0  0
 49 51  1  0  0  0  0
 49 52  1  0  0  0  0
 49 53  1  0  0  0  0
 21 31  1  0  0  0  0
 21 32  1  0  0  0  0
 39 44  1  0  0  0  0
  8 13  1  0  0  0  0
 18 30  1  0  0  0  0
 48 50  1  0  0  0  0
  7 12  1  0  0  0  0
 38 43  1  0  0  0  0
 17 29  1  0  0  0  0
 28 37  1  0  0  0  0
M  END
$$$$

  -OEChem-05262214473D

 53 53  0     1  0  0  0  0  0999 V2000
   -1.9298    0.2574    3.9747 C   0  0  0  0  0  0  0  0  0  0  0  0
   -0.9825   -0.3573    3.4990 O   0  0  0  0  0  0  0  0  0  0  0  0
   -2.3617   -0.0250    5.3754 C   0  0  0  0  0  0  0  0  0  0  0  0
   -3.1214   -0.8213    5.4288 H   0  0  0  0  0  0  0  0  0  0  0  0
   -1.5305   -0.3726    6.0097 H   0  0  0  0  0  0  0  0  0  0  0  0
   -2.7997    0.8299    5.9150 H   0  0  0  0  0  0  0  0  0  0  0  0
   -2.6795    1.2298    3.3336 N   0  0  0  0  0  0  0  0  0  0  0  0
   -2.4327    1.6559    1.9812 C   0  0  2  0  0  0  0  0  0  0  0  0
   -1.0977    1.0705    1.5400 C   0  0  0  0  0  0  0  0  0  0  0  0
   -0.2256    0.7177    2.3313 O   0  0  0  0  0  0  0  0  0  0  0  0
   -2.4239    3.1726    1.8718 C   0  0  0  0  0  0  0  0  0  0  0  0
   -3.4446    1.6657    3.8454 H   0  0  0  0  0  0  0  0  0  0  0  0
   -3.2368    1.2374    1.3661 H   0  0  0  0  0  0  0  0  0  0  0  0
   -1.6248    3.6099    2.4815 H   0  0  0  0  0  0  0  0  0  0  0  0
   -2.2644    3.4949    0.8375 H   0  0  0  0  0  0  0  0  0  0  0  0
   -3.3741    3.5939    2.2175 H   0  0  0  0  0  0  0  0  0  0  0  0
   -0.9750    1.0274    0.1566 N   0  0  0  0  0  0  0  0  0  0  0  0
    0.2023    0.5266   -0.5070 C   0  0  2  0  0  0  0  0  0  0  0  0
   -0.2333   -0.6530   -1.3690 C   0  0  0  0  0  0  0  0  0  0  0  0
    0.3562   -0.9857   -2.3950 O   0  0  0  0  0  0  0  0  0  0  0  0
    1.2851    0.0896    0.4862 C   0  0  0  0  0  0  0  0  0  0  0  0
    1.8674    1.2465    1.2611 C   0  0  0  0  0  0  0  0  0  0  0  0
    2.8542    2.0461    0.6845 C   0  0  0  0  0  0  0  0  0  0  0  0
    1.4192    1.5156    2.5543 C   0  0  0  0  0  0  0  0  0  0  0  0
    3.3927    3.1149    1.4009 C   0  0  0  0  0  0  0  0  0  0  0  0
    1.9577    2.5843    3.2708 C   0  0  0  0  0  0  0  0  0  0  0  0
    2.9444    3.3840    2.6941 C   0  0  0  0  0  0  0  0  0  0  0  0
    3.4709    4.4262    3.3936 O   0  0  0  0  0  0  0  0  0  0  0  0
   -1.7582    1.3241   -0.4207 H   0  0  0  0  0  0  0  0  0  0  0  0
    0.5612    1.3330   -1.1573 H   0  0  0  0  0  0  0  0  0  0  0  0
    2.0885   -0.4456   -0.0379 H   0  0  0  0  0  0  0  0  0  0  0  0
    0.8775   -0.6345    1.2040 H   0  0  0  0  0  0  0  0  0  0  0  0
    3.2093    1.8438   -0.3224 H   0  0  0  0  0  0  0  0  0  0  0  0
    0.6505    0.8978    3.0116 H   0  0  0  0  0  0  0  0  0  0  0  0
    4.1615    3.7341    0.9463 H   0  0  0  0  0  0  0  0  0  0  0  0
    1.6046    2.7886    4.2777 H   0  0  0  0  0  0  0  0  0  0  0  0
    3.0600    4.4842    4.2709 H   0  0  0  0  0  0  0  0  0  0  0  0
   -1.3259   -1.3164   -0.8280 N   0  0  0  0  0  0  0  0  0  0  0  0
   -1.9250   -2.4839   -1.4337 C   0  0  2  0  0  0  0  0  0  0  0  0
   -2.1815   -2.1725   -2.9023 C   0  0  0  0  0  0  0  0  0  0  0  0
   -2.2893   -1.0275   -3.3363 O   0  0  0  0  0  0  0  0  0  0  0  0
   -3.2142   -2.8737   -0.7274 C   0  0  0  0  0  0  0  0  0  0  0  0
   -1.7244   -0.9637    0.0371 H   0  0  0  0  0  0  0  0  0  0  0  0
   -1.1911   -3.2933   -1.3541 H   0  0  0  0  0  0  0  0  0  0  0  0
   -3.9616   -2.0749   -0.7965 H   0  0  0  0  0  0  0  0  0  0  0  0
   -3.6518   -3.7749   -1.1693 H   0  0  0  0  0  0  0  0  0  0  0  0
   -3.0329   -3.0683    0.3352 H   0  0  0  0  0  0  0  0  0  0  0  0
   -2.3190   -3.3247   -3.6637 N   0  0  0  0  0  0  0  0  0  0  0  0
   -2.5803   -3.2941   -5.0839 C   0  0  0  0  0  0  0  0  0  0  0  0
   -2.1955   -4.2319   -3.2240 H   0  0  0  0  0  0  0  0  0  0  0  0
   -3.6656   -3.3347   -5.2585 H   0  0  0  0  0  0  0  0  0  0  0  0
   -2.1748   -2.3651   -5.5112 H   0  0  0  0  0  0  0  0  0  0  0  0
   -2.0993   -4.1591   -5.5638 H   0  0  0  0  0  0  0  0  0  0  0  0
 23 25  2  0  0  0  0
 22 23  1  0  0  0  0
 24 26  1  0  0  0  0
 22 24  2  0  0  0  0
 25 27  1  0  0  0  0
 26 27  2  0  0  0  0
 21 22  1  0  0  0  0
 27 28  1  0  0  0  0
  1  3  1  0  0  0  0
  1  7  1  0  0  0  0
  1  2  2  0  0  0  0
 39 40  1  0  0  0  0
 40 48  1  0  0  0  0
 40 41  2  0  0  0  0
  8  9  1  0  0  0  0
  9 17  1  0  0  0  0
  9 10  2  0  0  0  0
 18 19  1  0  0  0  0
 19 38  1  0  0  0  0
 19 20  2  0  0  0  0
 39 42  1  0  0  0  0
  8 11  1  0  0  0  0
 48 49  1  0  0  0  0
 18 21  1  0  0  0  0
 38 39  1  0  0  0  0
  7  8  1  0  0  0  0
 17 18  1  0  0  0  0
 23 33  1  0  0  0  0
 24 34  1  0  0  0  0
 25 35  1  0  0  0  0
 26 36  1  0  0  0  0
  3  4  1  0  0  0  0
  3  5  1  0  0  0  0
  3  6  1  0  0  0  0
 42 45  1  0  0  0  0
 42 46  1  0  0  0  0
 42 47  1  0  0  0  0
 11 14  1  0  0  0  0
 11 15  1  0  0  0  0
 11 16  1  0  0  0  0
 49 51  1  0  0  0  0
 49 52  1  0  0  0  0
 49 53  1  0  0  0  0
 21 31  1  0  0  0  0
 21 32  1  0  0  0  0
 39 44  1  0  0  0  0
  8 13  1  0  0  0  0
 18 30  1  0  0  0  0
 48 50  1  0  0  0  0
  7 12  1  0  0  0  0
 38 43  1  0  0  0  0
 17 29  1  0  0  0  0
 28 37  1  0  0  0  0
M  END
$$$$

  -OEChem-05262214473D

 53 53  0     1  0  0  0  0  0999 V2000
   -1.9298    0.2574    3.9747 C   0  0  0  0  0  0  0  0  0  0  0  0
   -0.9825   -0.3573    3.4990 O   0  0  0  0  0  0  0  0  0  0  0  0
   -2.3617   -0.0250    5.3754 C   0  0  0  0  0  0  0  0  0  0  0  0
   -3.1214   -0.8213    5.4288 H   0  0  0  0  0  0  0  0  0  0  0  0
   -1.5305   -0.3726    6.0097 H   0  0  0  0  0  0  0  0  0  0  0  0
   -2.7997    0.8299    5.9150 H   0  0  0  0  0  0  0  0  0  0  0  0
   -2.6795    1.2298    3.3336 N   0  0  0  0  0  0  0  0  0  0  0  0
   -2.4327    1.6559    1.9812 C   0  0  2  0  0  0  0  0  0  0  0  0
   -1.0977    1.0705    1.5400 C   0  0  0  0  0  0  0  0  0  0  0  0
   -0.2256    0.7177    2.3313 O   0  0  0  0  0  0  0  0  0  0  0  0
   -2.4239    3.1726    1.8718 C   0  0  0  0  0  0  0  0  0  0  0  0
   -3.4446    1.6657    3.8454 H   0  0  0  0  0  0  0  0  0  0  0  0
   -3.2368    1.2374    1.3661 H   0  0  0  0  0  0  0  0  0  0  0  0
   -1.6248    3.6099    2.4815 H   0  0  0  0  0  0  0  0  0  0  0  0
   -2.2644    3.4949    0.8375 H   0  0  0  0  0  0  0  0  0  0  0  0
   -3.3741    3.5939    2.2175 H   0  0  0  0  0  0  0  0  0  0  0  0
   -0.9750    1.0274    0.1566 N   0  0  0  0  0  0  0  0  0  0  0  0
    0.2023    0.5266   -0.5070 C   0  0  2  0  0  0  0  0  0  0  0  0
   -0.2333   -0.6530   -1.3690 C   0  0  0  0  0  0  0  0  0  0  0  0
    0.4864   -1.1541   -2.2303 O   0  0  0  0  0  0  0  0  0  0  0  0
    1.2851    0.0896    0.4862 C   0  0  0  0  0  0  0  0  0  0  0  0
    1.8674    1.2465    1.2611 C   0  0  0  0  0  0  0  0  0  0  0  0
    2.8542    2.0461    0.6845 C   0  0  0  0  0  0  0  0  0  0  0  0
    1.4192    1.5156    2.5543 C   0  0  0  0  0  0  0  0  0  0  0  0
    3.3927    3.1149    1.4009 C   0  0  0  0  0  0  0  0  0  0  0  0
    1.9577    2.5843    3.2708 C   0  0  0  0  0  0  0  0  0  0  0  0
    2.9444    3.3840    2.6941 C   0  0  0  0  0  0  0  0  0  0  0  0
    3.4709    4.4262    3.3936 O   0  0  0  0  0  0  0  0  0  0  0  0
   -1.7582    1.3241   -0.4207 H   0  0  0  0  0  0  0  0  0  0  0  0
    0.5612    1.3330   -1.1573 H   0  0  0  0  0  0  0  0  0  0  0  0
    2.0885   -0.4456   -0.0379 H   0  0  0  0  0  0  0  0  0  0  0  0
    0.8775   -0.6345    1.2040 H   0  0  0  0  0  0  0  0  0  0  0  0
    3.2093    1.8438   -0.3224 H   0  0  0  0  0  0  0  0  0  0  0  0
    0.6505    0.8978    3.0116 H   0  0  0  0  0  0  0  0  0  0  0  0
    4.1615    3.7341    0.9463 H   0  0  0  0  0  0  0  0  0  0  0  0
    1.6046    2.7886    4.2777 H   0  0  0  0  0  0  0  0  0  0  0  0
    3.0600    4.4842    4.2709 H   0  0  0  0  0  0  0  0  0  0  0  0
   -1.4991   -1.1076   -1.0262 N   0  0  0  0  0  0  0  0  0  0  0  0
   -2.1412   -2.2298   -1.6722 C   0  0  2  0  0  0  0  0  0  0  0  0
   -2.0558   -2.0176   -3.1779 C   0  0  0  0  0  0  0  0  0  0  0  0
   -1.8994   -0.9118   -3.6917 O   0  0  0  0  0  0  0  0  0  0  0  0
   -3.5875   -2.3725   -1.2245 C   0  0  0  0  0  0  0  0  0  0  0  0
   -1.9994   -0.6275   -0.2839 H   0  0  0  0  0  0  0  0  0  0  0  0
   -1.5703   -3.1229   -1.3957 H   0  0  0  0  0  0  0  0  0  0  0  0
   -4.1753   -1.4871   -1.4929 H   0  0  0  0  0  0  0  0  0  0  0  0
   -4.0641   -3.2400   -1.6930 H   0  0  0  0  0  0  0  0  0  0  0  0
   -3.6489   -2.4953   -0.1378 H   0  0  0  0  0  0  0  0  0  0  0  0
   -2.2179   -3.2025   -3.8820 N   0  0  0  0  0  0  0  0  0  0  0  0
   -2.1898   -3.2622   -5.3247 C   0  0  0  0  0  0  0  0  0  0  0  0
   -2.3235   -4.0755   -3.3734 H   0  0  0  0  0  0  0  0  0  0  0  0
   -3.2134   -3.1672   -5.7162 H   0  0  0  0  0  0  0  0  0  0  0  0
   -1.5708   -2.4403   -5.7136 H   0  0  0  0  0  0  0  0  0  0  0  0
   -1.7634   -4.2248   -5.6435 H   0  0  0  0  0  0  0  0  0  0  0  0
 23 25  2  0  0  0  0
 22 23  1  0  0  0  0
 24 26  1  0  0  0  0
 22 24  2  0  0  0  0
 25 27  1  0  0  0  0
 26 27  2  0  0  0  0
 21 22  1  0  0  0  0
 27 28  1  0  0  0  0
  1  3  1  0  0  0  0
  1  7  1  0  0  0  0
  1  2  2  0  0  0  0
 39 40  1  0  0  0  0
 40 48  1  0  0  0  0
 40 41  2  0  0  0  0
  8  9  1  0  0  0  0
  9 17  1  0  0  0  0
  9 10  2  0  0  0  0
 18 19  1  0  0  0  0
 19 38  1  0  0  0  0
 19 20  2  0  0  0  0
 39 42  1  0  0  0  0
  8 11  1  0  0  0  0
 48 49  1  0  0  0  0
 18 21  1  0  0  0  0
 38 39  1  0  0  0  0
  7  8  1  0  0  0  0
 17 18  1  0  0  0  0
 23 33  1  0  0  0  0
 24 34  1  0  0  0  0
 25 35  1  0  0  0  0
 26 36  1  0  0  0  0
  3  4  1  0  0  0  0
  3  5  1  0  0  0  0
  3  6  1  0  0  0  0
 42 45  1  0  0  0  0
 42 46  1  0  0  0  0
 42 47  1  0  0  0  0
 11 14  1  0  0  0  0
 11 15  1  0  0  0  0
 11 16  1  0  0  0  0
 49 51  1  0  0  0  0
 49 52  1  0  0  0  0
 49 53  1  0  0  0  0
 21 31  1  0  0  0  0
 21 32  1  0  0  0  0
 39 44  1  0  0  0  0
  8 13  1  0  0  0  0
 18 30  1  0  0  0  0
 48 50  1  0  0  0  0
  7 12  1  0  0  0  0
 38 43  1  0  0  0  0
 17 29  1  0  0  0  0
 28 37  1  0  0  0  0
M  END
$$$$

  -OEChem-05262214473D

 53 53  0     1  0  0  0  0  0999 V2000
   -1.9298    0.2574    3.9747 C   0  0  0  0  0  0  0  0  0  0  0  0
   -0.9825   -0.3573    3.4990 O   0  0  0  0  0  0  0  0  0  0  0  0
   -2.3617   -0.0250    5.3754 C   0  0  0  0  0  0  0  0  0  0  0  0
   -3.1214   -0.8213    5.4288 H   0  0  0  0  0  0  0  0  0  0  0  0
   -1.5305   -0.3726    6.0097 H   0  0  0  0  0  0  0  0  0  0  0  0
   -2.7997    0.8299    5.9150 H   0  0  0  0  0  0  0  0  0  0  0  0
   -2.6795    1.2298    3.3336 N   0  0  0  0  0  0  0  0  0  0  0  0
   -2.4327    1.6559    1.9812 C   0  0  2  0  0  0  0  0  0  0  0  0
   -1.0977    1.0705    1.5400 C   0  0  0  0  0  0  0  0  0  0  0  0
   -0.2256    0.7177    2.3313 O   0  0  0  0  0  0  0  0  0  0  0  0
   -2.4239    3.1726    1.8718 C   0  0  0  0  0  0  0  0  0  0  0  0
   -3.4446    1.6657    3.8454 H   0  0  0  0  0  0  0  0  0  0  0  0
   -3.2368    1.2374    1.3661 H   0  0  0  0  0  0  0  0  0  0  0  0
   -1.6248    3.6099    2.4815 H   0  0  0  0  0  0  0  0  0  0  0  0
   -2.2644    3.4949    0.8375 H   0  0  0  0  0  0  0  0  0  0  0  0
   -3.3741    3.5939    2.2175 H   0  0  0  0  0  0  0  0  0  0  0  0
   -0.9750    1.0274    0.1566 N   0  0  0  0  0  0  0  0  0  0  0  0
    0.2023    0.5266   -0.5070 C   0  0  2  0  0  0  0  0  0  0  0  0
   -0.2333   -0.6530   -1.3690 C   0  0  0  0  0  0  0  0  0  0  0  0
    0.5545   -1.3237   -2.0327 O   0  0  0  0  0  0  0  0  0  0  0  0
    1.2851    0.0896    0.4862 C   0  0  0  0  0  0  0  0  0  0  0  0
    1.8674    1.2465    1.2611 C   0  0  0  0  0  0  0  0  0  0  0  0
    2.8542    2.0461    0.6845 C   0  0  0  0  0  0  0  0  0  0  0  0
    1.4192    1.5156    2.5543 C   0  0  0  0  0  0  0  0  0  0  0  0
    3.3927    3.1149    1.4009 C   0  0  0  0  0  0  0  0  0  0  0  0
    1.9577    2.5843    3.2708 C   0  0  0  0  0  0  0  0  0  0  0  0
    2.9444    3.3840    2.6941 C   0  0  0  0  0  0  0  0  0  0  0  0
    3.4709    4.4262    3.3936 O   0  0  0  0  0  0  0  0  0  0  0  0
   -1.7582    1.3241   -0.4207 H   0  0  0  0  0  0  0  0  0  0  0  0
    0.5612    1.3330   -1.1573 H   0  0  0  0  0  0  0  0  0  0  0  0
    2.0885   -0.4456   -0.0379 H   0  0  0  0  0  0  0  0  0  0  0  0
    0.8775   -0.6345    1.2040 H   0  0  0  0  0  0  0  0  0  0  0  0
    3.2093    1.8438   -0.3224 H   0  0  0  0  0  0  0  0  0  0  0  0
    0.6505    0.8978    3.0116 H   0  0  0  0  0  0  0  0  0  0  0  0
    4.1615    3.7341    0.9463 H   0  0  0  0  0  0  0  0  0  0  0  0
    1.6046    2.7886    4.2777 H   0  0  0  0  0  0  0  0  0  0  0  0
    3.0600    4.4842    4.2709 H   0  0  0  0  0  0  0  0  0  0  0  0
   -1.5962   -0.8952   -1.2677 N   0  0  0  0  0  0  0  0  0  0  0  0
   -2.2651   -1.9703   -1.9646 C   0  0  2  0  0  0  0  0  0  0  0  0
   -1.8565   -1.9067   -3.4304 C   0  0  0  0  0  0  0  0  0  0  0  0
   -1.4348   -0.8834   -3.9654 O   0  0  0  0  0  0  0  0  0  0  0  0
   -3.7753   -1.8706   -1.8165 C   0  0  0  0  0  0  0  0  0  0  0  0
   -2.1515   -0.2863   -0.6740 H   0  0  0  0  0  0  0  0  0  0  0  0
   -1.9033   -2.9059   -1.5243 H   0  0  0  0  0  0  0  0  0  0  0  0
   -4.1561   -0.9395   -2.2519 H   0  0  0  0  0  0  0  0  0  0  0  0
   -4.2792   -2.7016   -2.3210 H   0  0  0  0  0  0  0  0  0  0  0  0
   -4.0653   -1.8866   -0.7604 H   0  0  0  0  0  0  0  0  0  0  0  0
   -2.0588   -3.1155   -4.0815 N   0  0  0  0  0  0  0  0  0  0  0  0
   -1.7597   -3.3065   -5.4816 C   0  0  0  0  0  0  0  0  0  0  0  0
   -2.3944   -3.9166   -3.5550 H   0  0  0  0  0  0  0  0  0  0  0  0
   -2.6604   -3.1054   -6.0802 H   0  0  0  0  0  0  0  0  0  0  0  0
   -0.9579   -2.6162   -5.7826 H   0  0  0  0  0  0  0  0  0  0  0  0
   -1.4327   -4.3434   -5.6484 H   0  0  0  0  0  0  0  0  0  0  0  0
 23 25  2  0  0  0  0
 22 23  1  0  0  0  0
 24 26  1  0  0  0  0
 22 24  2  0  0  0  0
 25 27  1  0  0  0  0
 26 27  2  0  0  0  0
 21 22  1  0  0  0  0
 27 28  1  0  0  0  0
  1  3  1  0  0  0  0
  1  7  1  0  0  0  0
  1  2  2  0  0  0  0
 39 40  1  0  0  0  0
 40 48  1  0  0  0  0
 40 41  2  0  0  0  0
  8  9  1  0  0  0  0
  9 17  1  0  0  0  0
  9 10  2  0  0  0  0
 18 19  1  0  0  0  0
 19 38  1  0  0  0  0
 19 20  2  0  0  0  0
 39 42  1  0  0  0  0
  8 11  1  0  0  0  0
 48 49  1  0  0  0  0
 18 21  1  0  0  0  0
 38 39  1  0  0  0  0
  7  8  1  0  0  0  0
 17 18  1  0  0  0  0
 23 33  1  0  0  0  0
 24 34  1  0  0  0  0
 25 35  1  0  0  0  0
 26 36  1  0  0  0  0
  3  4  1  0  0  0  0
  3  5  1  0  0  0  0
  3  6  1  0  0  0  0
 42 45  1  0  0  0  0
 42 46  1  0  0  0  0
 42 47  1  0  0  0  0
 11 14  1  0  0  0  0
 11 15  1  0  0  0  0
 11 16  1  0  0  0  0
 49 51  1  0  0  0  0
 49 52  1  0  0  0  0
 49 53  1  0  0  0  0
 21 31  1  0  0  0  0
 21 32  1  0  0  0  0
 39 44  1  0  0  0  0
  8 13  1  0  0  0  0
 18 30  1  0  0  0  0
 48 50  1  0  0  0  0
  7 12  1  0  0  0  0
 38 43  1  0  0  0  0
 17 29  1  0  0  0  0
 28 37  1  0  0  0  0
M  END
$$$$

  -OEChem-05262214473D

 53 53  0     1  0  0  0  0  0999 V2000
   -1.9298    0.2574    3.9747 C   0  0  0  0  0  0  0  0  0  0  0  0
   -0.9825   -0.3573    3.4990 O   0  0  0  0  0  0  0  0  0  0  0  0
   -2.3617   -0.0250    5.3754 C   0  0  0  0  0  0  0  0  0  0  0  0
   -3.1214   -0.8213    5.4288 H   0  0  0  0  0  0  0  0  0  0  0  0
   -1.5305   -0.3726    6.0097 H   0  0  0  0  0  0  0  0  0  0  0  0
   -2.7997    0.8299    5.9150 H   0  0  0  0  0  0  0  0  0  0  0  0
   -2.6795    1.2298    3.3336 N   0  0  0  0  0  0  0  0  0  0  0  0
   -2.4327    1.6559    1.9812 C   0  0  2  0  0  0  0  0  0  0  0  0
   -1.0977    1.0705    1.5400 C   0  0  0  0  0  0  0  0  0  0  0  0
   -0.2256    0.7177    2.3313 O   0  0  0  0  0  0  0  0  0  0  0  0
   -2.4239    3.1726    1.8718 C   0  0  0  0  0  0  0  0  0  0  0  0
   -3.4446    1.6657    3.8454 H   0  0  0  0  0  0  0  0  0  0  0  0
   -3.2368    1.2374    1.3661 H   0  0  0  0  0  0  0  0  0  0  0  0
   -1.6248    3.6099    2.4815 H   0  0  0  0  0  0  0  0  0  0  0  0
   -2.2644    3.4949    0.8375 H   0  0  0  0  0  0  0  0  0  0  0  0
   -3.3741    3.5939    2.2175 H   0  0  0  0  0  0  0  0  0  0  0  0
   -0.9750    1.0274    0.1566 N   0  0  0  0  0  0  0  0  0  0  0  0
    0.2023    0.5266   -0.5070 C   0  0  2  0  0  0  0  0  0  0  0  0
   -0.2333   -0.6530   -1.3690 C   0  0  0  0  0  0  0  0  0  0  0  0
    0.5558   -1.4829   -1.8156 O   0  0  0  0  0  0  0  0  0  0  0  0
    1.2851    0.0896    0.4862 C   0  0  0  0  0  0  0  0  0  0  0  0
    1.8674    1.2465    1.2611 C   0  0  0  0  0  0  0  0  0  0  0  0
    2.8542    2.0461    0.6845 C   0  0  0  0  0  0  0  0  0  0  0  0
    1.4192    1.5156    2.5543 C   0  0  0  0  0  0  0  0  0  0  0  0
    3.3927    3.1149    1.4009 C   0  0  0  0  0  0  0  0  0  0  0  0
    1.9577    2.5843    3.2708 C   0  0  0  0  0  0  0  0  0  0  0  0
    2.9444    3.3840    2.6941 C   0  0  0  0  0  0  0  0  0  0  0  0
    3.4709    4.4262    3.3936 O   0  0  0  0  0  0  0  0  0  0  0  0
   -1.7582    1.3241   -0.4207 H   0  0  0  0  0  0  0  0  0  0  0  0
    0.5612    1.3330   -1.1573 H   0  0  0  0  0  0  0  0  0  0  0  0
    2.0885   -0.4456   -0.0379 H   0  0  0  0  0  0  0  0  0  0  0  0
    0.8775   -0.6345    1.2040 H   0  0  0  0  0  0  0  0  0  0  0  0
    3.2093    1.8438   -0.3224 H   0  0  0  0  0  0  0  0  0  0  0  0
    0.6505    0.8978    3.0116 H   0  0  0  0  0  0  0  0  0  0  0  0
    4.1615    3.7341    0.9463 H   0  0  0  0  0  0  0  0  0  0  0  0
    1.6046    2.7886    4.2777 H   0  0  0  0  0  0  0  0  0  0  0  0
    3.0600    4.4842    4.2709 H   0  0  0  0  0  0  0  0  0  0  0  0
   -1.6106   -0.6937   -1.5362 N   0  0  0  0  0  0  0  0  0  0  0  0
   -2.2882   -1.7232   -2.2911 C   0  0  2  0  0  0  0  0  0  0  0  0
   -1.5971   -1.8474   -3.6426 C   0  0  0  0  0  0  0  0  0  0  0  0
   -0.9270   -0.9442   -4.1388 O   0  0  0  0  0  0  0  0  0  0  0  0
   -3.7647   -1.4020   -2.4631 C   0  0  0  0  0  0  0  0  0  0  0  0
   -2.1704    0.0367   -1.1064 H   0  0  0  0  0  0  0  0  0  0  0  0
   -2.1675   -2.6571   -1.7314 H   0  0  0  0  0  0  0  0  0  0  0  0
   -3.9055   -0.4695   -3.0217 H   0  0  0  0  0  0  0  0  0  0  0  0
   -4.2824   -2.1966   -3.0104 H   0  0  0  0  0  0  0  0  0  0  0  0
   -4.2537   -1.2837   -1.4901 H   0  0  0  0  0  0  0  0  0  0  0  0
   -1.8523   -3.0694   -4.2489 N   0  0  0  0  0  0  0  0  0  0  0  0
   -1.3193   -3.4237   -5.5436 C   0  0  0  0  0  0  0  0  0  0  0  0
   -2.4032   -3.7663   -3.7563 H   0  0  0  0  0  0  0  0  0  0  0  0
   -2.0443   -3.1536   -6.3256 H   0  0  0  0  0  0  0  0  0  0  0  0
   -0.3777   -2.8810   -5.7134 H   0  0  0  0  0  0  0  0  0  0  0  0
   -1.1296   -4.5067   -5.5781 H   0  0  0  0  0  0  0  0  0  0  0  0
 23 25  2  0  0  0  0
 22 23  1  0  0  0  0
 24 26  1  0  0  0  0
 22 24  2  0  0  0  0
 25 27  1  0  0  0  0
 26 27  2  0  0  0  0
 21 22  1  0  0  0  0
 27 28  1  0  0  0  0
  1  3  1  0  0  0  0
  1  7  1  0  0  0  0
  1  2  2  0  0  0  0
 39 40  1  0  0  0  0
 40 48  1  0  0  0  0
 40 41  2  0  0  0  0
  8  9  1  0  0  0  0
  9 17  1  0  0  0  0
  9 10  2  0  0  0  0
 18 19  1  0  0  0  0
 19 38  1  0  0  0  0
 19 20  2  0  0  0  0
 39 42  1  0  0  0  0
  8 11  1  0  0  0  0
 48 49  1  0  0  0  0
 18 21  1  0  0  0  0
 38 39  1  0  0  0  0
  7  8  1  0  0  0  0
 17 18  1  0  0  0  0
 23 33  1  0  0  0  0
 24 34  1  0  0  0  0
 25 35  1  0  0  0  0
 26 36  1  0  0  0  0
  3  4  1  0  0  0  0
  3  5  1  0  0  0  0
  3  6  1  0  0  0  0
 42 45  1  0  0  0  0
 42 46  1  0  0  0  0
 42 47  1  0  0  0  0
 11 14  1  0  0  0  0
 11 15  1  0  0  0  0
 11 16  1  0  0  0  0
 49 51  1  0  0  0  0
 49 52  1  0  0  0  0
 49 53  1  0  0  0  0
 21 31  1  0  0  0  0
 21 32  1  0  0  0  0
 39 44  1  0  0  0  0
  8 13  1  0  0  0  0
 18 30  1  0  0  0  0
 48 50  1  0  0  0  0
  7 12  1  0  0  0  0
 38 43  1  0  0  0  0
 17 29  1  0  0  0  0
 28 37  1  0  0  0  0
M  END
$$$$

  -OEChem-05262214473D

 53 53  0     1  0  0  0  0  0999 V2000
   -1.9298    0.2574    3.9747 C   0  0  0  0  0  0  0  0  0  0  0  0
   -0.9825   -0.3573    3.4990 O   0  0  0  0  0  0  0  0  0  0  0  0
   -2.3617   -0.0250    5.3754 C   0  0  0  0  0  0  0  0  0  0  0  0
   -3.1214   -0.8213    5.4288 H   0  0  0  0  0  0  0  0  0  0  0  0
   -1.5305   -0.3726    6.0097 H   0  0  0  0  0  0  0  0  0  0  0  0
   -2.7997    0.8299    5.9150 H   0  0  0  0  0  0  0  0  0  0  0  0
   -2.6795    1.2298    3.3336 N   0  0  0  0  0  0  0  0  0  0  0  0
   -2.4327    1.6559    1.9812 C   0  0  2  0  0  0  0  0  0  0  0  0
   -1.0977    1.0705    1.5400 C   0  0  0  0  0  0  0  0  0  0  0  0
   -0.2256    0.7177    2.3313 O   0  0  0  0  0  0  0  0  0  0  0  0
   -2.4239    3.1726    1.8718 C   0  0  0  0  0  0  0  0  0  0  0  0
   -3.4446    1.6657    3.8454 H   0  0  0  0  0  0  0  0  0  0  0  0
   -3.2368    1.2374    1.3661 H   0  0  0  0  0  0  0  0  0  0  0  0
   -1.6248    3.6099    2.4815 H   0  0  0  0  0  0  0  0  0  0  0  0
   -2.2644    3.4949    0.8375 H   0  0  0  0  0  0  0  0  0  0  0  0
   -3.3741    3.5939    2.2175 H   0  0  0  0  0  0  0  0  0  0  0  0
   -0.9750    1.0274    0.1566 N   0  0  0  0  0  0  0  0  0  0  0  0
    0.2023    0.5266   -0.5070 C   0  0  2  0  0  0  0  0  0  0  0  0
   -0.2333   -0.6530   -1.3690 C   0  0  0  0  0  0  0  0  0  0  0  0
    0.4904   -1.6207   -1.5939 O   0  0  0  0  0  0  0  0  0  0  0  0
    1.2851    0.0896    0.4862 C   0  0  0  0  0  0  0  0  0  0  0  0
    1.8674    1.2465    1.2611 C   0  0  0  0  0  0  0  0  0  0  0  0
    2.8542    2.0461    0.6845 C   0  0  0  0  0  0  0  0  0  0  0  0
    1.4192    1.5156    2.5543 C   0  0  0  0  0  0  0  0  0  0  0  0
    3.3927    3.1149    1.4009 C   0  0  0  0  0  0  0  0  0  0  0  0
    1.9577    2.5843    3.2708 C   0  0  0  0  0  0  0  0  0  0  0  0
    2.9444    3.3840    2.6941 C   0  0  0  0  0  0  0  0  0  0  0  0
    3.4709    4.4262    3.3936 O   0  0  0  0  0  0  0  0  0  0  0  0
   -1.7582    1.3241   -0.4207 H   0  0  0  0  0  0  0  0  0  0  0  0
    0.5612    1.3330   -1.1573 H   0  0  0  0  0  0  0  0  0  0  0  0
    2.0885   -0.4456   -0.0379 H   0  0  0  0  0  0  0  0  0  0  0  0
    0.8775   -0.6345    1.2040 H   0  0  0  0  0  0  0  0  0  0  0  0
    3.2093    1.8438   -0.3224 H   0  0  0  0  0  0  0  0  0  0  0  0
    0.6505    0.8978    3.0116 H   0  0  0  0  0  0  0  0  0  0  0  0
    4.1615    3.7341    0.9463 H   0  0  0  0  0  0  0  0  0  0  0  0
    1.6046    2.7886    4.2777 H   0  0  0  0  0  0  0  0  0  0  0  0
    3.0600    4.4842    4.2709 H   0  0  0  0  0  0  0  0  0  0  0  0
   -1.5412   -0.5169   -1.8133 N   0  0  0  0  0  0  0  0  0  0  0  0
   -2.2090   -1.5053   -2.6293 C   0  0  2  0  0  0  0  0  0  0  0  0
   -1.2955   -1.8437   -3.8000 C   0  0  0  0  0  0  0  0  0  0  0  0
   -0.4107   -1.0900   -4.2001 O   0  0  0  0  0  0  0  0  0  0  0  0
   -3.5564   -0.9988   -3.1201 C   0  0  0  0  0  0  0  0  0  0  0  0
   -2.0548    0.3195   -1.5518 H   0  0  0  0  0  0  0  0  0  0  0  0
   -2.3448   -2.3934   -2.0026 H   0  0  0  0  0  0  0  0  0  0  0  0
   -3.4405   -0.1092   -3.7498 H   0  0  0  0  0  0  0  0  0  0  0  0
   -4.0736   -1.7593   -3.7144 H   0  0  0  0  0  0  0  0  0  0  0  0
   -4.2014   -0.7278   -2.2773 H   0  0  0  0  0  0  0  0  0  0  0  0
   -1.6126   -3.0675   -4.3726 N   0  0  0  0  0  0  0  0  0  0  0  0
   -0.8987   -3.6060   -5.5067 C   0  0  0  0  0  0  0  0  0  0  0  0
   -2.3494   -3.6346   -3.9636 H   0  0  0  0  0  0  0  0  0  0  0  0
   -1.4071   -3.3084   -6.4357 H   0  0  0  0  0  0  0  0  0  0  0  0
    0.1301   -3.2165   -5.5109 H   0  0  0  0  0  0  0  0  0  0  0  0
   -0.8748   -4.7036   -5.4374 H   0  0  0  0  0  0  0  0  0  0  0  0
 23 25  2  0  0  0  0
 22 23  1  0  0  0  0
 24 26  1  0  0  0  0
 22 24  2  0  0  0  0
 25 27  1  0  0  0  0
 26 27  2  0  0  0  0
 21 22  1  0  0  0  0
 27 28  1  0  0  0  0
  1  3  1  0  0  0  0
  1  7  1  0  0  0  0
  1  2  2  0  0  0  0
 39 40  1  0  0  0  0
 40 48  1  0  0  0  0
 40 41  2  0  0  0  0
  8  9  1  0  0  0  0
  9 17  1  0  0  0  0
  9 10  2  0  0  0  0
 18 19  1  0  0  0  0
 19 38  1  0  0  0  0
 19 20  2  0  0  0  0
 39 42  1  0  0  0  0
  8 11  1  0  0  0  0
 48 49  1  0  0  0  0
 18 21  1  0  0  0  0
 38 39  1  0  0  0  0
  7  8  1  0  0  0  0
 17 18  1  0  0  0  0
 23 33  1  0  0  0  0
 24 34  1  0  0  0  0
 25 35  1  0  0  0  0
 26 36  1  0  0  0  0
  3  4  1  0  0  0  0
  3  5  1  0  0  0  0
  3  6  1  0  0  0  0
 42 45  1  0  0  0  0
 42 46  1  0  0  0  0
 42 47  1  0  0  0  0
 11 14  1  0  0  0  0
 11 15  1  0  0  0  0
 11 16  1  0  0  0  0
 49 51  1  0  0  0  0
 49 52  1  0  0  0  0
 49 53  1  0  0  0  0
 21 31  1  0  0  0  0
 21 32  1  0  0  0  0
 39 44  1  0  0  0  0
  8 13  1  0  0  0  0
 18 30  1  0  0  0  0
 48 50  1  0  0  0  0
  7 12  1  0  0  0  0
 38 43  1  0  0  0  0
 17 29  1  0  0  0  0
 28 37  1  0  0  0  0
M  END
$$$$

  -OEChem-05262214473D

 53 53  0     1  0  0  0  0  0999 V2000
   -1.9298    0.2574    3.9747 C   0  0  0  0  0  0  0  0  0  0  0  0
   -0.9825   -0.3573    3.4990 O   0  0  0  0  0  0  0  0  0  0  0  0
   -2.3617   -0.0250    5.3754 C   0  0  0  0  0  0  0  0  0  0  0  0
   -3.1214   -0.8213    5.4288 H   0  0  0  0  0  0  0  0  0  0  0  0
   -1.5305   -0.3726    6.0097 H   0  0  0  0  0  0  0  0  0  0  0  0
   -2.7997    0.8299    5.9150 H   0  0  0  0  0  0  0  0  0  0  0  0
   -2.6795    1.2298    3.3336 N   0  0  0  0  0  0  0  0  0  0  0  0
   -2.4327    1.6559    1.9812 C   0  0  2  0  0  0  0  0  0  0  0  0
   -1.0977    1.0705    1.5400 C   0  0  0  0  0  0  0  0  0  0  0  0
   -0.2256    0.7177    2.3313 O   0  0  0  0  0  0  0  0  0  0  0  0
   -2.4239    3.1726    1.8718 C   0  0  0  0  0  0  0  0  0  0  0  0
   -3.4446    1.6657    3.8454 H   0  0  0  0  0  0  0  0  0  0  0  0
   -3.2368    1.2374    1.3661 H   0  0  0  0  0  0  0  0  0  0  0  0
   -1.6248    3.6099    2.4815 H   0  0  0  0  0  0  0  0  0  0  0  0
   -2.2644    3.4949    0.8375 H   0  0  0  0  0  0  0  0  0  0  0  0
   -3.3741    3.5939    2.2175 H   0  0  0  0  0  0  0  0  0  0  0  0
   -0.9750    1.0274    0.1566 N   0  0  0  0  0  0  0  0  0  0  0  0
    0.2023    0.5266   -0.5070 C   0  0  2  0  0  0  0  0  0  0  0  0
   -0.2333   -0.6530   -1.3690 C   0  0  0  0  0  0  0  0  0  0  0  0
    0.3627   -1.7279   -1.3826 O   0  0  0  0  0  0  0  0  0  0  0  0
    1.2851    0.0896    0.4862 C   0  0  0  0  0  0  0  0  0  0  0  0
    1.8674    1.2465    1.2611 C   0  0  0  0  0  0  0  0  0  0  0  0
    2.8542    2.0461    0.6845 C   0  0  0  0  0  0  0  0  0  0  0  0
    1.4192    1.5156    2.5543 C   0  0  0  0  0  0  0  0  0  0  0  0
    3.3927    3.1149    1.4009 C   0  0  0  0  0  0  0  0  0  0  0  0
    1.9577    2.5843    3.2708 C   0  0  0  0  0  0  0  0  0  0  0  0
    2.9444    3.3840    2.6941 C   0  0  0  0  0  0  0  0  0  0  0  0
    3.4709    4.4262    3.3936 O   0  0  0  0  0  0  0  0  0  0  0  0
   -1.7582    1.3241   -0.4207 H   0  0  0  0  0  0  0  0  0  0  0  0
    0.5612    1.3330   -1.1573 H   0  0  0  0  0  0  0  0  0  0  0  0
    2.0885   -0.4456   -0.0379 H   0  0  0  0  0  0  0  0  0  0  0  0
    0.8775   -0.6345    1.2040 H   0  0  0  0  0  0  0  0  0  0  0  0
    3.2093    1.8438   -0.3224 H   0  0  0  0  0  0  0  0  0  0  0  0
    0.6505    0.8978    3.0116 H   0  0  0  0  0  0  0  0  0  0  0  0
    4.1615    3.7341    0.9463 H   0  0  0  0  0  0  0  0  0  0  0  0
    1.6046    2.7886    4.2777 H   0  0  0  0  0  0  0  0  0  0  0  0
    3.0600    4.4842    4.2709 H   0  0  0  0  0  0  0  0  0  0  0  0
   -1.3928   -0.3767   -2.0802 N   0  0  0  0  0  0  0  0  0  0  0  0
   -2.0329   -1.3314   -2.9563 C   0  0  2  0  0  0  0  0  0  0  0  0
   -0.9720   -1.8960   -3.8918 C   0  0  0  0  0  0  0  0  0  0  0  0
    0.0790   -1.3110   -4.1452 O   0  0  0  0  0  0  0  0  0  0  0  0
   -3.1646   -0.6884   -3.7429 C   0  0  0  0  0  0  0  0  0  0  0  0
   -1.8126    0.5428   -1.9798 H   0  0  0  0  0  0  0  0  0  0  0  0
   -2.4231   -2.1328   -2.3196 H   0  0  0  0  0  0  0  0  0  0  0  0
   -2.7928    0.1171   -4.3867 H   0  0  0  0  0  0  0  0  0  0  0  0
   -3.6669   -1.4195   -4.3849 H   0  0  0  0  0  0  0  0  0  0  0  0
   -3.9118   -0.2567   -3.0683 H   0  0  0  0  0  0  0  0  0  0  0  0
   -1.3560   -3.1100   -4.4442 N   0  0  0  0  0  0  0  0  0  0  0  0
   -0.5264   -3.8410   -5.3734 C   0  0  0  0  0  0  0  0  0  0  0  0
   -2.2367   -3.5307   -4.1629 H   0  0  0  0  0  0  0  0  0  0  0  0
   -0.7922   -3.5594   -6.4030 H   0  0  0  0  0  0  0  0  0  0  0  0
    0.5309   -3.5999   -5.1888 H   0  0  0  0  0  0  0  0  0  0  0  0
   -0.6857   -4.9206   -5.2359 H   0  0  0  0  0  0  0  0  0  0  0  0
 23 25  2  0  0  0  0
 22 23  1  0  0  0  0
 24 26  1  0  0  0  0
 22 24  2  0  0  0  0
 25 27  1  0  0  0  0
 26 27  2  0  0  0  0
 21 22  1  0  0  0  0
 27 28  1  0  0  0  0
  1  3  1  0  0  0  0
  1  7  1  0  0  0  0
  1  2  2  0  0  0  0
 39 40  1  0  0  0  0
 40 48  1  0  0  0  0
 40 41  2  0  0  0  0
  8  9  1  0  0  0  0
  9 17  1  0  0  0  0
  9 10  2  0  0  0  0
 18 19  1  0  0  0  0
 19 38  1  0  0  0  0
 19 20  2  0  0  0  0
 39 42  1  0  0  0  0
  8 11  1  0  0  0  0
 48 49  1  0  0  0  0
 18 21  1  0  0  0  0
 38 39  1  0  0  0  0
  7  8  1  0  0  0  0
 17 18  1  0  0  0  0
 23 33  1  0  0  0  0
 24 34  1  0  0  0  0
 25 35  1  0  0  0  0
 26 36  1  0  0  0  0
  3  4  1  0  0  0  0
  3  5  1  0  0  0  0
  3  6  1  0  0  0  0
 42 45  1  0  0  0  0
 42 46  1  0  0  0  0
 42 47  1  0  0  0  0
 11 14  1  0  0  0  0
 11 15  1  0  0  0  0
 11 16  1  0  0  0  0
 49 51  1  0  0  0  0
 49 52  1  0  0  0  0
 49 53  1  0  0  0  0
 21 31  1  0  0  0  0
 21 32  1  0  0  0  0
 39 44  1  0  0  0  0
  8 13  1  0  0  0  0
 18 30  1  0  0  0  0
 48 50  1  0  0  0  0
  7 12  1  0  0  0  0
 38 43  1  0  0  0  0
 17 29  1  0  0  0  0
 28 37  1  0  0  0  0
M  END
$$$$

  -OEChem-05262214473D

 53 53  0     1  0  0  0  0  0999 V2000
   -1.9298    0.2574    3.9747 C   0  0  0  0  0  0  0  0  0  0  0  0
   -0.9825   -0.3573    3.4990 O   0  0  0  0  0  0  0  0  0  0  0  0
   -2.3617   -0.0250    5.3754 C   0  0  0  0  0  0  0  0  0  0  0  0
   -3.1214   -0.8213    5.4288 H   0  0  0  0  0  0  0  0  0  0  0  0
   -1.5305   -0.3726    6.0097 H   0  0  0  0  0  0  0  0  0  0  0  0
   -2.7997    0.8299    5.9150 H   0  0  0  0  0  0  0  0  0  0  0  0
   -2.6795    1.2298    3.3336 N   0  0  0  0  0  0  0  0  0  0  0  0
   -2.4327    1.6559    1.9812 C   0  0  2  0  0  0  0  0  0  0  0  0
   -1.0977    1.0705    1.5400 C   0  0  0  0  0  0  0  0  0  0  0  0
   -0.2256    0.7177    2.3313 O   0  0  0  0  0  0  0  0  0  0  0  0
   -2.4239    3.1726    1.8718 C   0  0  0  0  0  0  0  0  0  0  0  0
   -3.4446    1.6657    3.8454 H   0  0  0  0  0  0  0  0  0  0  0  0
   -3.2368    1.2374    1.3661 H   0  0  0  0  0  0  0  0  0  0  0  0
   -1.6248    3.6099    2.4815 H   0  0  0  0  0  0  0  0  0  0  0  0
   -2.2644    3.4949    0.8375 H   0  0  0  0  0  0  0  0  0  0  0  0
   -3.3741    3.5939    2.2175 H   0  0  0  0  0  0  0  0  0  0  0  0
   -0.9750    1.0274    0.1566 N   0  0  0  0  0  0  0  0  0  0  0  0
    0.2023    0.5266   -0.5070 C   0  0  2  0  0  0  0  0  0  0  0  0
   -0.2333   -0.6530   -1.3690 C   0  0  0  0  0  0  0  0  0  0  0  0
    0.1812   -1.7972   -1.1962 O   0  0  0  0  0  0  0  0  0  0  0  0
    1.2851    0.0896    0.4862 C   0  0  0  0  0  0  0  0  0  0  0  0
    1.8674    1.2465    1.2611 C   0  0  0  0  0  0  0  0  0  0  0  0
    2.8542    2.0461    0.6845 C   0  0  0  0  0  0  0  0  0  0  0  0
    1.4192    1.5156    2.5543 C   0  0  0  0  0  0  0  0  0  0  0  0
    3.3927    3.1149    1.4009 C   0  0  0  0  0  0  0  0  0  0  0  0
    1.9577    2.5843    3.2708 C   0  0  0  0  0  0  0  0  0  0  0  0
    2.9444    3.3840    2.6941 C   0  0  0  0  0  0  0  0  0  0  0  0
    3.4709    4.4262    3.3936 O   0  0  0  0  0  0  0  0  0  0  0  0
   -1.7582    1.3241   -0.4207 H   0  0  0  0  0  0  0  0  0  0  0  0
    0.5612    1.3330   -1.1573 H   0  0  0  0  0  0  0  0  0  0  0  0
    2.0885   -0.4456   -0.0379 H   0  0  0  0  0  0  0  0  0  0  0  0
    0.8775   -0.6345    1.2040 H   0  0  0  0  0  0  0  0  0  0  0  0
    3.2093    1.8438   -0.3224 H   0  0  0  0  0  0  0  0  0  0  0  0
    0.6505    0.8978    3.0116 H   0  0  0  0  0  0  0  0  0  0  0  0
    4.1615    3.7341    0.9463 H   0  0  0  0  0  0  0  0  0  0  0  0
    1.6046    2.7886    4.2777 H   0  0  0  0  0  0  0  0  0  0  0  0
    3.0600    4.4842    4.2709 H   0  0  0  0  0  0  0  0  0  0  0  0
   -1.1755   -0.2827   -2.3186 N   0  0  0  0  0  0  0  0  0  0  0  0
   -1.7718   -1.2133   -3.2498 C   0  0  2  0  0  0  0  0  0  0  0  0
   -0.6488   -2.0007   -3.9120 C   0  0  0  0  0  0  0  0  0  0  0  0
    0.5086   -1.5920   -3.9777 O   0  0  0  0  0  0  0  0  0  0  0  0
   -2.6160   -0.4920   -4.2889 C   0  0  0  0  0  0  0  0  0  0  0  0
   -1.4602    0.6914   -2.3612 H   0  0  0  0  0  0  0  0  0  0  0  0
   -2.3972   -1.8931   -2.6608 H   0  0  0  0  0  0  0  0  0  0  0  0
   -2.0065    0.1937   -4.8888 H   0  0  0  0  0  0  0  0  0  0  0  0
   -3.0900   -1.2004   -4.9762 H   0  0  0  0  0  0  0  0  0  0  0  0
   -3.4048    0.0975   -3.8092 H   0  0  0  0  0  0  0  0  0  0  0  0
   -1.1000   -3.1938   -4.4588 N   0  0  0  0  0  0  0  0  0  0  0  0
   -0.2279   -4.1125   -5.1526 C   0  0  0  0  0  0  0  0  0  0  0  0
   -2.0727   -3.4615   -4.3404 H   0  0  0  0  0  0  0  0  0  0  0  0
   -0.2416   -3.8893   -6.2297 H   0  0  0  0  0  0  0  0  0  0  0  0
    0.7974   -4.0051   -4.7690 H   0  0  0  0  0  0  0  0  0  0  0  0
   -0.5751   -5.1431   -4.9874 H   0  0  0  0  0  0  0  0  0  0  0  0
 23 25  2  0  0  0  0
 22 23  1  0  0  0  0
 24 26  1  0  0  0  0
 22 24  2  0  0  0  0
 25 27  1  0  0  0  0
 26 27  2  0  0  0  0
 21 22  1  0  0  0  0
 27 28  1  0  0  0  0
  1  3  1  0  0  0  0
  1  7  1  0  0  0  0
  1  2  2  0  0  0  0
 39 40  1  0  0  0  0
 40 48  1  0  0  0  0
 40 41  2  0  0  0  0
  8  9  1  0  0  0  0
  9 17  1  0  0  0  0
  9 10  2  0  0  0  0
 18 19  1  0  0  0  0
 19 38  1  0  0  0  0
 19 20  2  0  0  0  0
 39 42  1  0  0  0  0
  8 11  1  0  0  0  0
 48 49  1  0  0  0  0
 18 21  1  0  0  0  0
 38 39  1  0  0  0  0
  7  8  1  0  0  0  0
 17 18  1  0  0  0  0
 23 33  1  0  0  0  0
 24 34  1  0  0  0  0
 25 35  1  0  0  0  0
 26 36  1  0  0  0  0
  3  4  1  0  0  0  0
  3  5  1  0  0  0  0
  3  6  1  0  0  0  0
 42 45  1  0  0  0  0
 42 46  1  0  0  0  0
 42 47  1  0  0  0  0
 11 14  1  0  0  0  0
 11 15  1  0  0  0  0
 11 16  1  0  0  0  0
 49 51  1  0  0  0  0
 49 52  1  0  0  0  0
 49 53  1  0  0  0  0
 21 31  1  0  0  0  0
 21 32  1  0  0  0  0
 39 44  1  0  0  0  0
  8 13  1  0  0  0  0
 18 30  1  0  0  0  0
 48 50  1  0  0  0  0
  7 12  1  0  0  0  0
 38 43  1  0  0  0  0
 17 29  1  0  0  0  0
 28 37  1  0  0  0  0
M  END
$$$$

  -OEChem-05262214473D

 53 53  0     1  0  0  0  0  0999 V2000
   -1.9298    0.2574    3.9747 C   0  0  0  0  0  0  0  0  0  0  0  0
   -0.9825   -0.3573    3.4990 O   0  0  0  0  0  0  0  0  0  0  0  0
   -2.3617   -0.0250    5.3754 C   0  0  0  0  0  0  0  0  0  0  0  0
   -3.1214   -0.8213    5.4288 H   0  0  0  0  0  0  0  0  0  0  0  0
   -1.5305   -0.3726    6.0097 H   0  0  0  0  0  0  0  0  0  0  0  0
   -2.7997    0.8299    5.9150 H   0  0  0  0  0  0  0  0  0  0  0  0
   -2.6795    1.2298    3.3336 N   0  0  0  0  0  0  0  0  0  0  0  0
   -2.4327    1.6559    1.9812 C   0  0  2  0  0  0  0  0  0  0  0  0
   -1.0977    1.0705    1.5400 C   0  0  0  0  0  0  0  0  0  0  0  0
   -0.2256    0.7177    2.3313 O   0  0  0  0  0  0  0  0  0  0  0  0
   -2.4239    3.1726    1.8718 C   0  0  0  0  0  0  0  0  0  0  0  0
   -3.4446    1.6657    3.8454 H   0  0  0  0  0  0  0  0  0  0  0  0
   -3.2368    1.2374    1.3661 H   0  0  0  0  0  0  0  0  0  0  0  0
   -1.6248    3.6099    2.4815 H   0  0  0  0  0  0  0  0  0  0  0  0
   -2.2644    3.4949    0.8375 H   0  0  0  0  0  0  0  0  0  0  0  0
   -3.3741    3.5939    2.2175 H   0  0  0  0  0  0  0  0  0  0  0  0
   -0.9750    1.0274    0.1566 N   0  0  0  0  0  0  0  0  0  0  0  0
    0.2023    0.5266   -0.5070 C   0  0  2  0  0  0  0  0  0  0  0  0
   -0.2333   -0.6530   -1.3690 C   0  0  0  0  0  0  0  0  0  0  0  0
   -0.0415   -1.8237   -1.0473 O   0  0  0  0  0  0  0  0  0  0  0  0
    1.2851    0.0896    0.4862 C   0  0  0  0  0  0  0  0  0  0  0  0
    1.8674    1.2465    1.2611 C   0  0  0  0  0  0  0  0  0  0  0  0
    2.8542    2.0461    0.6845 C   0  0  0  0  0  0  0  0  0  0  0  0
    1.4192    1.5156    2.5543 C   0  0  0  0  0  0  0  0  0  0  0  0
    3.3927    3.1149    1.4009 C   0  0  0  0  0  0  0  0  0  0  0  0
    1.9577    2.5843    3.2708 C   0  0  0  0  0  0  0  0  0  0  0  0
    2.9444    3.3840    2.6941 C   0  0  0  0  0  0  0  0  0  0  0  0
    3.4709    4.4262    3.3936 O   0  0  0  0  0  0  0  0  0  0  0  0
   -1.7582    1.3241   -0.4207 H   0  0  0  0  0  0  0  0  0  0  0  0
    0.5612    1.3330   -1.1573 H   0  0  0  0  0  0  0  0  0  0  0  0
    2.0885   -0.4456   -0.0379 H   0  0  0  0  0  0  0  0  0  0  0  0
    0.8775   -0.6345    1.2040 H   0  0  0  0  0  0  0  0  0  0  0  0
    3.2093    1.8438   -0.3224 H   0  0  0  0  0  0  0  0  0  0  0  0
    0.6505    0.8978    3.0116 H   0  0  0  0  0  0  0  0  0  0  0  0
    4.1615    3.7341    0.9463 H   0  0  0  0  0  0  0  0  0  0  0  0
    1.6046    2.7886    4.2777 H   0  0  0  0  0  0  0  0  0  0  0  0
    3.0600    4.4842    4.2709 H   0  0  0  0  0  0  0  0  0  0  0  0
   -0.9041   -0.2413   -2.5123 N   0  0  0  0  0  0  0  0  0  0  0  0
   -1.4436   -1.1592   -3.4897 C   0  0  2  0  0  0  0  0  0  0  0  0
   -0.3480   -2.1505   -3.8590 C   0  0  0  0  0  0  0  0  0  0  0  0
    0.8490   -1.9139   -3.7091 O   0  0  0  0  0  0  0  0  0  0  0  0
   -1.9480   -0.4229   -4.7210 C   0  0  0  0  0  0  0  0  0  0  0  0
   -1.0217    0.7552   -2.6700 H   0  0  0  0  0  0  0  0  0  0  0  0
   -2.2687   -1.6905   -3.0029 H   0  0  0  0  0  0  0  0  0  0  0  0
   -1.1353    0.1155   -5.2221 H   0  0  0  0  0  0  0  0  0  0  0  0
   -2.3823   -1.1169   -5.4481 H   0  0  0  0  0  0  0  0  0  0  0  0
   -2.7148    0.3107   -4.4495 H   0  0  0  0  0  0  0  0  0  0  0  0
   -0.8621   -3.3133   -4.4155 N   0  0  0  0  0  0  0  0  0  0  0  0
   -0.0235   -4.4021   -4.8596 C   0  0  0  0  0  0  0  0  0  0  0  0
   -1.8686   -3.4318   -4.4842 H   0  0  0  0  0  0  0  0  0  0  0  0
    0.2073   -4.2758   -5.9276 H   0  0  0  0  0  0  0  0  0  0  0  0
    0.9115   -4.4044   -4.2802 H   0  0  0  0  0  0  0  0  0  0  0  0
   -0.5507   -5.3558   -4.7088 H   0  0  0  0  0  0  0  0  0  0  0  0
 23 25  2  0  0  0  0
 22 23  1  0  0  0  0
 24 26  1  0  0  0  0
 22 24  2  0  0  0  0
 25 27  1  0  0  0  0
 26 27  2  0  0  0  0
 21 22  1  0  0  0  0
 27 28  1  0  0  0  0
  1  3  1  0  0  0  0
  1  7  1  0  0  0  0
  1  2  2  0  0  0  0
 39 40  1  0  0  0  0
 40 48  1  0  0  0  0
 40 41  2  0  0  0  0
  8  9  1  0  0  0  0
  9 17  1  0  0  0  0
  9 10  2  0  0  0  0
 18 19  1  0  0  0  0
 19 38  1  0  0  0  0
 19 20  2  0  0  0  0
 39 42  1  0  0  0  0
  8 11  1  0  0  0  0
 48 49  1  0  0  0  0
 18 21  1  0  0  0  0
 38 39  1  0  0  0  0
  7  8  1  0  0  0  0
 17 18  1  0  0  0  0
 23 33  1  0  0  0  0
 24 34  1  0  0  0  0
 25 35  1  0  0  0  0
 26 36  1  0  0  0  0
  3  4  1  0  0  0  0
  3  5  1  0  0  0  0
  3  6  1  0  0  0  0
 42 45  1  0  0  0  0
 42 46  1  0  0  0  0
 42 47  1  0  0  0  0
 11 14  1  0  0  0  0
 11 15  1  0  0  0  0
 11 16  1  0  0  0  0
 49 51  1  0  0  0  0
 49 52  1  0  0  0  0
 49 53  1  0  0  0  0
 21 31  1  0  0  0  0
 21 32  1  0  0  0  0
 39 44  1  0  0  0  0
  8 13  1  0  0  0  0
 18 30  1  0  0  0  0
 48 50  1  0  0  0  0
  7 12  1  0  0  0  0
 38 43  1  0  0  0  0
 17 29  1  0  0  0  0
 28 37  1  0  0  0  0
M  END
$$$$

  -OEChem-05262214473D

 53 53  0     1  0  0  0  0  0999 V2000
   -1.9298    0.2574    3.9747 C   0  0  0  0  0  0  0  0  0  0  0  0
   -0.9825   -0.3573    3.4990 O   0  0  0  0  0  0  0  0  0  0  0  0
   -2.3617   -0.0250    5.3754 C   0  0  0  0  0  0  0  0  0  0  0  0
   -3.1214   -0.8213    5.4288 H   0  0  0  0  0  0  0  0  0  0  0  0
   -1.5305   -0.3726    6.0097 H   0  0  0  0  0  0  0  0  0  0  0  0
   -2.7997    0.8299    5.9150 H   0  0  0  0  0  0  0  0  0  0  0  0
   -2.6795    1.2298    3.3336 N   0  0  0  0  0  0  0  0  0  0  0  0
   -2.4327    1.6559    1.9812 C   0  0  2  0  0  0  0  0  0  0  0  0
   -1.0977    1.0705    1.5400 C   0  0  0  0  0  0  0  0  0  0  0  0
   -0.2256    0.7177    2.3313 O   0  0  0  0  0  0  0  0  0  0  0  0
   -2.4239    3.1726    1.8718 C   0  0  0  0  0  0  0  0  0  0  0  0
   -3.4446    1.6657    3.8454 H   0  0  0  0  0  0  0  0  0  0  0  0
   -3.2368    1.2374    1.3661 H   0  0  0  0  0  0  0  0  0  0  0  0
   -1.6248    3.6099    2.4815 H   0  0  0  0  0  0  0  0  0  0  0  0
   -2.2644    3.4949    0.8375 H   0  0  0  0  0  0  0  0  0  0  0  0
   -3.3741    3.5939    2.2175 H   0  0  0  0  0  0  0  0  0  0  0  0
   -0.9750    1.0274    0.1566 N   0  0  0  0  0  0  0  0  0  0  0  0
    0.2023    0.5266   -0.5070 C   0  0  2  0  0  0  0  0  0  0  0  0
   -0.2333   -0.6530   -1.3690 C   0  0  0  0  0  0  0  0  0  0  0  0
   -0.2903   -1.8057   -0.9462 O   0  0  0  0  0  0  0  0  0  0  0  0
    1.2851    0.0896    0.4862 C   0  0  0  0  0  0  0  0  0  0  0  0
    1.8674    1.2465    1.2611 C   0  0  0  0  0  0  0  0  0  0  0  0
    2.8542    2.0461    0.6845 C   0  0  0  0  0  0  0  0  0  0  0  0
    1.4192    1.5156    2.5543 C   0  0  0  0  0  0  0  0  0  0  0  0
    3.3927    3.1149    1.4009 C   0  0  0  0  0  0  0  0  0  0  0  0
    1.9577    2.5843    3.2708 C   0  0  0  0  0  0  0  0  0  0  0  0
    2.9444    3.3840    2.6941 C   0  0  0  0  0  0  0  0  0  0  0  0
    3.4709    4.4262    3.3936 O   0  0  0  0  0  0  0  0  0  0  0  0
   -1.7582    1.3241   -0.4207 H   0  0  0  0  0  0  0  0  0  0  0  0
    0.5612    1.3330   -1.1573 H   0  0  0  0  0  0  0  0  0  0  0  0
    2.0885   -0.4456   -0.0379 H   0  0  0  0  0  0  0  0  0  0  0  0
    0.8775   -0.6345    1.2040 H   0  0  0  0  0  0  0  0  0  0  0  0
    3.2093    1.8438   -0.3224 H   0  0  0  0  0  0  0  0  0  0  0  0
    0.6505    0.8978    3.0116 H   0  0  0  0  0  0  0  0  0  0  0  0
    4.1615    3.7341    0.9463 H   0  0  0  0  0  0  0  0  0  0  0  0
    1.6046    2.7886    4.2777 H   0  0  0  0  0  0  0  0  0  0  0  0
    3.0600    4.4842    4.2709 H   0  0  0  0  0  0  0  0  0  0  0  0
   -0.5971   -0.2555   -2.6481 N   0  0  0  0  0  0  0  0  0  0  0  0
   -1.0706   -1.1727   -3.6596 C   0  0  2  0  0  0  0  0  0  0  0  0
   -0.0899   -2.3354   -3.7364 C   0  0  0  0  0  0  0  0  0  0  0  0
    1.0768   -2.2549   -3.3577 O   0  0  0  0  0  0  0  0  0  0  0  0
   -1.2061   -0.4859   -5.0097 C   0  0  0  0  0  0  0  0  0  0  0  0
   -0.5270    0.7298   -2.8852 H   0  0  0  0  0  0  0  0  0  0  0  0
   -2.0465   -1.5390   -3.3226 H   0  0  0  0  0  0  0  0  0  0  0  0
   -0.2384   -0.1122   -5.3637 H   0  0  0  0  0  0  0  0  0  0  0  0
   -1.5921   -1.1747   -5.7683 H   0  0  0  0  0  0  0  0  0  0  0  0
   -1.8889    0.3682   -4.9456 H   0  0  0  0  0  0  0  0  0  0  0  0
   -0.6585   -3.4603   -4.3172 N   0  0  0  0  0  0  0  0  0  0  0  0
    0.0728   -4.6901   -4.5141 C   0  0  0  0  0  0  0  0  0  0  0  0
   -1.6383   -3.4436   -4.5844 H   0  0  0  0  0  0  0  0  0  0  0  0
    0.5239   -4.6925   -5.5174 H   0  0  0  0  0  0  0  0  0  0  0  0
    0.8654   -4.7707   -3.7557 H   0  0  0  0  0  0  0  0  0  0  0  0
   -0.6139   -5.5441   -4.4190 H   0  0  0  0  0  0  0  0  0  0  0  0
 23 25  2  0  0  0  0
 22 23  1  0  0  0  0
 24 26  1  0  0  0  0
 22 24  2  0  0  0  0
 25 27  1  0  0  0  0
 26 27  2  0  0  0  0
 21 22  1  0  0  0  0
 27 28  1  0  0  0  0
  1  3  1  0  0  0  0
  1  7  1  0  0  0  0
  1  2  2  0  0  0  0
 39 40  1  0  0  0  0
 40 48  1  0  0  0  0
 40 41  2  0  0  0  0
  8  9  1  0  0  0  0
  9 17  1  0  0  0  0
  9 10  2  0  0  0  0
 18 19  1  0  0  0  0
 19 38  1  0  0  0  0
 19 20  2  0  0  0  0
 39 42  1  0  0  0  0
  8 11  1  0  0  0  0
 48 49  1  0  0  0  0
 18 21  1  0  0  0  0
 38 39  1  0  0  0  0
  7  8  1  0  0  0  0
 17 18  1  0  0  0  0
 23 33  1  0  0  0  0
 24 34  1  0  0  0  0
 25 35  1  0  0  0  0
 26 36  1  0  0  0  0
  3  4  1  0  0  0  0
  3  5  1  0  0  0  0
  3  6  1  0  0  0  0
 42 45  1  0  0  0  0
 42 46  1  0  0  0  0
 42 47  1  0  0  0  0
 11 14  1  0  0  0  0
 11 15  1  0  0  0  0
 11 16  1  0  0  0  0
 49 51  1  0  0  0  0
 49 52  1  0  0  0  0
 49 53  1  0  0  0  0
 21 31  1  0  0  0  0
 21 32  1  0  0  0  0
 39 44  1  0  0  0  0
  8 13  1  0  0  0  0
 18 30  1  0  0  0  0
 48 50  1  0  0  0  0
  7 12  1  0  0  0  0
 38 43  1  0  0  0  0
 17 29  1  0  0  0  0
 28 37  1  0  0  0  0
M  END
$$$$

  -OEChem-05262214473D

 53 53  0     1  0  0  0  0  0999 V2000
   -1.9298    0.2574    3.9747 C   0  0  0  0  0  0  0  0  0  0  0  0
   -0.9825   -0.3573    3.4990 O   0  0  0  0  0  0  0  0  0  0  0  0
   -2.3617   -0.0250    5.3754 C   0  0  0  0  0  0  0  0  0  0  0  0
   -3.1214   -0.8213    5.4288 H   0  0  0  0  0  0  0  0  0  0  0  0
   -1.5305   -0.3726    6.0097 H   0  0  0  0  0  0  0  0  0  0  0  0
   -2.7997    0.8299    5.9150 H   0  0  0  0  0  0  0  0  0  0  0  0
   -2.6795    1.2298    3.3336 N   0  0  0  0  0  0  0  0  0  0  0  0
   -2.4327    1.6559    1.9812 C   0  0  2  0  0  0  0  0  0  0  0  0
   -1.0977    1.0705    1.5400 C   0  0  0  0  0  0  0  0  0  0  0  0
   -0.2256    0.7177    2.3313 O   0  0  0  0  0  0  0  0  0  0  0  0
   -2.4239    3.1726    1.8718 C   0  0  0  0  0  0  0  0  0  0  0  0
   -3.4446    1.6657    3.8454 H   0  0  0  0  0  0  0  0  0  0  0  0
   -3.2368    1.2374    1.3661 H   0  0  0  0  0  0  0  0  0  0  0  0
   -1.6248    3.6099    2.4815 H   0  0  0  0  0  0  0  0  0  0  0  0
   -2.2644    3.4949    0.8375 H   0  0  0  0  0  0  0  0  0  0  0  0
   -3.3741    3.5939    2.2175 H   0  0  0  0  0  0  0  0  0  0  0  0
   -0.9750    1.0274    0.1566 N   0  0  0  0  0  0  0  0  0  0  0  0
    0.2023    0.5266   -0.5070 C   0  0  2  0  0  0  0  0  0  0  0  0
   -0.2333   -0.6530   -1.3690 C   0  0  0  0  0  0  0  0  0  0  0  0
   -0.5482   -1.7445   -0.8996 O   0  0  0  0  0  0  0  0  0  0  0  0
    1.2851    0.0896    0.4862 C   0  0  0  0  0  0  0  0  0  0  0  0
    1.8674    1.2465    1.2611 C   0  0  0  0  0  0  0  0  0  0  0  0
    2.8542    2.0461    0.6845 C   0  0  0  0  0  0  0  0  0  0  0  0
    1.4192    1.5156    2.5543 C   0  0  0  0  0  0  0  0  0  0  0  0
    3.3927    3.1149    1.4009 C   0  0  0  0  0  0  0  0  0  0  0  0
    1.9577    2.5843    3.2708 C   0  0  0  0  0  0  0  0  0  0  0  0
    2.9444    3.3840    2.6941 C   0  0  0  0  0  0  0  0  0  0  0  0
    3.4709    4.4262    3.3936 O   0  0  0  0  0  0  0  0  0  0  0  0
   -1.7582    1.3241   -0.4207 H   0  0  0  0  0  0  0  0  0  0  0  0
    0.5612    1.3330   -1.1573 H   0  0  0  0  0  0  0  0  0  0  0  0
    2.0885   -0.4456   -0.0379 H   0  0  0  0  0  0  0  0  0  0  0  0
    0.8775   -0.6345    1.2040 H   0  0  0  0  0  0  0  0  0  0  0  0
    3.2093    1.8438   -0.3224 H   0  0  0  0  0  0  0  0  0  0  0  0
    0.6505    0.8978    3.0116 H   0  0  0  0  0  0  0  0  0  0  0  0
    4.1615    3.7341    0.9463 H   0  0  0  0  0  0  0  0  0  0  0  0
    1.6046    2.7886    4.2777 H   0  0  0  0  0  0  0  0  0  0  0  0
    3.0600    4.4842    4.2709 H   0  0  0  0  0  0  0  0  0  0  0  0
   -0.2754   -0.3240   -2.7168 N   0  0  0  0  0  0  0  0  0  0  0  0
   -0.6783   -1.2529   -3.7481 C   0  0  2  0  0  0  0  0  0  0  0  0
    0.1078   -2.5426   -3.5527 C   0  0  0  0  0  0  0  0  0  0  0  0
    1.1767   -2.5915   -2.9475 O   0  0  0  0  0  0  0  0  0  0  0  0
   -0.4410   -0.6766   -5.1353 C   0  0  0  0  0  0  0  0  0  0  0  0
   -0.0098    0.6169   -2.9921 H   0  0  0  0  0  0  0  0  0  0  0  0
   -1.7456   -1.4488   -3.5980 H   0  0  0  0  0  0  0  0  0  0  0  0
    0.6229   -0.4738   -5.3041 H   0  0  0  0  0  0  0  0  0  0  0  0
   -0.7730   -1.3699   -5.9151 H   0  0  0  0  0  0  0  0  0  0  0  0
   -0.9834    0.2663   -5.2636 H   0  0  0  0  0  0  0  0  0  0  0  0
   -0.5030   -3.6249   -4.1706 N   0  0  0  0  0  0  0  0  0  0  0  0
    0.0545   -4.9569   -4.1399 C   0  0  0  0  0  0  0  0  0  0  0  0
   -1.3976   -3.4961   -4.6342 H   0  0  0  0  0  0  0  0  0  0  0  0
    0.6865   -5.1110   -5.0269 H   0  0  0  0  0  0  0  0  0  0  0  0
    0.6622   -5.0790   -3.2311 H   0  0  0  0  0  0  0  0  0  0  0  0
   -0.7607   -5.6954   -4.1378 H   0  0  0  0  0  0  0  0  0  0  0  0
 23 25  2  0  0  0  0
 22 23  1  0  0  0  0
 24 26  1  0  0  0  0
 22 24  2  0  0  0  0
 25 27  1  0  0  0  0
 26 27  2  0  0  0  0
 21 22  1  0  0  0  0
 27 28  1  0  0  0  0
  1  3  1  0  0  0  0
  1  7  1  0  0  0  0
  1  2  2  0  0  0  0
 39 40  1  0  0  0  0
 40 48  1  0  0  0  0
 40 41  2  0  0  0  0
  8  9  1  0  0  0  0
  9 17  1  0  0  0  0
  9 10  2  0  0  0  0
 18 19  1  0  0  0  0
 19 38  1  0  0  0  0
 19 20  2  0  0  0  0
 39 42  1  0  0  0  0
  8 11  1  0  0  0  0
 48 49  1  0  0  0  0
 18 21  1  0  0  0  0
 38 39  1  0  0  0  0
  7  8  1  0  0  0  0
 17 18  1  0  0  0  0
 23 33  1  0  0  0  0
 24 34  1  0  0  0  0
 25 35  1  0  0  0  0
 26 36  1  0  0  0  0
  3  4  1  0  0  0  0
  3  5  1  0  0  0  0
  3  6  1  0  0  0  0
 42 45  1  0  0  0  0
 42 46  1  0  0  0  0
 42 47  1  0  0  0  0
 11 14  1  0  0  0  0
 11 15  1  0  0  0  0
 11 16  1  0  0  0  0
 49 51  1  0  0  0  0
 49 52  1  0  0  0  0
 49 53  1  0  0  0  0
 21 31  1  0  0  0  0
 21 32  1  0  0  0  0
 39 44  1  0  0  0  0
  8 13  1  0  0  0  0
 18 30  1  0  0  0  0
 48 50  1  0  0  0  0
  7 12  1  0  0  0  0
 38 43  1  0  0  0  0
 17 29  1  0  0  0  0
 28 37  1  0  0  0  0
M  END
$$$$

  -OEChem-05262214473D

 53 53  0     1  0  0  0  0  0999 V2000
   -1.9298    0.2574    3.9747 C   0  0  0  0  0  0  0  0  0  0  0  0
   -0.9825   -0.3573    3.4990 O   0  0  0  0  0  0  0  0  0  0  0  0
   -2.3617   -0.0250    5.3754 C   0  0  0  0  0  0  0  0  0  0  0  0
   -3.1214   -0.8213    5.4288 H   0  0  0  0  0  0  0  0  0  0  0  0
   -1.5305   -0.3726    6.0097 H   0  0  0  0  0  0  0  0  0  0  0  0
   -2.7997    0.8299    5.9150 H   0  0  0  0  0  0  0  0  0  0  0  0
   -2.6795    1.2298    3.3336 N   0  0  0  0  0  0  0  0  0  0  0  0
   -2.4327    1.6559    1.9812 C   0  0  2  0  0  0  0  0  0  0  0  0
   -1.0977    1.0705    1.5400 C   0  0  0  0  0  0  0  0  0  0  0  0
   -0.2256    0.7177    2.3313 O   0  0  0  0  0  0  0  0  0  0  0  0
   -2.4239    3.1726    1.8718 C   0  0  0  0  0  0  0  0  0  0  0  0
   -3.4446    1.6657    3.8454 H   0  0  0  0  0  0  0  0  0  0  0  0
   -3.2368    1.2374    1.3661 H   0  0  0  0  0  0  0  0  0  0  0  0
   -1.6248    3.6099    2.4815 H   0  0  0  0  0  0  0  0  0  0  0  0
   -2.2644    3.4949    0.8375 H   0  0  0  0  0  0  0  0  0  0  0  0
   -3.3741    3.5939    2.2175 H   0  0  0  0  0  0  0  0  0  0  0  0
   -0.9750    1.0274    0.1566 N   0  0  0  0  0  0  0  0  0  0  0  0
    0.2023    0.5266   -0.5070 C   0  0  2  0  0  0  0  0  0  0  0  0
   -0.2333   -0.6530   -1.3690 C   0  0  0  0  0  0  0  0  0  0  0  0
   -0.7977   -1.6442   -0.9109 O   0  0  0  0  0  0  0  0  0  0  0  0
    1.2851    0.0896    0.4862 C   0  0  0  0  0  0  0  0  0  0  0  0
    1.8674    1.2465    1.2611 C   0  0  0  0  0  0  0  0  0  0  0  0
    2.8542    2.0461    0.6845 C   0  0  0  0  0  0  0  0  0  0  0  0
    1.4192    1.5156    2.5543 C   0  0  0  0  0  0  0  0  0  0  0  0
    3.3927    3.1149    1.4009 C   0  0  0  0  0  0  0  0  0  0  0  0
    1.9577    2.5843    3.2708 C   0  0  0  0  0  0  0  0  0  0  0  0
    2.9444    3.3840    2.6941 C   0  0  0  0  0  0  0  0  0  0  0  0
    3.4709    4.4262    3.3936 O   0  0  0  0  0  0  0  0  0  0  0  0
   -1.7582    1.3241   -0.4207 H   0  0  0  0  0  0  0  0  0  0  0  0
    0.5612    1.3330   -1.1573 H   0  0  0  0  0  0  0  0  0  0  0  0
    2.0885   -0.4456   -0.0379 H   0  0  0  0  0  0  0  0  0  0  0  0
    0.8775   -0.6345    1.2040 H   0  0  0  0  0  0  0  0  0  0  0  0
    3.2093    1.8438   -0.3224 H   0  0  0  0  0  0  0  0  0  0  0  0
    0.6505    0.8978    3.0116 H   0  0  0  0  0  0  0  0  0  0  0  0
    4.1615    3.7341    0.9463 H   0  0  0  0  0  0  0  0  0  0  0  0
    1.6046    2.7886    4.2777 H   0  0  0  0  0  0  0  0  0  0  0  0
    3.0600    4.4842    4.2709 H   0  0  0  0  0  0  0  0  0  0  0  0
    0.0390   -0.4425   -2.7136 N   0  0  0  0  0  0  0  0  0  0  0  0
   -0.2934   -1.3944   -3.7491 C   0  0  2  0  0  0  0  0  0  0  0  0
    0.2316   -2.7582   -3.3203 C   0  0  0  0  0  0  0  0  0  0  0  0
    1.1416   -2.9010   -2.5063 O   0  0  0  0  0  0  0  0  0  0  0  0
    0.2954   -0.9821   -5.0893 C   0  0  0  0  0  0  0  0  0  0  0  0
    0.4947    0.4243   -2.9835 H   0  0  0  0  0  0  0  0  0  0  0  0
   -1.3866   -1.4260   -3.8106 H   0  0  0  0  0  0  0  0  0  0  0  0
    1.3901   -0.9448   -5.0473 H   0  0  0  0  0  0  0  0  0  0  0  0
    0.0189   -1.6891   -5.8785 H   0  0  0  0  0  0  0  0  0  0  0  0
   -0.0600    0.0118   -5.3820 H   0  0  0  0  0  0  0  0  0  0  0  0
   -0.4062   -3.7957   -3.9857 N   0  0  0  0  0  0  0  0  0  0  0  0
   -0.0771   -5.1842   -3.7623 C   0  0  0  0  0  0  0  0  0  0  0  0
   -1.1627   -3.5857   -4.6302 H   0  0  0  0  0  0  0  0  0  0  0  0
    0.6841   -5.5027   -4.4896 H   0  0  0  0  0  0  0  0  0  0  0  0
    0.3158   -5.3082   -2.7424 H   0  0  0  0  0  0  0  0  0  0  0  0
   -0.9808   -5.7993   -3.8844 H   0  0  0  0  0  0  0  0  0  0  0  0
 23 25  2  0  0  0  0
 22 23  1  0  0  0  0
 24 26  1  0  0  0  0
 22 24  2  0  0  0  0
 25 27  1  0  0  0  0
 26 27  2  0  0  0  0
 21 22  1  0  0  0  0
 27 28  1  0  0  0  0
  1  3  1  0  0  0  0
  1  7  1  0  0  0  0
  1  2  2  0  0  0  0
 39 40  1  0  0  0  0
 40 48  1  0  0  0  0
 40 41  2  0  0  0  0
  8  9  1  0  0  0  0
  9 17  1  0  0  0  0
  9 10  2  0  0  0  0
 18 19  1  0  0  0  0
 19 38  1  0  0  0  0
 19 20  2  0  0  0  0
 39 42  1  0  0  0  0
  8 11  1  0  0  0  0
 48 49  1  0  0  0  0
 18 21  1  0  0  0  0
 38 39  1  0  0  0  0
  7  8  1  0  0  0  0
 17 18  1  0  0  0  0
 23 33  1  0  0  0  0
 24 34  1  0  0  0  0
 25 35  1  0  0  0  0
 26 36  1  0  0  0  0
  3  4  1  0  0  0  0
  3  5  1  0  0  0  0
  3  6  1  0  0  0  0
 42 45  1  0  0  0  0
 42 46  1  0  0  0  0
 42 47  1  0  0  0  0
 11 14  1  0  0  0  0
 11 15  1  0  0  0  0
 11 16  1  0  0  0  0
 49 51  1  0  0  0  0
 49 52  1  0  0  0  0
 49 53  1  0  0  0  0
 21 31  1  0  0  0  0
 21 32  1  0  0  0  0
 39 44  1  0  0  0  0
  8 13  1  0  0  0  0
 18 30  1  0  0  0  0
 48 50  1  0  0  0  0
  7 12  1  0  0  0  0
 38 43  1  0  0  0  0
 17 29  1  0  0  0  0
 28 37  1  0  0  0  0
M  END
$$$$

  -OEChem-05262214473D

 53 53  0     1  0  0  0  0  0999 V2000
   -1.9298    0.2574    3.9747 C   0  0  0  0  0  0  0  0  0  0  0  0
   -0.9825   -0.3573    3.4990 O   0  0  0  0  0  0  0  0  0  0  0  0
   -2.3617   -0.0250    5.3754 C   0  0  0  0  0  0  0  0  0  0  0  0
   -3.1214   -0.8213    5.4288 H   0  0  0  0  0  0  0  0  0  0  0  0
   -1.5305   -0.3726    6.0097 H   0  0  0  0  0  0  0  0  0  0  0  0
   -2.7997    0.8299    5.9150 H   0  0  0  0  0  0  0  0  0  0  0  0
   -2.6795    1.2298    3.3336 N   0  0  0  0  0  0  0  0  0  0  0  0
   -2.4327    1.6559    1.9812 C   0  0  2  0  0  0  0  0  0  0  0  0
   -1.0977    1.0705    1.5400 C   0  0  0  0  0  0  0  0  0  0  0  0
   -0.2256    0.7177    2.3313 O   0  0  0  0  0  0  0  0  0  0  0  0
   -2.4239    3.1726    1.8718 C   0  0  0  0  0  0  0  0  0  0  0  0
   -3.4446    1.6657    3.8454 H   0  0  0  0  0  0  0  0  0  0  0  0
   -3.2368    1.2374    1.3661 H   0  0  0  0  0  0  0  0  0  0  0  0
   -1.6248    3.6099    2.4815 H   0  0  0  0  0  0  0  0  0  0  0  0
   -2.2644    3.4949    0.8375 H   0  0  0  0  0  0  0  0  0  0  0  0
   -3.3741    3.5939    2.2175 H   0  0  0  0  0  0  0  0  0  0  0  0
   -0.9750    1.0274    0.1566 N   0  0  0  0  0  0  0  0  0  0  0  0
    0.2023    0.5266   -0.5070 C   0  0  2  0  0  0  0  0  0  0  0  0
   -0.2333   -0.6530   -1.3690 C   0  0  0  0  0  0  0  0  0  0  0  0
   -1.0218   -1.5116   -0.9791 O   0  0  0  0  0  0  0  0  0  0  0  0
    1.2851    0.0896    0.4862 C   0  0  0  0  0  0  0  0  0  0  0  0
    1.8674    1.2465    1.2611 C   0  0  0  0  0  0  0  0  0  0  0  0
    2.8542    2.0461    0.6845 C   0  0  0  0  0  0  0  0  0  0  0  0
    1.4192    1.5156    2.5543 C   0  0  0  0  0  0  0  0  0  0  0  0
    3.3927    3.1149    1.4009 C   0  0  0  0  0  0  0  0  0  0  0  0
    1.9577    2.5843    3.2708 C   0  0  0  0  0  0  0  0  0  0  0  0
    2.9444    3.3840    2.6941 C   0  0  0  0  0  0  0  0  0  0  0  0
    3.4709    4.4262    3.3936 O   0  0  0  0  0  0  0  0  0  0  0  0
   -1.7582    1.3241   -0.4207 H   0  0  0  0  0  0  0  0  0  0  0  0
    0.5612    1.3330   -1.1573 H   0  0  0  0  0  0  0  0  0  0  0  0
    2.0885   -0.4456   -0.0379 H   0  0  0  0  0  0  0  0  0  0  0  0
    0.8775   -0.6345    1.2040 H   0  0  0  0  0  0  0  0  0  0  0  0
    3.2093    1.8438   -0.3224 H   0  0  0  0  0  0  0  0  0  0  0  0
    0.6505    0.8978    3.0116 H   0  0  0  0  0  0  0  0  0  0  0  0
    4.1615    3.7341    0.9463 H   0  0  0  0  0  0  0  0  0  0  0  0
    1.6046    2.7886    4.2777 H   0  0  0  0  0  0  0  0  0  0  0  0
    3.0600    4.4842    4.2709 H   0  0  0  0  0  0  0  0  0  0  0  0
    0.3247   -0.6026   -2.6389 N   0  0  0  0  0  0  0  0  0  0  0  0
    0.0580   -1.5874   -3.6625 C   0  0  2  0  0  0  0  0  0  0  0  0
    0.2732   -2.9673   -3.0551 C   0  0  0  0  0  0  0  0  0  0  0  0
    0.9742   -3.1622   -2.0643 O   0  0  0  0  0  0  0  0  0  0  0  0
    0.9527   -1.3816   -4.8749 C   0  0  0  0  0  0  0  0  0  0  0  0
    0.9521    0.1650   -2.8599 H   0  0  0  0  0  0  0  0  0  0  0  0
   -0.9940   -1.4723   -3.9456 H   0  0  0  0  0  0  0  0  0  0  0  0
    2.0107   -1.4930   -4.6107 H   0  0  0  0  0  0  0  0  0  0  0  0
    0.7298   -2.1106   -5.6609 H   0  0  0  0  0  0  0  0  0  0  0  0
    0.8184   -0.3779   -5.2926 H   0  0  0  0  0  0  0  0  0  0  0  0
   -0.3748   -3.9613   -3.7751 N   0  0  0  0  0  0  0  0  0  0  0  0
   -0.3131   -5.3565   -3.4072 C   0  0  0  0  0  0  0  0  0  0  0  0
   -0.9498   -3.7064   -4.5727 H   0  0  0  0  0  0  0  0  0  0  0  0
    0.5169   -5.8410   -3.9422 H   0  0  0  0  0  0  0  0  0  0  0  0
   -0.1502   -5.4428   -2.3227 H   0  0  0  0  0  0  0  0  0  0  0  0
   -1.2594   -5.8487   -3.6761 H   0  0  0  0  0  0  0  0  0  0  0  0
 23 25  2  0  0  0  0
 22 23  1  0  0  0  0
 24 26  1  0  0  0  0
 22 24  2  0  0  0  0
 25 27  1  0  0  0  0
 26 27  2  0  0  0  0
 21 22  1  0  0  0  0
 27 28  1  0  0  0  0
  1  3  1  0  0  0  0
  1  7  1  0  0  0  0
  1  2  2  0  0  0  0
 39 40  1  0  0  0  0
 40 48  1  0  0  0  0
 40 41  2  0  0  0  0
  8  9  1  0  0  0  0
  9 17  1  0  0  0  0
  9 10  2  0  0  0  0
 18 19  1  0  0  0  0
 19 38  1  0  0  0  0
 19 20  2  0  0  0  0
 39 42  1  0  0  0  0
  8 11  1  0  0  0  0
 48 49  1  0  0  0  0
 18 21  1  0  0  0  0
 38 39  1  0  0  0  0
  7  8  1  0  0  0  0
 17 18  1  0  0  0  0
 23 33  1  0  0  0  0
 24 34  1  0  0  0  0
 25 35  1  0  0  0  0
 26 36  1  0  0  0  0
  3  4  1  0  0  0  0
  3  5  1  0  0  0  0
  3  6  1  0  0  0  0
 42 45  1  0  0  0  0
 42 46  1  0  0  0  0
 42 47  1  0  0  0  0
 11 14  1  0  0  0  0
 11 15  1  0  0  0  0
 11 16  1  0  0  0  0
 49 51  1  0  0  0  0
 49 52  1  0  0  0  0
 49 53  1  0  0  0  0
 21 31  1  0  0  0  0
 21 32  1  0  0  0  0
 39 44  1  0  0  0  0
  8 13  1  0  0  0  0
 18 30  1  0  0  0  0
 48 50  1  0  0  0  0
  7 12  1  0  0  0  0
 38 43  1  0  0  0  0
 17 29  1  0  0  0  0
 28 37  1  0  0  0  0
M  END
$$$$

  -OEChem-05262214473D

 53 53  0     1  0  0  0  0  0999 V2000
   -1.9298    0.2574    3.9747 C   0  0  0  0  0  0  0  0  0  0  0  0
   -0.9825   -0.3573    3.4990 O   0  0  0  0  0  0  0  0  0  0  0  0
   -2.3617   -0.0250    5.3754 C   0  0  0  0  0  0  0  0  0  0  0  0
   -3.1214   -0.8213    5.4288 H   0  0  0  0  0  0  0  0  0  0  0  0
   -1.5305   -0.3726    6.0097 H   0  0  0  0  0  0  0  0  0  0  0  0
   -2.7997    0.8299    5.9150 H   0  0  0  0  0  0  0  0  0  0  0  0
   -2.6795    1.2298    3.3336 N   0  0  0  0  0  0  0  0  0  0  0  0
   -2.4327    1.6559    1.9812 C   0  0  2  0  0  0  0  0  0  0  0  0
   -1.0977    1.0705    1.5400 C   0  0  0  0  0  0  0  0  0  0  0  0
   -0.2256    0.7177    2.3313 O   0  0  0  0  0  0  0  0  0  0  0  0
   -2.4239    3.1726    1.8718 C   0  0  0  0  0  0  0  0  0  0  0  0
   -3.4446    1.6657    3.8454 H   0  0  0  0  0  0  0  0  0  0  0  0
   -3.2368    1.2374    1.3661 H   0  0  0  0  0  0  0  0  0  0  0  0
   -1.6248    3.6099    2.4815 H   0  0  0  0  0  0  0  0  0  0  0  0
   -2.2644    3.4949    0.8375 H   0  0  0  0  0  0  0  0  0  0  0  0
   -3.3741    3.5939    2.2175 H   0  0  0  0  0  0  0  0  0  0  0  0
   -0.9750    1.0274    0.1566 N   0  0  0  0  0  0  0  0  0  0  0  0
    0.2023    0.5266   -0.5070 C   0  0  2  0  0  0  0  0  0  0  0  0
   -0.2333   -0.6530   -1.3690 C   0  0  0  0  0  0  0  0  0  0  0  0
   -1.2052   -1.3557   -1.0997 O   0  0  0  0  0  0  0  0  0  0  0  0
    1.2851    0.0896    0.4862 C   0  0  0  0  0  0  0  0  0  0  0  0
    1.8674    1.2465    1.2611 C   0  0  0  0  0  0  0  0  0  0  0  0
    2.8542    2.0461    0.6845 C   0  0  0  0  0  0  0  0  0  0  0  0
    1.4192    1.5156    2.5543 C   0  0  0  0  0  0  0  0  0  0  0  0
    3.3927    3.1149    1.4009 C   0  0  0  0  0  0  0  0  0  0  0  0
    1.9577    2.5843    3.2708 C   0  0  0  0  0  0  0  0  0  0  0  0
    2.9444    3.3840    2.6941 C   0  0  0  0  0  0  0  0  0  0  0  0
    3.4709    4.4262    3.3936 O   0  0  0  0  0  0  0  0  0  0  0  0
   -1.7582    1.3241   -0.4207 H   0  0  0  0  0  0  0  0  0  0  0  0
    0.5612    1.3330   -1.1573 H   0  0  0  0  0  0  0  0  0  0  0  0
    2.0885   -0.4456   -0.0379 H   0  0  0  0  0  0  0  0  0  0  0  0
    0.8775   -0.6345    1.2040 H   0  0  0  0  0  0  0  0  0  0  0  0
    3.2093    1.8438   -0.3224 H   0  0  0  0  0  0  0  0  0  0  0  0
    0.6505    0.8978    3.0116 H   0  0  0  0  0  0  0  0  0  0  0  0
    4.1615    3.7341    0.9463 H   0  0  0  0  0  0  0  0  0  0  0  0
    1.6046    2.7886    4.2777 H   0  0  0  0  0  0  0  0  0  0  0  0
    3.0600    4.4842    4.2709 H   0  0  0  0  0  0  0  0  0  0  0  0
    0.5623   -0.7936   -2.4976 N   0  0  0  0  0  0  0  0  0  0  0  0
    0.3518   -1.8188   -3.4943 C   0  0  2  0  0  0  0  0  0  0  0  0
    0.2296   -3.1558   -2.7752 C   0  0  0  0  0  0  0  0  0  0  0  0
    0.6857   -3.3572   -1.6516 O   0  0  0  0  0  0  0  0  0  0  0  0
    1.4863   -1.8478   -4.5065 C   0  0  0  0  0  0  0  0  0  0  0  0
    1.3313   -0.1432   -2.6297 H   0  0  0  0  0  0  0  0  0  0  0  0
   -0.5945   -1.5845   -3.9940 H   0  0  0  0  0  0  0  0  0  0  0  0
    2.4426   -2.0810   -4.0243 H   0  0  0  0  0  0  0  0  0  0  0  0
    1.3112   -2.6057   -5.2772 H   0  0  0  0  0  0  0  0  0  0  0  0
    1.5919   -0.8763   -5.0014 H   0  0  0  0  0  0  0  0  0  0  0  0
   -0.4108   -4.1102   -3.5531 N   0  0  0  0  0  0  0  0  0  0  0  0
   -0.6375   -5.4622   -3.0986 C   0  0  0  0  0  0  0  0  0  0  0  0
   -0.7733   -3.8498   -4.4656 H   0  0  0  0  0  0  0  0  0  0  0  0
    0.1963   -6.1029   -3.4218 H   0  0  0  0  0  0  0  0  0  0  0  0
   -0.7041   -5.4736   -2.0007 H   0  0  0  0  0  0  0  0  0  0  0  0
   -1.5775   -5.8402   -3.5270 H   0  0  0  0  0  0  0  0  0  0  0  0
 23 25  2  0  0  0  0
 22 23  1  0  0  0  0
 24 26  1  0  0  0  0
 22 24  2  0  0  0  0
 25 27  1  0  0  0  0
 26 27  2  0  0  0  0
 21 22  1  0  0  0  0
 27 28  1  0  0  0  0
  1  3  1  0  0  0  0
  1  7  1  0  0  0  0
  1  2  2  0  0  0  0
 39 40  1  0  0  0  0
 40 48  1  0  0  0  0
 40 41  2  0  0  0  0
  8  9  1  0  0  0  0
  9 17  1  0  0  0  0
  9 10  2  0  0  0  0
 18 19  1  0  0  0  0
 19 38  1  0  0  0  0
 19 20  2  0  0  0  0
 39 42  1  0  0  0  0
  8 11  1  0  0  0  0
 48 49  1  0  0  0  0
 18 21  1  0  0  0  0
 38 39  1  0  0  0  0
  7  8  1  0  0  0  0
 17 18  1  0  0  0  0
 23 33  1  0  0  0  0
 24 34  1  0  0  0  0
 25 35  1  0  0  0  0
 26 36  1  0  0  0  0
  3  4  1  0  0  0  0
  3  5  1  0  0  0  0
  3  6  1  0  0  0  0
 42 45  1  0  0  0  0
 42 46  1  0  0  0  0
 42 47  1  0  0  0  0
 11 14  1  0  0  0  0
 11 15  1  0  0  0  0
 11 16  1  0  0  0  0
 49 51  1  0  0  0  0
 49 52  1  0  0  0  0
 49 53  1  0  0  0  0
 21 31  1  0  0  0  0
 21 32  1  0  0  0  0
 39 44  1  0  0  0  0
  8 13  1  0  0  0  0
 18 30  1  0  0  0  0
 48 50  1  0  0  0  0
  7 12  1  0  0  0  0
 38 43  1  0  0  0  0
 17 29  1  0  0  0  0
 28 37  1  0  0  0  0
M  END
$$$$

  -OEChem-05262214473D

 53 53  0     1  0  0  0  0  0999 V2000
   -1.9298    0.2574    3.9747 C   0  0  0  0  0  0  0  0  0  0  0  0
   -0.9825   -0.3573    3.4990 O   0  0  0  0  0  0  0  0  0  0  0  0
   -2.3617   -0.0250    5.3754 C   0  0  0  0  0  0  0  0  0  0  0  0
   -3.1214   -0.8213    5.4288 H   0  0  0  0  0  0  0  0  0  0  0  0
   -1.5305   -0.3726    6.0097 H   0  0  0  0  0  0  0  0  0  0  0  0
   -2.7997    0.8299    5.9150 H   0  0  0  0  0  0  0  0  0  0  0  0
   -2.6795    1.2298    3.3336 N   0  0  0  0  0  0  0  0  0  0  0  0
   -2.4327    1.6559    1.9812 C   0  0  2  0  0  0  0  0  0  0  0  0
   -1.0977    1.0705    1.5400 C   0  0  0  0  0  0  0  0  0  0  0  0
   -0.2256    0.7177    2.3313 O   0  0  0  0  0  0  0  0  0  0  0  0
   -2.4239    3.1726    1.8718 C   0  0  0  0  0  0  0  0  0  0  0  0
   -3.4446    1.6657    3.8454 H   0  0  0  0  0  0  0  0  0  0  0  0
   -3.2368    1.2374    1.3661 H   0  0  0  0  0  0  0  0  0  0  0  0
   -1.6248    3.6099    2.4815 H   0  0  0  0  0  0  0  0  0  0  0  0
   -2.2644    3.4949    0.8375 H   0  0  0  0  0  0  0  0  0  0  0  0
   -3.3741    3.5939    2.2175 H   0  0  0  0  0  0  0  0  0  0  0  0
   -0.9750    1.0274    0.1566 N   0  0  0  0  0  0  0  0  0  0  0  0
    0.2023    0.5266   -0.5070 C   0  0  2  0  0  0  0  0  0  0  0  0
   -0.2333   -0.6530   -1.3690 C   0  0  0  0  0  0  0  0  0  0  0  0
   -1.3354   -1.1873   -1.2644 O   0  0  0  0  0  0  0  0  0  0  0  0
    1.2851    0.0896    0.4862 C   0  0  0  0  0  0  0  0  0  0  0  0
    1.8674    1.2465    1.2611 C   0  0  0  0  0  0  0  0  0  0  0  0
    2.8542    2.0461    0.6845 C   0  0  0  0  0  0  0  0  0  0  0  0
    1.4192    1.5156    2.5543 C   0  0  0  0  0  0  0  0  0  0  0  0
    3.3927    3.1149    1.4009 C   0  0  0  0  0  0  0  0  0  0  0  0
    1.9577    2.5843    3.2708 C   0  0  0  0  0  0  0  0  0  0  0  0
    2.9444    3.3840    2.6941 C   0  0  0  0  0  0  0  0  0  0  0  0
    3.4709    4.4262    3.3936 O   0  0  0  0  0  0  0  0  0  0  0  0
   -1.7582    1.3241   -0.4207 H   0  0  0  0  0  0  0  0  0  0  0  0
    0.5612    1.3330   -1.1573 H   0  0  0  0  0  0  0  0  0  0  0  0
    2.0885   -0.4456   -0.0379 H   0  0  0  0  0  0  0  0  0  0  0  0
    0.8775   -0.6345    1.2040 H   0  0  0  0  0  0  0  0  0  0  0  0
    3.2093    1.8438   -0.3224 H   0  0  0  0  0  0  0  0  0  0  0  0
    0.6505    0.8978    3.0116 H   0  0  0  0  0  0  0  0  0  0  0  0
    4.1615    3.7341    0.9463 H   0  0  0  0  0  0  0  0  0  0  0  0
    1.6046    2.7886    4.2777 H   0  0  0  0  0  0  0  0  0  0  0  0
    3.0600    4.4842    4.2709 H   0  0  0  0  0  0  0  0  0  0  0  0
    0.7356   -1.0024   -2.2994 N   0  0  0  0  0  0  0  0  0  0  0  0
    0.5680   -2.0729   -3.2558 C   0  0  2  0  0  0  0  0  0  0  0  0
    0.1038   -3.3107   -2.4996 C   0  0  0  0  0  0  0  0  0  0  0  0
    0.2959   -3.4729   -1.2963 O   0  0  0  0  0  0  0  0  0  0  0  0
    1.8597   -2.3489   -4.0094 C   0  0  0  0  0  0  0  0  0  0  0  0
    1.6063   -0.4794   -2.3086 H   0  0  0  0  0  0  0  0  0  0  0  0
   -0.2153   -1.7549   -3.9525 H   0  0  0  0  0  0  0  0  0  0  0  0
    2.6562   -2.6689   -3.3278 H   0  0  0  0  0  0  0  0  0  0  0  0
    1.7235   -3.1407   -4.7535 H   0  0  0  0  0  0  0  0  0  0  0  0
    2.2079   -1.4494   -4.5285 H   0  0  0  0  0  0  0  0  0  0  0  0
   -0.5119   -4.2323   -3.3349 N   0  0  0  0  0  0  0  0  0  0  0  0
   -1.0280   -5.4941   -2.8577 C   0  0  0  0  0  0  0  0  0  0  0  0
   -0.6452   -4.0063   -4.3161 H   0  0  0  0  0  0  0  0  0  0  0  0
   -0.2560   -6.2704   -2.9641 H   0  0  0  0  0  0  0  0  0  0  0  0
   -1.3081   -5.3984   -1.7983 H   0  0  0  0  0  0  0  0  0  0  0  0
   -1.9134   -5.7744   -3.4473 H   0  0  0  0  0  0  0  0  0  0  0  0
 23 25  2  0  0  0  0
 22 23  1  0  0  0  0
 24 26  1  0  0  0  0
 22 24  2  0  0  0  0
 25 27  1  0  0  0  0
 26 27  2  0  0  0  0
 21 22  1  0  0  0  0
 27 28  1  0  0  0  0
  1  3  1  0  0  0  0
  1  7  1  0  0  0  0
  1  2  2  0  0  0  0
 39 40  1  0  0  0  0
 40 48  1  0  0  0  0
 40 41  2  0  0  0  0
  8  9  1  0  0  0  0
  9 17  1  0  0  0  0
  9 10  2  0  0  0  0
 18 19  1  0  0  0  0
 19 38  1  0  0  0  0
 19 20  2  0  0  0  0
 39 42  1  0  0  0  0
  8 11  1  0  0  0  0
 48 49  1  0  0  0  0
 18 21  1  0  0  0  0
 38 39  1  0  0  0  0
  7  8  1  0  0  0  0
 17 18  1  0  0  0  0
 23 33  1  0  0  0  0
 24 34  1  0  0  0  0
 25 35  1  0  0  0  0
 26 36  1  0  0  0  0
  3  4  1  0  0  0  0
  3  5  1  0  0  0  0
  3  6  1  0  0  0  0
 42 45  1  0  0  0  0
 42 46  1  0  0  0  0
 42 47  1  0  0  0  0
 11 14  1  0  0  0  0
 11 15  1  0  0  0  0
 11 16  1  0  0  0  0
 49 51  1  0  0  0  0
 49 52  1  0  0  0  0
 49 53  1  0  0  0  0
 21 31  1  0  0  0  0
 21 32  1  0  0  0  0
 39 44  1  0  0  0  0
  8 13  1  0  0  0  0
 18 30  1  0  0  0  0
 48 50  1  0  0  0  0
  7 12  1  0  0  0  0
 38 43  1  0  0  0  0
 17 29  1  0  0  0  0
 28 37  1  0  0  0  0
M  END
$$$$

  -OEChem-05262214473D

 53 53  0     1  0  0  0  0  0999 V2000
   -1.9298    0.2574    3.9747 C   0  0  0  0  0  0  0  0  0  0  0  0
   -0.9825   -0.3573    3.4990 O   0  0  0  0  0  0  0  0  0  0  0  0
   -2.3617   -0.0250    5.3754 C   0  0  0  0  0  0  0  0  0  0  0  0
   -3.1214   -0.8213    5.4288 H   0  0  0  0  0  0  0  0  0  0  0  0
   -1.5305   -0.3726    6.0097 H   0  0  0  0  0  0  0  0  0  0  0  0
   -2.7997    0.8299    5.9150 H   0  0  0  0  0  0  0  0  0  0  0  0
   -2.6795    1.2298    3.3336 N   0  0  0  0  0  0  0  0  0  0  0  0
   -2.4327    1.6559    1.9812 C   0  0  2  0  0  0  0  0  0  0  0  0
   -1.0977    1.0705    1.5400 C   0  0  0  0  0  0  0  0  0  0  0  0
   -0.2256    0.7177    2.3313 O   0  0  0  0  0  0  0  0  0  0  0  0
   -2.4239    3.1726    1.8718 C   0  0  0  0  0  0  0  0  0  0  0  0
   -3.4446    1.6657    3.8454 H   0  0  0  0  0  0  0  0  0  0  0  0
   -3.2368    1.2374    1.3661 H   0  0  0  0  0  0  0  0  0  0  0  0
   -1.6248    3.6099    2.4815 H   0  0  0  0  0  0  0  0  0  0  0  0
   -2.2644    3.4949    0.8375 H   0  0  0  0  0  0  0  0  0  0  0  0
   -3.3741    3.5939    2.2175 H   0  0  0  0  0  0  0  0  0  0  0  0
   -0.9750    1.0274    0.1566 N   0  0  0  0  0  0  0  0  0  0  0  0
    0.2023    0.5266   -0.5070 C   0  0  2  0  0  0  0  0  0  0  0  0
   -0.2690   -0.3840   -1.6353 C   0  0  0  0  0  0  0  0  0  0  0  0
   -1.4562   -0.5678   -1.8951 O   0  0  0  0  0  0  0  0  0  0  0  0
    1.1229   -0.2414    0.4483 C   0  0  0  0  0  0  0  0  0  0  0  0
    1.7457    0.6462    1.4982 C   0  0  0  0  0  0  0  0  0  0  0  0
    2.8681    1.4135    1.1865 C   0  0  0  0  0  0  0  0  0  0  0  0
    1.1991    0.6986    2.7804 C   0  0  0  0  0  0  0  0  0  0  0  0
    3.4439    2.2333    2.1570 C   0  0  0  0  0  0  0  0  0  0  0  0
    1.7749    1.5184    3.7510 C   0  0  0  0  0  0  0  0  0  0  0  0
    2.8973    2.2857    3.4393 C   0  0  0  0  0  0  0  0  0  0  0  0
    3.4601    3.0848    4.3866 O   0  0  0  0  0  0  0  0  0  0  0  0
   -1.7582    1.3241   -0.4207 H   0  0  0  0  0  0  0  0  0  0  0  0
    0.7122    1.3966   -0.9372 H   0  0  0  0  0  0  0  0  0  0  0  0
    1.9125   -0.7561   -0.1159 H   0  0  0  0  0  0  0  0  0  0  0  0
    0.5669   -1.0391    0.9584 H   0  0  0  0  0  0  0  0  0  0  0  0
    3.3005    1.3788    0.1901 H   0  0  0  0  0  0  0  0  0  0  0  0
    0.3246    0.1043    3.0322 H   0  0  0  0  0  0  0  0  0  0  0  0
    4.3185    2.8285    1.9082 H   0  0  0  0  0  0  0  0  0  0  0  0
    1.3448    1.5546    4.7479 H   0  0  0  0  0  0  0  0  0  0  0  0
    2.9701    3.0133    5.2212 H   0  0  0  0  0  0  0  0  0  0  0  0
    0.7942   -0.9244   -2.3453 N   0  0  0  0  0  0  0  0  0  0  0  0
    0.6256   -1.8039   -3.4797 C   0  0  2  0  0  0  0  0  0  0  0  0
   -0.3457   -2.9066   -3.0795 C   0  0  0  0  0  0  0  0  0  0  0  0
   -0.5527   -3.2267   -1.9109 O   0  0  0  0  0  0  0  0  0  0  0  0
    1.9557   -2.3880   -3.9295 C   0  0  0  0  0  0  0  0  0  0  0  0
    1.7383   -0.6900   -2.0528 H   0  0  0  0  0  0  0  0  0  0  0  0
    0.1859   -1.2030   -4.2831 H   0  0  0  0  0  0  0  0  0  0  0  0
    2.4114   -2.9934   -3.1374 H   0  0  0  0  0  0  0  0  0  0  0  0
    1.8302   -3.0315   -4.8065 H   0  0  0  0  0  0  0  0  0  0  0  0
    2.6630   -1.5927   -4.1884 H   0  0  0  0  0  0  0  0  0  0  0  0
   -0.9218   -3.5203   -4.1830 N   0  0  0  0  0  0  0  0  0  0  0  0
   -1.8683   -4.6050   -4.0661 C   0  0  0  0  0  0  0  0  0  0  0  0
   -0.7066   -3.1774   -5.1146 H   0  0  0  0  0  0  0  0  0  0  0  0
   -1.3335   -5.5653   -4.1093 H   0  0  0  0  0  0  0  0  0  0  0  0
   -2.4010   -4.5249   -3.1071 H   0  0  0  0  0  0  0  0  0  0  0  0
   -2.5918   -4.5508   -4.8930 H   0  0  0  0  0  0  0  0  0  0  0  0
 23 25  2  0  0  0  0
 22 23  1  0  0  0  0
 24 26  1  0  0  0  0
 22 24  2  0  0  0  0
 25 27  1  0  0  0  0
 26 27  2  0  0  0  0
 21 22  1  0  0  0  0
 27 28  1  0  0  0  0
  1  3  1  0  0  0  0
  1  7  1  0  0  0  0
  1  2  2  0  0  0  0
 39 40  1  0  0  0  0
 40 48  1  0  0  0  0
 40 41  2  0  0  0  0
  8  9  1  0  0  0  0
  9 17  1  0  0  0  0
  9 10  2  0  0  0  0
 18 19  1  0  0  0  0
 19 38  1  0  0  0  0
 19 20  2  0  0  0  0
 39 42  1  0  0  0  0
  8 11  1  0  0  0  0
 48 49  1  0  0  0  0
 18 21  1  0  0  0  0
 38 39  1  0  0  0  0
  7  8  1  0  0  0  0
 17 18  1  0  0  0  0
 23 33  1  0  0  0  0
 24 34  1  0  0  0  0
 25 35  1  0  0  0  0
 26 36  1  0  0  0  0
  3  4  1  0  0  0  0
  3  5  1  0  0  0  0
  3  6  1  0  0  0  0
 42 45  1  0  0  0  0
 42 46  1  0  0  0  0
 42 47  1  0  0  0  0
 11 14  1  0  0  0  0
 11 15  1  0  0  0  0
 11 16  1  0  0  0  0
 49 51  1  0  0  0  0
 49 52  1  0  0  0  0
 49 53  1  0  0  0  0
 21 31  1  0  0  0  0
 21 32  1  0  0  0  0
 39 44  1  0  0  0  0
  8 13  1  0  0  0  0
 18 30  1  0  0  0  0
 48 50  1  0  0  0  0
  7 12  1  0  0  0  0
 38 43  1  0  0  0  0
 17 29  1  0  0  0  0
 28 37  1  0  0  0  0
M  END
$$$$

  -OEChem-05262214473D

 53 53  0     1  0  0  0  0  0999 V2000
   -1.9298    0.2574    3.9747 C   0  0  0  0  0  0  0  0  0  0  0  0
   -0.9825   -0.3573    3.4990 O   0  0  0  0  0  0  0  0  0  0  0  0
   -2.3617   -0.0250    5.3754 C   0  0  0  0  0  0  0  0  0  0  0  0
   -3.1214   -0.8213    5.4288 H   0  0  0  0  0  0  0  0  0  0  0  0
   -1.5305   -0.3726    6.0097 H   0  0  0  0  0  0  0  0  0  0  0  0
   -2.7997    0.8299    5.9150 H   0  0  0  0  0  0  0  0  0  0  0  0
   -2.6795    1.2298    3.3336 N   0  0  0  0  0  0  0  0  0  0  0  0
   -2.4327    1.6559    1.9812 C   0  0  2  0  0  0  0  0  0  0  0  0
   -1.0977    1.0705    1.5400 C   0  0  0  0  0  0  0  0  0  0  0  0
   -0.2256    0.7177    2.3313 O   0  0  0  0  0  0  0  0  0  0  0  0
   -2.4239    3.1726    1.8718 C   0  0  0  0  0  0  0  0  0  0  0  0
   -3.4446    1.6657    3.8454 H   0  0  0  0  0  0  0  0  0  0  0  0
   -3.2368    1.2374    1.3661 H   0  0  0  0  0  0  0  0  0  0  0  0
   -1.6248    3.6099    2.4815 H   0  0  0  0  0  0  0  0  0  0  0  0
   -2.2644    3.4949    0.8375 H   0  0  0  0  0  0  0  0  0  0  0  0
   -3.3741    3.5939    2.2175 H   0  0  0  0  0  0  0  0  0  0  0  0
   -0.9750    1.0274    0.1566 N   0  0  0  0  0  0  0  0  0  0  0  0
    0.2023    0.5266   -0.5070 C   0  0  2  0  0  0  0  0  0  0  0  0
   -0.2690   -0.3840   -1.6353 C   0  0  0  0  0  0  0  0  0  0  0  0
   -1.4179   -0.3686   -2.0720 O   0  0  0  0  0  0  0  0  0  0  0  0
    1.1229   -0.2414    0.4483 C   0  0  0  0  0  0  0  0  0  0  0  0
    1.7457    0.6462    1.4982 C   0  0  0  0  0  0  0  0  0  0  0  0
    2.8681    1.4135    1.1865 C   0  0  0  0  0  0  0  0  0  0  0  0
    1.1991    0.6986    2.7804 C   0  0  0  0  0  0  0  0  0  0  0  0
    3.4439    2.2333    2.1570 C   0  0  0  0  0  0  0  0  0  0  0  0
    1.7749    1.5184    3.7510 C   0  0  0  0  0  0  0  0  0  0  0  0
    2.8973    2.2857    3.4393 C   0  0  0  0  0  0  0  0  0  0  0  0
    3.4601    3.0848    4.3866 O   0  0  0  0  0  0  0  0  0  0  0  0
   -1.7582    1.3241   -0.4207 H   0  0  0  0  0  0  0  0  0  0  0  0
    0.7122    1.3966   -0.9372 H   0  0  0  0  0  0  0  0  0  0  0  0
    1.9125   -0.7561   -0.1159 H   0  0  0  0  0  0  0  0  0  0  0  0
    0.5669   -1.0391    0.9584 H   0  0  0  0  0  0  0  0  0  0  0  0
    3.3005    1.3788    0.1901 H   0  0  0  0  0  0  0  0  0  0  0  0
    0.3246    0.1043    3.0322 H   0  0  0  0  0  0  0  0  0  0  0  0
    4.3185    2.8285    1.9082 H   0  0  0  0  0  0  0  0  0  0  0  0
    1.3448    1.5546    4.7479 H   0  0  0  0  0  0  0  0  0  0  0  0
    2.9701    3.0133    5.2212 H   0  0  0  0  0  0  0  0  0  0  0  0
    0.7587   -1.1770   -2.1266 N   0  0  0  0  0  0  0  0  0  0  0  0
    0.5879   -2.1138   -3.2138 C   0  0  2  0  0  0  0  0  0  0  0  0
   -0.6304   -2.9744   -2.9059 C   0  0  0  0  0  0  0  0  0  0  0  0
   -1.0659   -3.1380   -1.7681 O   0  0  0  0  0  0  0  0  0  0  0  0
    1.8275   -2.9743   -3.4027 C   0  0  0  0  0  0  0  0  0  0  0  0
    1.6772   -1.0948   -1.7006 H   0  0  0  0  0  0  0  0  0  0  0  0
    0.3986   -1.5210   -4.1153 H   0  0  0  0  0  0  0  0  0  0  0  0
    2.0331   -3.5755   -2.5096 H   0  0  0  0  0  0  0  0  0  0  0  0
    1.7072   -3.6638   -4.2448 H   0  0  0  0  0  0  0  0  0  0  0  0
    2.7083   -2.3520   -3.5945 H   0  0  0  0  0  0  0  0  0  0  0  0
   -1.1482   -3.5729   -4.0461 N   0  0  0  0  0  0  0  0  0  0  0  0
   -2.2973   -4.4473   -4.0143 C   0  0  0  0  0  0  0  0  0  0  0  0
   -0.7350   -3.3658   -4.9506 H   0  0  0  0  0  0  0  0  0  0  0  0
   -1.9626   -5.4897   -3.9076 H   0  0  0  0  0  0  0  0  0  0  0  0
   -2.9385   -4.1791   -3.1617 H   0  0  0  0  0  0  0  0  0  0  0  0
   -2.8663   -4.3389   -4.9494 H   0  0  0  0  0  0  0  0  0  0  0  0
 23 25  2  0  0  0  0
 22 23  1  0  0  0  0
 24 26  1  0  0  0  0
 22 24  2  0  0  0  0
 25 27  1  0  0  0  0
 26 27  2  0  0  0  0
 21 22  1  0  0  0  0
 27 28  1  0  0  0  0
  1  3  1  0  0  0  0
  1  7  1  0  0  0  0
  1  2  2  0  0  0  0
 39 40  1  0  0  0  0
 40 48  1  0  0  0  0
 40 41  2  0  0  0  0
  8  9  1  0  0  0  0
  9 17  1  0  0  0  0
  9 10  2  0  0  0  0
 18 19  1  0  0  0  0
 19 38  1  0  0  0  0
 19 20  2  0  0  0  0
 39 42  1  0  0  0  0
  8 11  1  0  0  0  0
 48 49  1  0  0  0  0
 18 21  1  0  0  0  0
 38 39  1  0  0  0  0
  7  8  1  0  0  0  0
 17 18  1  0  0  0  0
 23 33  1  0  0  0  0
 24 34  1  0  0  0  0
 25 35  1  0  0  0  0
 26 36  1  0  0  0  0
  3  4  1  0  0  0  0
  3  5  1  0  0  0  0
  3  6  1  0  0  0  0
 42 45  1  0  0  0  0
 42 46  1  0  0  0  0
 42 47  1  0  0  0  0
 11 14  1  0  0  0  0
 11 15  1  0  0  0  0
 11 16  1  0  0  0  0
 49 51  1  0  0  0  0
 49 52  1  0  0  0  0
 49 53  1  0  0  0  0
 21 31  1  0  0  0  0
 21 32  1  0  0  0  0
 39 44  1  0  0  0  0
  8 13  1  0  0  0  0
 18 30  1  0  0  0  0
 48 50  1  0  0  0  0
  7 12  1  0  0  0  0
 38 43  1  0  0  0  0
 17 29  1  0  0  0  0
 28 37  1  0  0  0  0
M  END
$$$$

  -OEChem-05262214473D

 53 53  0     1  0  0  0  0  0999 V2000
   -1.9298    0.2574    3.9747 C   0  0  0  0  0  0  0  0  0  0  0  0
   -0.9825   -0.3573    3.4990 O   0  0  0  0  0  0  0  0  0  0  0  0
   -2.3617   -0.0250    5.3754 C   0  0  0  0  0  0  0  0  0  0  0  0
   -3.1214   -0.8213    5.4288 H   0  0  0  0  0  0  0  0  0  0  0  0
   -1.5305   -0.3726    6.0097 H   0  0  0  0  0  0  0  0  0  0  0  0
   -2.7997    0.8299    5.9150 H   0  0  0  0  0  0  0  0  0  0  0  0
   -2.6795    1.2298    3.3336 N   0  0  0  0  0  0  0  0  0  0  0  0
   -2.4327    1.6559    1.9812 C   0  0  2  0  0  0  0  0  0  0  0  0
   -1.0977    1.0705    1.5400 C   0  0  0  0  0  0  0  0  0  0  0  0
   -0.2256    0.7177    2.3313 O   0  0  0  0  0  0  0  0  0  0  0  0
   -2.4239    3.1726    1.8718 C   0  0  0  0  0  0  0  0  0  0  0  0
   -3.4446    1.6657    3.8454 H   0  0  0  0  0  0  0  0  0  0  0  0
   -3.2368    1.2374    1.3661 H   0  0  0  0  0  0  0  0  0  0  0  0
   -1.6248    3.6099    2.4815 H   0  0  0  0  0  0  0  0  0  0  0  0
   -2.2644    3.4949    0.8375 H   0  0  0  0  0  0  0  0  0  0  0  0
   -3.3741    3.5939    2.2175 H   0  0  0  0  0  0  0  0  0  0  0  0
   -0.9750    1.0274    0.1566 N   0  0  0  0  0  0  0  0  0  0  0  0
    0.2023    0.5266   -0.5070 C   0  0  2  0  0  0  0  0  0  0  0  0
   -0.2690   -0.3840   -1.6353 C   0  0  0  0  0  0  0  0  0  0  0  0
   -1.3153   -0.1976   -2.2528 O   0  0  0  0  0  0  0  0  0  0  0  0
    1.1229   -0.2414    0.4483 C   0  0  0  0  0  0  0  0  0  0  0  0
    1.7457    0.6462    1.4982 C   0  0  0  0  0  0  0  0  0  0  0  0
    2.8681    1.4135    1.1865 C   0  0  0  0  0  0  0  0  0  0  0  0
    1.1991    0.6986    2.7804 C   0  0  0  0  0  0  0  0  0  0  0  0
    3.4439    2.2333    2.1570 C   0  0  0  0  0  0  0  0  0  0  0  0
    1.7749    1.5184    3.7510 C   0  0  0  0  0  0  0  0  0  0  0  0
    2.8973    2.2857    3.4393 C   0  0  0  0  0  0  0  0  0  0  0  0
    3.4601    3.0848    4.3866 O   0  0  0  0  0  0  0  0  0  0  0  0
   -1.7582    1.3241   -0.4207 H   0  0  0  0  0  0  0  0  0  0  0  0
    0.7122    1.3966   -0.9372 H   0  0  0  0  0  0  0  0  0  0  0  0
    1.9125   -0.7561   -0.1159 H   0  0  0  0  0  0  0  0  0  0  0  0
    0.5669   -1.0391    0.9584 H   0  0  0  0  0  0  0  0  0  0  0  0
    3.3005    1.3788    0.1901 H   0  0  0  0  0  0  0  0  0  0  0  0
    0.3246    0.1043    3.0322 H   0  0  0  0  0  0  0  0  0  0  0  0
    4.3185    2.8285    1.9082 H   0  0  0  0  0  0  0  0  0  0  0  0
    1.3448    1.5546    4.7479 H   0  0  0  0  0  0  0  0  0  0  0  0
    2.9701    3.0133    5.2212 H   0  0  0  0  0  0  0  0  0  0  0  0
    0.6423   -1.3967   -1.9006 N   0  0  0  0  0  0  0  0  0  0  0  0
    0.4509   -2.3847   -2.9379 C   0  0  2  0  0  0  0  0  0  0  0  0
   -0.9452   -2.9715   -2.7768 C   0  0  0  0  0  0  0  0  0  0  0  0
   -1.5667   -2.9427   -1.7166 O   0  0  0  0  0  0  0  0  0  0  0  0
    1.5098   -3.4739   -2.8668 C   0  0  0  0  0  0  0  0  0  0  0  0
    1.4861   -1.4460   -1.3374 H   0  0  0  0  0  0  0  0  0  0  0  0
    0.5171   -1.8555   -3.8948 H   0  0  0  0  0  0  0  0  0  0  0  0
    1.4591   -4.0152   -1.9150 H   0  0  0  0  0  0  0  0  0  0  0  0
    1.3805   -4.2061   -3.6707 H   0  0  0  0  0  0  0  0  0  0  0  0
    2.5148   -3.0467   -2.9530 H   0  0  0  0  0  0  0  0  0  0  0  0
   -1.3981   -3.5693   -3.9446 N   0  0  0  0  0  0  0  0  0  0  0  0
   -2.6894   -4.2086   -4.0431 C   0  0  0  0  0  0  0  0  0  0  0  0
   -0.8239   -3.5293   -4.7815 H   0  0  0  0  0  0  0  0  0  0  0  0
   -2.5869   -5.2800   -3.8160 H   0  0  0  0  0  0  0  0  0  0  0  0
   -3.3829   -3.7465   -3.3252 H   0  0  0  0  0  0  0  0  0  0  0  0
   -3.0822   -4.0861   -5.0632 H   0  0  0  0  0  0  0  0  0  0  0  0
 23 25  2  0  0  0  0
 22 23  1  0  0  0  0
 24 26  1  0  0  0  0
 22 24  2  0  0  0  0
 25 27  1  0  0  0  0
 26 27  2  0  0  0  0
 21 22  1  0  0  0  0
 27 28  1  0  0  0  0
  1  3  1  0  0  0  0
  1  7  1  0  0  0  0
  1  2  2  0  0  0  0
 39 40  1  0  0  0  0
 40 48  1  0  0  0  0
 40 41  2  0  0  0  0
  8  9  1  0  0  0  0
  9 17  1  0  0  0  0
  9 10  2  0  0  0  0
 18 19  1  0  0  0  0
 19 38  1  0  0  0  0
 19 20  2  0  0  0  0
 39 42  1  0  0  0  0
  8 11  1  0  0  0  0
 48 49  1  0  0  0  0
 18 21  1  0  0  0  0
 38 39  1  0  0  0  0
  7  8  1  0  0  0  0
 17 18  1  0  0  0  0
 23 33  1  0  0  0  0
 24 34  1  0  0  0  0
 25 35  1  0  0  0  0
 26 36  1  0  0  0  0
  3  4  1  0  0  0  0
  3  5  1  0  0  0  0
  3  6  1  0  0  0  0
 42 45  1  0  0  0  0
 42 46  1  0  0  0  0
 42 47  1  0  0  0  0
 11 14  1  0  0  0  0
 11 15  1  0  0  0  0
 11 16  1  0  0  0  0
 49 51  1  0  0  0  0
 49 52  1  0  0  0  0
 49 53  1  0  0  0  0
 21 31  1  0  0  0  0
 21 32  1  0  0  0  0
 39 44  1  0  0  0  0
  8 13  1  0  0  0  0
 18 30  1  0  0  0  0
 48 50  1  0  0  0  0
  7 12  1  0  0  0  0
 38 43  1  0  0  0  0
 17 29  1  0  0  0  0
 28 37  1  0  0  0  0
M  END
$$$$

  -OEChem-05262214473D

 53 53  0     1  0  0  0  0  0999 V2000
   -1.9298    0.2574    3.9747 C   0  0  0  0  0  0  0  0  0  0  0  0
   -0.9825   -0.3573    3.4990 O   0  0  0  0  0  0  0  0  0  0  0  0
   -2.3617   -0.0250    5.3754 C   0  0  0  0  0  0  0  0  0  0  0  0
   -3.1214   -0.8213    5.4288 H   0  0  0  0  0  0  0  0  0  0  0  0
   -1.5305   -0.3726    6.0097 H   0  0  0  0  0  0  0  0  0  0  0  0
   -2.7997    0.8299    5.9150 H   0  0  0  0  0  0  0  0  0  0  0  0
   -2.6795    1.2298    3.3336 N   0  0  0  0  0  0  0  0  0  0  0  0
   -2.4327    1.6559    1.9812 C   0  0  2  0  0  0  0  0  0  0  0  0
   -1.0977    1.0705    1.5400 C   0  0  0  0  0  0  0  0  0  0  0  0
   -0.2256    0.7177    2.3313 O   0  0  0  0  0  0  0  0  0  0  0  0
   -2.4239    3.1726    1.8718 C   0  0  0  0  0  0  0  0  0  0  0  0
   -3.4446    1.6657    3.8454 H   0  0  0  0  0  0  0  0  0  0  0  0
   -3.2368    1.2374    1.3661 H   0  0  0  0  0  0  0  0  0  0  0  0
   -1.6248    3.6099    2.4815 H   0  0  0  0  0  0  0  0  0  0  0  0
   -2.2644    3.4949    0.8375 H   0  0  0  0  0  0  0  0  0  0  0  0
   -3.3741    3.5939    2.2175 H   0  0  0  0  0  0  0  0  0  0  0  0
   -0.9750    1.0274    0.1566 N   0  0  0  0  0  0  0  0  0  0  0  0
    0.2023    0.5266   -0.5070 C   0  0  2  0  0  0  0  0  0  0  0  0
   -0.2690   -0.3840   -1.6353 C   0  0  0  0  0  0  0  0  0  0  0  0
   -1.1555   -0.0665   -2.4253 O   0  0  0  0  0  0  0  0  0  0  0  0
    1.1229   -0.2414    0.4483 C   0  0  0  0  0  0  0  0  0  0  0  0
    1.7457    0.6462    1.4982 C   0  0  0  0  0  0  0  0  0  0  0  0
    2.8681    1.4135    1.1865 C   0  0  0  0  0  0  0  0  0  0  0  0
    1.1991    0.6986    2.7804 C   0  0  0  0  0  0  0  0  0  0  0  0
    3.4439    2.2333    2.1570 C   0  0  0  0  0  0  0  0  0  0  0  0
    1.7749    1.5184    3.7510 C   0  0  0  0  0  0  0  0  0  0  0  0
    2.8973    2.2857    3.4393 C   0  0  0  0  0  0  0  0  0  0  0  0
    3.4601    3.0848    4.3866 O   0  0  0  0  0  0  0  0  0  0  0  0
   -1.7582    1.3241   -0.4207 H   0  0  0  0  0  0  0  0  0  0  0  0
    0.7122    1.3966   -0.9372 H   0  0  0  0  0  0  0  0  0  0  0  0
    1.9125   -0.7561   -0.1159 H   0  0  0  0  0  0  0  0  0  0  0  0
    0.5669   -1.0391    0.9584 H   0  0  0  0  0  0  0  0  0  0  0  0
    3.3005    1.3788    0.1901 H   0  0  0  0  0  0  0  0  0  0  0  0
    0.3246    0.1043    3.0322 H   0  0  0  0  0  0  0  0  0  0  0  0
    4.3185    2.8285    1.9082 H   0  0  0  0  0  0  0  0  0  0  0  0
    1.3448    1.5546    4.7479 H   0  0  0  0  0  0  0  0  0  0  0  0
    2.9701    3.0133    5.2212 H   0  0  0  0  0  0  0  0  0  0  0  0
    0.4528   -1.5686   -1.6828 N   0  0  0  0  0  0  0  0  0  0  0  0
    0.2242   -2.5981   -2.6710 C   0  0  2  0  0  0  0  0  0  0  0  0
   -1.2687   -2.8980   -2.7010 C   0  0  0  0  0  0  0  0  0  0  0  0
   -2.0209   -2.6539   -1.7599 O   0  0  0  0  0  0  0  0  0  0  0  0
    1.0245   -3.8528   -2.3583 C   0  0  0  0  0  0  0  0  0  0  0  0
    1.1782   -1.7195   -0.9880 H   0  0  0  0  0  0  0  0  0  0  0  0
    0.5334   -2.1837   -3.6368 H   0  0  0  0  0  0  0  0  0  0  0  0
    0.7285   -4.2823   -1.3943 H   0  0  0  0  0  0  0  0  0  0  0  0
    0.8723   -4.6214   -3.1232 H   0  0  0  0  0  0  0  0  0  0  0  0
    2.0956   -3.6293   -2.3078 H   0  0  0  0  0  0  0  0  0  0  0  0
   -1.6544   -3.5098   -3.8855 N   0  0  0  0  0  0  0  0  0  0  0  0
   -3.0180   -3.9053   -4.1506 C   0  0  0  0  0  0  0  0  0  0  0  0
   -0.9672   -3.6567   -4.6189 H   0  0  0  0  0  0  0  0  0  0  0  0
   -3.1640   -4.9506   -3.8408 H   0  0  0  0  0  0  0  0  0  0  0  0
   -3.7041   -3.2566   -3.5864 H   0  0  0  0  0  0  0  0  0  0  0  0
   -3.2247   -3.8097   -5.2268 H   0  0  0  0  0  0  0  0  0  0  0  0
 23 25  2  0  0  0  0
 22 23  1  0  0  0  0
 24 26  1  0  0  0  0
 22 24  2  0  0  0  0
 25 27  1  0  0  0  0
 26 27  2  0  0  0  0
 21 22  1  0  0  0  0
 27 28  1  0  0  0  0
  1  3  1  0  0  0  0
  1  7  1  0  0  0  0
  1  2  2  0  0  0  0
 39 40  1  0  0  0  0
 40 48  1  0  0  0  0
 40 41  2  0  0  0  0
  8  9  1  0  0  0  0
  9 17  1  0  0  0  0
  9 10  2  0  0  0  0
 18 19  1  0  0  0  0
 19 38  1  0  0  0  0
 19 20  2  0  0  0  0
 39 42  1  0  0  0  0
  8 11  1  0  0  0  0
 48 49  1  0  0  0  0
 18 21  1  0  0  0  0
 38 39  1  0  0  0  0
  7  8  1  0  0  0  0
 17 18  1  0  0  0  0
 23 33  1  0  0  0  0
 24 34  1  0  0  0  0
 25 35  1  0  0  0  0
 26 36  1  0  0  0  0
  3  4  1  0  0  0  0
  3  5  1  0  0  0  0
  3  6  1  0  0  0  0
 42 45  1  0  0  0  0
 42 46  1  0  0  0  0
 42 47  1  0  0  0  0
 11 14  1  0  0  0  0
 11 15  1  0  0  0  0
 11 16  1  0  0  0  0
 49 51  1  0  0  0  0
 49 52  1  0  0  0  0
 49 53  1  0  0  0  0
 21 31  1  0  0  0  0
 21 32  1  0  0  0  0
 39 44  1  0  0  0  0
  8 13  1  0  0  0  0
 18 30  1  0  0  0  0
 48 50  1  0  0  0  0
  7 12  1  0  0  0  0
 38 43  1  0  0  0  0
 17 29  1  0  0  0  0
 28 37  1  0  0  0  0
M  END
$$$$

  -OEChem-05262214473D

 53 53  0     1  0  0  0  0  0999 V2000
   -1.9298    0.2574    3.9747 C   0  0  0  0  0  0  0  0  0  0  0  0
   -0.9825   -0.3573    3.4990 O   0  0  0  0  0  0  0  0  0  0  0  0
   -2.3617   -0.0250    5.3754 C   0  0  0  0  0  0  0  0  0  0  0  0
   -3.1214   -0.8213    5.4288 H   0  0  0  0  0  0  0  0  0  0  0  0
   -1.5305   -0.3726    6.0097 H   0  0  0  0  0  0  0  0  0  0  0  0
   -2.7997    0.8299    5.9150 H   0  0  0  0  0  0  0  0  0  0  0  0
   -2.6795    1.2298    3.3336 N   0  0  0  0  0  0  0  0  0  0  0  0
   -2.4327    1.6559    1.9812 C   0  0  2  0  0  0  0  0  0  0  0  0
   -1.0977    1.0705    1.5400 C   0  0  0  0  0  0  0  0  0  0  0  0
   -0.2256    0.7177    2.3313 O   0  0  0  0  0  0  0  0  0  0  0  0
   -2.4239    3.1726    1.8718 C   0  0  0  0  0  0  0  0  0  0  0  0
   -3.4446    1.6657    3.8454 H   0  0  0  0  0  0  0  0  0  0  0  0
   -3.2368    1.2374    1.3661 H   0  0  0  0  0  0  0  0  0  0  0  0
   -1.6248    3.6099    2.4815 H   0  0  0  0  0  0  0  0  0  0  0  0
   -2.2644    3.4949    0.8375 H   0  0  0  0  0  0  0  0  0  0  0  0
   -3.3741    3.5939    2.2175 H   0  0  0  0  0  0  0  0  0  0  0  0
   -0.9750    1.0274    0.1566 N   0  0  0  0  0  0  0  0  0  0  0  0
    0.2023    0.5266   -0.5070 C   0  0  2  0  0  0  0  0  0  0  0  0
   -0.2690   -0.3840   -1.6353 C   0  0  0  0  0  0  0  0  0  0  0  0
   -0.9495    0.0156   -2.5777 O   0  0  0  0  0  0  0  0  0  0  0  0
    1.1229   -0.2414    0.4483 C   0  0  0  0  0  0  0  0  0  0  0  0
    1.7457    0.6462    1.4982 C   0  0  0  0  0  0  0  0  0  0  0  0
    2.8681    1.4135    1.1865 C   0  0  0  0  0  0  0  0  0  0  0  0
    1.1991    0.6986    2.7804 C   0  0  0  0  0  0  0  0  0  0  0  0
    3.4439    2.2333    2.1570 C   0  0  0  0  0  0  0  0  0  0  0  0
    1.7749    1.5184    3.7510 C   0  0  0  0  0  0  0  0  0  0  0  0
    2.8973    2.2857    3.4393 C   0  0  0  0  0  0  0  0  0  0  0  0
    3.4601    3.0848    4.3866 O   0  0  0  0  0  0  0  0  0  0  0  0
   -1.7582    1.3241   -0.4207 H   0  0  0  0  0  0  0  0  0  0  0  0
    0.7122    1.3966   -0.9372 H   0  0  0  0  0  0  0  0  0  0  0  0
    1.9125   -0.7561   -0.1159 H   0  0  0  0  0  0  0  0  0  0  0  0
    0.5669   -1.0391    0.9584 H   0  0  0  0  0  0  0  0  0  0  0  0
    3.3005    1.3788    0.1901 H   0  0  0  0  0  0  0  0  0  0  0  0
    0.3246    0.1043    3.0322 H   0  0  0  0  0  0  0  0  0  0  0  0
    4.3185    2.8285    1.9082 H   0  0  0  0  0  0  0  0  0  0  0  0
    1.3448    1.5546    4.7479 H   0  0  0  0  0  0  0  0  0  0  0  0
    2.9701    3.0133    5.2212 H   0  0  0  0  0  0  0  0  0  0  0  0
    0.2032   -1.6808   -1.4879 N   0  0  0  0  0  0  0  0  0  0  0  0
   -0.0770   -2.7394   -2.4312 C   0  0  2  0  0  0  0  0  0  0  0  0
   -1.5788   -2.7590   -2.6836 C   0  0  0  0  0  0  0  0  0  0  0  0
   -2.3977   -2.2915   -1.8950 O   0  0  0  0  0  0  0  0  0  0  0  0
    0.4045   -4.0851   -1.9119 C   0  0  0  0  0  0  0  0  0  0  0  0
    0.7744   -1.8968   -0.6762 H   0  0  0  0  0  0  0  0  0  0  0  0
    0.4465   -2.4832   -3.3588 H   0  0  0  0  0  0  0  0  0  0  0  0
   -0.1088   -4.3587   -0.9828 H   0  0  0  0  0  0  0  0  0  0  0  0
    0.2173   -4.8814   -2.6398 H   0  0  0  0  0  0  0  0  0  0  0  0
    1.4794   -4.0602   -1.7027 H   0  0  0  0  0  0  0  0  0  0  0  0
   -1.8998   -3.3986   -3.8728 N   0  0  0  0  0  0  0  0  0  0  0  0
   -3.2607   -3.5580   -4.3296 C   0  0  0  0  0  0  0  0  0  0  0  0
   -1.1552   -3.7392   -4.4738 H   0  0  0  0  0  0  0  0  0  0  0  0
   -3.6544   -4.5239   -3.9804 H   0  0  0  0  0  0  0  0  0  0  0  0
   -3.8801   -2.7427   -3.9276 H   0  0  0  0  0  0  0  0  0  0  0  0
   -3.2841   -3.5285   -5.4289 H   0  0  0  0  0  0  0  0  0  0  0  0
 23 25  2  0  0  0  0
 22 23  1  0  0  0  0
 24 26  1  0  0  0  0
 22 24  2  0  0  0  0
 25 27  1  0  0  0  0
 26 27  2  0  0  0  0
 21 22  1  0  0  0  0
 27 28  1  0  0  0  0
  1  3  1  0  0  0  0
  1  7  1  0  0  0  0
  1  2  2  0  0  0  0
 39 40  1  0  0  0  0
 40 48  1  0  0  0  0
 40 41  2  0  0  0  0
  8  9  1  0  0  0  0
  9 17  1  0  0  0  0
  9 10  2  0  0  0  0
 18 19  1  0  0  0  0
 19 38  1  0  0  0  0
 19 20  2  0  0  0  0
 39 42  1  0  0  0  0
  8 11  1  0  0  0  0
 48 49  1  0  0  0  0
 18 21  1  0  0  0  0
 38 39  1  0  0  0  0
  7  8  1  0  0  0  0
 17 18  1  0  0  0  0
 23 33  1  0  0  0  0
 24 34  1  0  0  0  0
 25 35  1  0  0  0  0
 26 36  1  0  0  0  0
  3  4  1  0  0  0  0
  3  5  1  0  0  0  0
  3  6  1  0  0  0  0
 42 45  1  0  0  0  0
 42 46  1  0  0  0  0
 42 47  1  0  0  0  0
 11 14  1  0  0  0  0
 11 15  1  0  0  0  0
 11 16  1  0  0  0  0
 49 51  1  0  0  0  0
 49 52  1  0  0  0  0
 49 53  1  0  0  0  0
 21 31  1  0  0  0  0
 21 32  1  0  0  0  0
 39 44  1  0  0  0  0
  8 13  1  0  0  0  0
 18 30  1  0  0  0  0
 48 50  1  0  0  0  0
  7 12  1  0  0  0  0
 38 43  1  0  0  0  0
 17 29  1  0  0  0  0
 28 37  1  0  0  0  0
M  END
$$$$

  -OEChem-05262214473D

 53 53  0     1  0  0  0  0  0999 V2000
   -1.9298    0.2574    3.9747 C   0  0  0  0  0  0  0  0  0  0  0  0
   -0.9825   -0.3573    3.4990 O   0  0  0  0  0  0  0  0  0  0  0  0
   -2.3617   -0.0250    5.3754 C   0  0  0  0  0  0  0  0  0  0  0  0
   -3.1214   -0.8213    5.4288 H   0  0  0  0  0  0  0  0  0  0  0  0
   -1.5305   -0.3726    6.0097 H   0  0  0  0  0  0  0  0  0  0  0  0
   -2.7997    0.8299    5.9150 H   0  0  0  0  0  0  0  0  0  0  0  0
   -2.6795    1.2298    3.3336 N   0  0  0  0  0  0  0  0  0  0  0  0
   -2.4327    1.6559    1.9812 C   0  0  2  0  0  0  0  0  0  0  0  0
   -1.0977    1.0705    1.5400 C   0  0  0  0  0  0  0  0  0  0  0  0
   -0.2256    0.7177    2.3313 O   0  0  0  0  0  0  0  0  0  0  0  0
   -2.4239    3.1726    1.8718 C   0  0  0  0  0  0  0  0  0  0  0  0
   -3.4446    1.6657    3.8454 H   0  0  0  0  0  0  0  0  0  0  0  0
   -3.2368    1.2374    1.3661 H   0  0  0  0  0  0  0  0  0  0  0  0
   -1.6248    3.6099    2.4815 H   0  0  0  0  0  0  0  0  0  0  0  0
   -2.2644    3.4949    0.8375 H   0  0  0  0  0  0  0  0  0  0  0  0
   -3.3741    3.5939    2.2175 H   0  0  0  0  0  0  0  0  0  0  0  0
   -0.9750    1.0274    0.1566 N   0  0  0  0  0  0  0  0  0  0  0  0
    0.2023    0.5266   -0.5070 C   0  0  2  0  0  0  0  0  0  0  0  0
   -0.2690   -0.3840   -1.6353 C   0  0  0  0  0  0  0  0  0  0  0  0
   -0.7111    0.0433   -2.6996 O   0  0  0  0  0  0  0  0  0  0  0  0
    1.1229   -0.2414    0.4483 C   0  0  0  0  0  0  0  0  0  0  0  0
    1.7457    0.6462    1.4982 C   0  0  0  0  0  0  0  0  0  0  0  0
    2.8681    1.4135    1.1865 C   0  0  0  0  0  0  0  0  0  0  0  0
    1.1991    0.6986    2.7804 C   0  0  0  0  0  0  0  0  0  0  0  0
    3.4439    2.2333    2.1570 C   0  0  0  0  0  0  0  0  0  0  0  0
    1.7749    1.5184    3.7510 C   0  0  0  0  0  0  0  0  0  0  0  0
    2.8973    2.2857    3.4393 C   0  0  0  0  0  0  0  0  0  0  0  0
    3.4601    3.0848    4.3866 O   0  0  0  0  0  0  0  0  0  0  0  0
   -1.7582    1.3241   -0.4207 H   0  0  0  0  0  0  0  0  0  0  0  0
    0.7122    1.3966   -0.9372 H   0  0  0  0  0  0  0  0  0  0  0  0
    1.9125   -0.7561   -0.1159 H   0  0  0  0  0  0  0  0  0  0  0  0
    0.5669   -1.0391    0.9584 H   0  0  0  0  0  0  0  0  0  0  0  0
    3.3005    1.3788    0.1901 H   0  0  0  0  0  0  0  0  0  0  0  0
    0.3246    0.1043    3.0322 H   0  0  0  0  0  0  0  0  0  0  0  0
    4.3185    2.8285    1.9082 H   0  0  0  0  0  0  0  0  0  0  0  0
    1.3448    1.5546    4.7479 H   0  0  0  0  0  0  0  0  0  0  0  0
    2.9701    3.0133    5.2212 H   0  0  0  0  0  0  0  0  0  0  0  0
   -0.0896   -1.7259   -1.3293 N   0  0  0  0  0  0  0  0  0  0  0  0
   -0.4321   -2.7990   -2.2348 C   0  0  2  0  0  0  0  0  0  0  0  0
   -1.8544   -2.5640   -2.7259 C   0  0  0  0  0  0  0  0  0  0  0  0
   -2.6714   -1.8800   -2.1128 O   0  0  0  0  0  0  0  0  0  0  0  0
   -0.3078   -4.1551   -1.5579 C   0  0  0  0  0  0  0  0  0  0  0  0
    0.3021   -1.9658   -0.4233 H   0  0  0  0  0  0  0  0  0  0  0  0
    0.2621   -2.7335   -3.0797 H   0  0  0  0  0  0  0  0  0  0  0  0
   -0.9959   -4.2393   -0.7088 H   0  0  0  0  0  0  0  0  0  0  0  0
   -0.5400   -4.9684   -2.2533 H   0  0  0  0  0  0  0  0  0  0  0  0
    0.7082   -4.3099   -1.1790 H   0  0  0  0  0  0  0  0  0  0  0  0
   -2.1175   -3.2431   -3.9073 N   0  0  0  0  0  0  0  0  0  0  0  0
   -3.4009   -3.1903   -4.5677 C   0  0  0  0  0  0  0  0  0  0  0  0
   -1.3750   -3.7714   -4.3560 H   0  0  0  0  0  0  0  0  0  0  0  0
   -4.0249   -4.0289   -4.2251 H   0  0  0  0  0  0  0  0  0  0  0  0
   -3.8990   -2.2400   -4.3255 H   0  0  0  0  0  0  0  0  0  0  0  0
   -3.2564   -3.2616   -5.6559 H   0  0  0  0  0  0  0  0  0  0  0  0
 23 25  2  0  0  0  0
 22 23  1  0  0  0  0
 24 26  1  0  0  0  0
 22 24  2  0  0  0  0
 25 27  1  0  0  0  0
 26 27  2  0  0  0  0
 21 22  1  0  0  0  0
 27 28  1  0  0  0  0
  1  3  1  0  0  0  0
  1  7  1  0  0  0  0
  1  2  2  0  0  0  0
 39 40  1  0  0  0  0
 40 48  1  0  0  0  0
 40 41  2  0  0  0  0
  8  9  1  0  0  0  0
  9 17  1  0  0  0  0
  9 10  2  0  0  0  0
 18 19  1  0  0  0  0
 19 38  1  0  0  0  0
 19 20  2  0  0  0  0
 39 42  1  0  0  0  0
  8 11  1  0  0  0  0
 48 49  1  0  0  0  0
 18 21  1  0  0  0  0
 38 39  1  0  0  0  0
  7  8  1  0  0  0  0
 17 18  1  0  0  0  0
 23 33  1  0  0  0  0
 24 34  1  0  0  0  0
 25 35  1  0  0  0  0
 26 36  1  0  0  0  0
  3  4  1  0  0  0  0
  3  5  1  0  0  0  0
  3  6  1  0  0  0  0
 42 45  1  0  0  0  0
 42 46  1  0  0  0  0
 42 47  1  0  0  0  0
 11 14  1  0  0  0  0
 11 15  1  0  0  0  0
 11 16  1  0  0  0  0
 49 51  1  0  0  0  0
 49 52  1  0  0  0  0
 49 53  1  0  0  0  0
 21 31  1  0  0  0  0
 21 32  1  0  0  0  0
 39 44  1  0  0  0  0
  8 13  1  0  0  0  0
 18 30  1  0  0  0  0
 48 50  1  0  0  0  0
  7 12  1  0  0  0  0
 38 43  1  0  0  0  0
 17 29  1  0  0  0  0
 28 37  1  0  0  0  0
M  END
$$$$

  -OEChem-05262214473D

 53 53  0     1  0  0  0  0  0999 V2000
   -1.9298    0.2574    3.9747 C   0  0  0  0  0  0  0  0  0  0  0  0
   -0.9825   -0.3573    3.4990 O   0  0  0  0  0  0  0  0  0  0  0  0
   -2.3617   -0.0250    5.3754 C   0  0  0  0  0  0  0  0  0  0  0  0
   -3.1214   -0.8213    5.4288 H   0  0  0  0  0  0  0  0  0  0  0  0
   -1.5305   -0.3726    6.0097 H   0  0  0  0  0  0  0  0  0  0  0  0
   -2.7997    0.8299    5.9150 H   0  0  0  0  0  0  0  0  0  0  0  0
   -2.6795    1.2298    3.3336 N   0  0  0  0  0  0  0  0  0  0  0  0
   -2.4327    1.6559    1.9812 C   0  0  2  0  0  0  0  0  0  0  0  0
   -1.0977    1.0705    1.5400 C   0  0  0  0  0  0  0  0  0  0  0  0
   -0.2256    0.7177    2.3313 O   0  0  0  0  0  0  0  0  0  0  0  0
   -2.4239    3.1726    1.8718 C   0  0  0  0  0  0  0  0  0  0  0  0
   -3.4446    1.6657    3.8454 H   0  0  0  0  0  0  0  0  0  0  0  0
   -3.2368    1.2374    1.3661 H   0  0  0  0  0  0  0  0  0  0  0  0
   -1.6248    3.6099    2.4815 H   0  0  0  0  0  0  0  0  0  0  0  0
   -2.2644    3.4949    0.8375 H   0  0  0  0  0  0  0  0  0  0  0  0
   -3.3741    3.5939    2.2175 H   0  0  0  0  0  0  0  0  0  0  0  0
   -0.9750    1.0274    0.1566 N   0  0  0  0  0  0  0  0  0  0  0  0
    0.2023    0.5266   -0.5070 C   0  0  2  0  0  0  0  0  0  0  0  0
   -0.2690   -0.3840   -1.6353 C   0  0  0  0  0  0  0  0  0  0  0  0
   -0.4567    0.0147   -2.7828 O   0  0  0  0  0  0  0  0  0  0  0  0
    1.1229   -0.2414    0.4483 C   0  0  0  0  0  0  0  0  0  0  0  0
    1.7457    0.6462    1.4982 C   0  0  0  0  0  0  0  0  0  0  0  0
    2.8681    1.4135    1.1865 C   0  0  0  0  0  0  0  0  0  0  0  0
    1.1991    0.6986    2.7804 C   0  0  0  0  0  0  0  0  0  0  0  0
    3.4439    2.2333    2.1570 C   0  0  0  0  0  0  0  0  0  0  0  0
    1.7749    1.5184    3.7510 C   0  0  0  0  0  0  0  0  0  0  0  0
    2.8973    2.2857    3.4393 C   0  0  0  0  0  0  0  0  0  0  0  0
    3.4601    3.0848    4.3866 O   0  0  0  0  0  0  0  0  0  0  0  0
   -1.7582    1.3241   -0.4207 H   0  0  0  0  0  0  0  0  0  0  0  0
    0.7122    1.3966   -0.9372 H   0  0  0  0  0  0  0  0  0  0  0  0
    1.9125   -0.7561   -0.1159 H   0  0  0  0  0  0  0  0  0  0  0  0
    0.5669   -1.0391    0.9584 H   0  0  0  0  0  0  0  0  0  0  0  0
    3.3005    1.3788    0.1901 H   0  0  0  0  0  0  0  0  0  0  0  0
    0.3246    0.1043    3.0322 H   0  0  0  0  0  0  0  0  0  0  0  0
    4.3185    2.8285    1.9082 H   0  0  0  0  0  0  0  0  0  0  0  0
    1.3448    1.5546    4.7479 H   0  0  0  0  0  0  0  0  0  0  0  0
    2.9701    3.0133    5.2212 H   0  0  0  0  0  0  0  0  0  0  0  0
   -0.4055   -1.7006   -1.2177 N   0  0  0  0  0  0  0  0  0  0  0  0
   -0.8168   -2.7728   -2.0952 C   0  0  2  0  0  0  0  0  0  0  0  0
   -2.0768   -2.3262   -2.8250 C   0  0  0  0  0  0  0  0  0  0  0  0
   -2.8232   -1.4476   -2.3984 O   0  0  0  0  0  0  0  0  0  0  0  0
   -1.0641   -4.0578   -1.3205 C   0  0  0  0  0  0  0  0  0  0  0  0
   -0.2063   -1.9217   -0.2466 H   0  0  0  0  0  0  0  0  0  0  0  0
   -0.0070   -2.9177   -2.8186 H   0  0  0  0  0  0  0  0  0  0  0  0
   -1.8722   -3.9320   -0.5907 H   0  0  0  0  0  0  0  0  0  0  0  0
   -1.3479   -4.8765   -1.9900 H   0  0  0  0  0  0  0  0  0  0  0  0
   -0.1656   -4.3615   -0.7724 H   0  0  0  0  0  0  0  0  0  0  0  0
   -2.2927   -3.0540   -3.9868 N   0  0  0  0  0  0  0  0  0  0  0  0
   -3.4291   -2.8274   -4.8489 C   0  0  0  0  0  0  0  0  0  0  0  0
   -1.6117   -3.7509   -4.2737 H   0  0  0  0  0  0  0  0  0  0  0  0
   -4.2501   -3.4995   -4.5584 H   0  0  0  0  0  0  0  0  0  0  0  0
   -3.7594   -1.7826   -4.7529 H   0  0  0  0  0  0  0  0  0  0  0  0
   -3.1434   -3.0273   -5.8921 H   0  0  0  0  0  0  0  0  0  0  0  0
 23 25  2  0  0  0  0
 22 23  1  0  0  0  0
 24 26  1  0  0  0  0
 22 24  2  0  0  0  0
 25 27  1  0  0  0  0
 26 27  2  0  0  0  0
 21 22  1  0  0  0  0
 27 28  1  0  0  0  0
  1  3  1  0  0  0  0
  1  7  1  0  0  0  0
  1  2  2  0  0  0  0
 39 40  1  0  0  0  0
 40 48  1  0  0  0  0
 40 41  2  0  0  0  0
  8  9  1  0  0  0  0
  9 17  1  0  0  0  0
  9 10  2  0  0  0  0
 18 19  1  0  0  0  0
 19 38  1  0  0  0  0
 19 20  2  0  0  0  0
 39 42  1  0  0  0  0
  8 11  1  0  0  0  0
 48 49  1  0  0  0  0
 18 21  1  0  0  0  0
 38 39  1  0  0  0  0
  7  8  1  0  0  0  0
 17 18  1  0  0  0  0
 23 33  1  0  0  0  0
 24 34  1  0  0  0  0
 25 35  1  0  0  0  0
 26 36  1  0  0  0  0
  3  4  1  0  0  0  0
  3  5  1  0  0  0  0
  3  6  1  0  0  0  0
 42 45  1  0  0  0  0
 42 46  1  0  0  0  0
 42 47  1  0  0  0  0
 11 14  1  0  0  0  0
 11 15  1  0  0  0  0
 11 16  1  0  0  0  0
 49 51  1  0  0  0  0
 49 52  1  0  0  0  0
 49 53  1  0  0  0  0
 21 31  1  0  0  0  0
 21 32  1  0  0  0  0
 39 44  1  0  0  0  0
  8 13  1  0  0  0  0
 18 30  1  0  0  0  0
 48 50  1  0  0  0  0
  7 12  1  0  0  0  0
 38 43  1  0  0  0  0
 17 29  1  0  0  0  0
 28 37  1  0  0  0  0
M  END
$$$$

  -OEChem-05262214473D

 53 53  0     1  0  0  0  0  0999 V2000
   -1.9298    0.2574    3.9747 C   0  0  0  0  0  0  0  0  0  0  0  0
   -0.9825   -0.3573    3.4990 O   0  0  0  0  0  0  0  0  0  0  0  0
   -2.3617   -0.0250    5.3754 C   0  0  0  0  0  0  0  0  0  0  0  0
   -3.1214   -0.8213    5.4288 H   0  0  0  0  0  0  0  0  0  0  0  0
   -1.5305   -0.3726    6.0097 H   0  0  0  0  0  0  0  0  0  0  0  0
   -2.7997    0.8299    5.9150 H   0  0  0  0  0  0  0  0  0  0  0  0
   -2.6795    1.2298    3.3336 N   0  0  0  0  0  0  0  0  0  0  0  0
   -2.4327    1.6559    1.9812 C   0  0  2  0  0  0  0  0  0  0  0  0
   -1.0977    1.0705    1.5400 C   0  0  0  0  0  0  0  0  0  0  0  0
   -0.2256    0.7177    2.3313 O   0  0  0  0  0  0  0  0  0  0  0  0
   -2.4239    3.1726    1.8718 C   0  0  0  0  0  0  0  0  0  0  0  0
   -3.4446    1.6657    3.8454 H   0  0  0  0  0  0  0  0  0  0  0  0
   -3.2368    1.2374    1.3661 H   0  0  0  0  0  0  0  0  0  0  0  0
   -1.6248    3.6099    2.4815 H   0  0  0  0  0  0  0  0  0  0  0  0
   -2.2644    3.4949    0.8375 H   0  0  0  0  0  0  0  0  0  0  0  0
   -3.3741    3.5939    2.2175 H   0  0  0  0  0  0  0  0  0  0  0  0
   -0.9750    1.0274    0.1566 N   0  0  0  0  0  0  0  0  0  0  0  0
    0.2023    0.5266   -0.5070 C   0  0  2  0  0  0  0  0  0  0  0  0
   -0.2690   -0.3840   -1.6353 C   0  0  0  0  0  0  0  0  0  0  0  0
   -0.2036   -0.0684   -2.8215 O   0  0  0  0  0  0  0  0  0  0  0  0
    1.1229   -0.2414    0.4483 C   0  0  0  0  0  0  0  0  0  0  0  0
    1.7457    0.6462    1.4982 C   0  0  0  0  0  0  0  0  0  0  0  0
    2.8681    1.4135    1.1865 C   0  0  0  0  0  0  0  0  0  0  0  0
    1.1991    0.6986    2.7804 C   0  0  0  0  0  0  0  0  0  0  0  0
    3.4439    2.2333    2.1570 C   0  0  0  0  0  0  0  0  0  0  0  0
    1.7749    1.5184    3.7510 C   0  0  0  0  0  0  0  0  0  0  0  0
    2.8973    2.2857    3.4393 C   0  0  0  0  0  0  0  0  0  0  0  0
    3.4601    3.0848    4.3866 O   0  0  0  0  0  0  0  0  0  0  0  0
   -1.7582    1.3241   -0.4207 H   0  0  0  0  0  0  0  0  0  0  0  0
    0.7122    1.3966   -0.9372 H   0  0  0  0  0  0  0  0  0  0  0  0
    1.9125   -0.7561   -0.1159 H   0  0  0  0  0  0  0  0  0  0  0  0
    0.5669   -1.0391    0.9584 H   0  0  0  0  0  0  0  0  0  0  0  0
    3.3005    1.3788    0.1901 H   0  0  0  0  0  0  0  0  0  0  0  0
    0.3246    0.1043    3.0322 H   0  0  0  0  0  0  0  0  0  0  0  0
    4.3185    2.8285    1.9082 H   0  0  0  0  0  0  0  0  0  0  0  0
    1.3448    1.5546    4.7479 H   0  0  0  0  0  0  0  0  0  0  0  0
    2.9701    3.0133    5.2212 H   0  0  0  0  0  0  0  0  0  0  0  0
   -0.7231   -1.6068   -1.1608 N   0  0  0  0  0  0  0  0  0  0  0  0
   -1.2050   -2.6627   -2.0220 C   0  0  2  0  0  0  0  0  0  0  0  0
   -2.2306   -2.0618   -2.9741 C   0  0  0  0  0  0  0  0  0  0  0  0
   -2.8429   -1.0236   -2.7324 O   0  0  0  0  0  0  0  0  0  0  0  0
   -1.8126   -3.8001   -1.2158 C   0  0  0  0  0  0  0  0  0  0  0  0
   -0.7163   -1.7676   -0.1579 H   0  0  0  0  0  0  0  0  0  0  0  0
   -0.3427   -3.0232   -2.5933 H   0  0  0  0  0  0  0  0  0  0  0  0
   -2.6781   -3.4580   -0.6367 H   0  0  0  0  0  0  0  0  0  0  0  0
   -2.1513   -4.6119   -1.8680 H   0  0  0  0  0  0  0  0  0  0  0  0
   -1.0824   -4.2114   -0.5106 H   0  0  0  0  0  0  0  0  0  0  0  0
   -2.4133   -2.8441   -4.1058 N   0  0  0  0  0  0  0  0  0  0  0  0
   -3.3434   -2.4939   -5.1538 C   0  0  0  0  0  0  0  0  0  0  0  0
   -1.8491   -3.6792   -4.2324 H   0  0  0  0  0  0  0  0  0  0  0  0
   -4.3146   -2.9716   -4.9575 H   0  0  0  0  0  0  0  0  0  0  0  0
   -3.4709   -1.4017   -5.1808 H   0  0  0  0  0  0  0  0  0  0  0  0
   -2.9529   -2.8416   -6.1216 H   0  0  0  0  0  0  0  0  0  0  0  0
 23 25  2  0  0  0  0
 22 23  1  0  0  0  0
 24 26  1  0  0  0  0
 22 24  2  0  0  0  0
 25 27  1  0  0  0  0
 26 27  2  0  0  0  0
 21 22  1  0  0  0  0
 27 28  1  0  0  0  0
  1  3  1  0  0  0  0
  1  7  1  0  0  0  0
  1  2  2  0  0  0  0
 39 40  1  0  0  0  0
 40 48  1  0  0  0  0
 40 41  2  0  0  0  0
  8  9  1  0  0  0  0
  9 17  1  0  0  0  0
  9 10  2  0  0  0  0
 18 19  1  0  0  0  0
 19 38  1  0  0  0  0
 19 20  2  0  0  0  0
 39 42  1  0  0  0  0
  8 11  1  0  0  0  0
 48 49  1  0  0  0  0
 18 21  1  0  0  0  0
 38 39  1  0  0  0  0
  7  8  1  0  0  0  0
 17 18  1  0  0  0  0
 23 33  1  0  0  0  0
 24 34  1  0  0  0  0
 25 35  1  0  0  0  0
 26 36  1  0  0  0  0
  3  4  1  0  0  0  0
  3  5  1  0  0  0  0
  3  6  1  0  0  0  0
 42 45  1  0  0  0  0
 42 46  1  0  0  0  0
 42 47  1  0  0  0  0
 11 14  1  0  0  0  0
 11 15  1  0  0  0  0
 11 16  1  0  0  0  0
 49 51  1  0  0  0  0
 49 52  1  0  0  0  0
 49 53  1  0  0  0  0
 21 31  1  0  0  0  0
 21 32  1  0  0  0  0
 39 44  1  0  0  0  0
  8 13  1  0  0  0  0
 18 30  1  0  0  0  0
 48 50  1  0  0  0  0
  7 12  1  0  0  0  0
 38 43  1  0  0  0  0
 17 29  1  0  0  0  0
 28 37  1  0  0  0  0
M  END
$$$$

  -OEChem-05262214473D

 53 53  0     1  0  0  0  0  0999 V2000
   -1.9298    0.2574    3.9747 C   0  0  0  0  0  0  0  0  0  0  0  0
   -0.9825   -0.3573    3.4990 O   0  0  0  0  0  0  0  0  0  0  0  0
   -2.3617   -0.0250    5.3754 C   0  0  0  0  0  0  0  0  0  0  0  0
   -3.1214   -0.8213    5.4288 H   0  0  0  0  0  0  0  0  0  0  0  0
   -1.5305   -0.3726    6.0097 H   0  0  0  0  0  0  0  0  0  0  0  0
   -2.7997    0.8299    5.9150 H   0  0  0  0  0  0  0  0  0  0  0  0
   -2.6795    1.2298    3.3336 N   0  0  0  0  0  0  0  0  0  0  0  0
   -2.4327    1.6559    1.9812 C   0  0  2  0  0  0  0  0  0  0  0  0
   -1.0977    1.0705    1.5400 C   0  0  0  0  0  0  0  0  0  0  0  0
   -0.2256    0.7177    2.3313 O   0  0  0  0  0  0  0  0  0  0  0  0
   -2.4239    3.1726    1.8718 C   0  0  0  0  0  0  0  0  0  0  0  0
   -3.4446    1.6657    3.8454 H   0  0  0  0  0  0  0  0  0  0  0  0
   -3.2368    1.2374    1.3661 H   0  0  0  0  0  0  0  0  0  0  0  0
   -1.6248    3.6099    2.4815 H   0  0  0  0  0  0  0  0  0  0  0  0
   -2.2644    3.4949    0.8375 H   0  0  0  0  0  0  0  0  0  0  0  0
   -3.3741    3.5939    2.2175 H   0  0  0  0  0  0  0  0  0  0  0  0
   -0.9750    1.0274    0.1566 N   0  0  0  0  0  0  0  0  0  0  0  0
    0.2023    0.5266   -0.5070 C   0  0  2  0  0  0  0  0  0  0  0  0
   -0.2690   -0.3840   -1.6353 C   0  0  0  0  0  0  0  0  0  0  0  0
    0.0310   -0.2002   -2.8130 O   0  0  0  0  0  0  0  0  0  0  0  0
    1.1229   -0.2414    0.4483 C   0  0  0  0  0  0  0  0  0  0  0  0
    1.7457    0.6462    1.4982 C   0  0  0  0  0  0  0  0  0  0  0  0
    2.8681    1.4135    1.1865 C   0  0  0  0  0  0  0  0  0  0  0  0
    1.1991    0.6986    2.7804 C   0  0  0  0  0  0  0  0  0  0  0  0
    3.4439    2.2333    2.1570 C   0  0  0  0  0  0  0  0  0  0  0  0
    1.7749    1.5184    3.7510 C   0  0  0  0  0  0  0  0  0  0  0  0
    2.8973    2.2857    3.4393 C   0  0  0  0  0  0  0  0  0  0  0  0
    3.4601    3.0848    4.3866 O   0  0  0  0  0  0  0  0  0  0  0  0
   -1.7582    1.3241   -0.4207 H   0  0  0  0  0  0  0  0  0  0  0  0
    0.7122    1.3966   -0.9372 H   0  0  0  0  0  0  0  0  0  0  0  0
    1.9125   -0.7561   -0.1159 H   0  0  0  0  0  0  0  0  0  0  0  0
    0.5669   -1.0391    0.9584 H   0  0  0  0  0  0  0  0  0  0  0  0
    3.3005    1.3788    0.1901 H   0  0  0  0  0  0  0  0  0  0  0  0
    0.3246    0.1043    3.0322 H   0  0  0  0  0  0  0  0  0  0  0  0
    4.3185    2.8285    1.9082 H   0  0  0  0  0  0  0  0  0  0  0  0
    1.3448    1.5546    4.7479 H   0  0  0  0  0  0  0  0  0  0  0  0
    2.9701    3.0133    5.2212 H   0  0  0  0  0  0  0  0  0  0  0  0
   -1.0206   -1.4507   -1.1625 N   0  0  0  0  0  0  0  0  0  0  0  0
   -1.5702   -2.4761   -2.0200 C   0  0  2  0  0  0  0  0  0  0  0  0
   -2.3056   -1.7889   -3.1630 C   0  0  0  0  0  0  0  0  0  0  0  0
   -2.7290   -0.6371   -3.0919 O   0  0  0  0  0  0  0  0  0  0  0  0
   -2.5024   -3.3994   -1.2511 C   0  0  0  0  0  0  0  0  0  0  0  0
   -1.1931   -1.5140   -0.1635 H   0  0  0  0  0  0  0  0  0  0  0  0
   -0.7219   -3.0428   -2.4191 H   0  0  0  0  0  0  0  0  0  0  0  0
   -3.3585   -2.8494   -0.8437 H   0  0  0  0  0  0  0  0  0  0  0  0
   -2.8956   -4.1926   -1.8955 H   0  0  0  0  0  0  0  0  0  0  0  0
   -1.9796   -3.8699   -0.4114 H   0  0  0  0  0  0  0  0  0  0  0  0
   -2.4713   -2.6278   -4.2561 N   0  0  0  0  0  0  0  0  0  0  0  0
   -3.1496   -2.2126   -5.4618 C   0  0  0  0  0  0  0  0  0  0  0  0
   -2.0710   -3.5611   -4.2350 H   0  0  0  0  0  0  0  0  0  0  0  0
   -4.2142   -2.4812   -5.3952 H   0  0  0  0  0  0  0  0  0  0  0  0
   -3.0531   -1.1233   -5.5800 H   0  0  0  0  0  0  0  0  0  0  0  0
   -2.6978   -2.7170   -6.3287 H   0  0  0  0  0  0  0  0  0  0  0  0
 23 25  2  0  0  0  0
 22 23  1  0  0  0  0
 24 26  1  0  0  0  0
 22 24  2  0  0  0  0
 25 27  1  0  0  0  0
 26 27  2  0  0  0  0
 21 22  1  0  0  0  0
 27 28  1  0  0  0  0
  1  3  1  0  0  0  0
  1  7  1  0  0  0  0
  1  2  2  0  0  0  0
 39 40  1  0  0  0  0
 40 48  1  0  0  0  0
 40 41  2  0  0  0  0
  8  9  1  0  0  0  0
  9 17  1  0  0  0  0
  9 10  2  0  0  0  0
 18 19  1  0  0  0  0
 19 38  1  0  0  0  0
 19 20  2  0  0  0  0
 39 42  1  0  0  0  0
  8 11  1  0  0  0  0
 48 49  1  0  0  0  0
 18 21  1  0  0  0  0
 38 39  1  0  0  0  0
  7  8  1  0  0  0  0
 17 18  1  0  0  0  0
 23 33  1  0  0  0  0
 24 34  1  0  0  0  0
 25 35  1  0  0  0  0
 26 36  1  0  0  0  0
  3  4  1  0  0  0  0
  3  5  1  0  0  0  0
  3  6  1  0  0  0  0
 42 45  1  0  0  0  0
 42 46  1  0  0  0  0
 42 47  1  0  0  0  0
 11 14  1  0  0  0  0
 11 15  1  0  0  0  0
 11 16  1  0  0  0  0
 49 51  1  0  0  0  0
 49 52  1  0  0  0  0
 49 53  1  0  0  0  0
 21 31  1  0  0  0  0
 21 32  1  0  0  0  0
 39 44  1  0  0  0  0
  8 13  1  0  0  0  0
 18 30  1  0  0  0  0
 48 50  1  0  0  0  0
  7 12  1  0  0  0  0
 38 43  1  0  0  0  0
 17 29  1  0  0  0  0
 28 37  1  0  0  0  0
M  END
$$$$

  -OEChem-05262214473D

 53 53  0     1  0  0  0  0  0999 V2000
   -1.9298    0.2574    3.9747 C   0  0  0  0  0  0  0  0  0  0  0  0
   -0.9825   -0.3573    3.4990 O   0  0  0  0  0  0  0  0  0  0  0  0
   -2.3617   -0.0250    5.3754 C   0  0  0  0  0  0  0  0  0  0  0  0
   -3.1214   -0.8213    5.4288 H   0  0  0  0  0  0  0  0  0  0  0  0
   -1.5305   -0.3726    6.0097 H   0  0  0  0  0  0  0  0  0  0  0  0
   -2.7997    0.8299    5.9150 H   0  0  0  0  0  0  0  0  0  0  0  0
   -2.6795    1.2298    3.3336 N   0  0  0  0  0  0  0  0  0  0  0  0
   -2.4327    1.6559    1.9812 C   0  0  2  0  0  0  0  0  0  0  0  0
   -1.0977    1.0705    1.5400 C   0  0  0  0  0  0  0  0  0  0  0  0
   -0.2256    0.7177    2.3313 O   0  0  0  0  0  0  0  0  0  0  0  0
   -2.4239    3.1726    1.8718 C   0  0  0  0  0  0  0  0  0  0  0  0
   -3.4446    1.6657    3.8454 H   0  0  0  0  0  0  0  0  0  0  0  0
   -3.2368    1.2374    1.3661 H   0  0  0  0  0  0  0  0  0  0  0  0
   -1.6248    3.6099    2.4815 H   0  0  0  0  0  0  0  0  0  0  0  0
   -2.2644    3.4949    0.8375 H   0  0  0  0  0  0  0  0  0  0  0  0
   -3.3741    3.5939    2.2175 H   0  0  0  0  0  0  0  0  0  0  0  0
   -0.9750    1.0274    0.1566 N   0  0  0  0  0  0  0  0  0  0  0  0
    0.2023    0.5266   -0.5070 C   0  0  2  0  0  0  0  0  0  0  0  0
   -0.2690   -0.3840   -1.6353 C   0  0  0  0  0  0  0  0  0  0  0  0
    0.2310   -0.3717   -2.7581 O   0  0  0  0  0  0  0  0  0  0  0  0
    1.1229   -0.2414    0.4483 C   0  0  0  0  0  0  0  0  0  0  0  0
    1.7457    0.6462    1.4982 C   0  0  0  0  0  0  0  0  0  0  0  0
    2.8681    1.4135    1.1865 C   0  0  0  0  0  0  0  0  0  0  0  0
    1.1991    0.6986    2.7804 C   0  0  0  0  0  0  0  0  0  0  0  0
    3.4439    2.2333    2.1570 C   0  0  0  0  0  0  0  0  0  0  0  0
    1.7749    1.5184    3.7510 C   0  0  0  0  0  0  0  0  0  0  0  0
    2.8973    2.2857    3.4393 C   0  0  0  0  0  0  0  0  0  0  0  0
    3.4601    3.0848    4.3866 O   0  0  0  0  0  0  0  0  0  0  0  0
   -1.7582    1.3241   -0.4207 H   0  0  0  0  0  0  0  0  0  0  0  0
    0.7122    1.3966   -0.9372 H   0  0  0  0  0  0  0  0  0  0  0  0
    1.9125   -0.7561   -0.1159 H   0  0  0  0  0  0  0  0  0  0  0  0
    0.5669   -1.0391    0.9584 H   0  0  0  0  0  0  0  0  0  0  0  0
    3.3005    1.3788    0.1901 H   0  0  0  0  0  0  0  0  0  0  0  0
    0.3246    0.1043    3.0322 H   0  0  0  0  0  0  0  0  0  0  0  0
    4.3185    2.8285    1.9082 H   0  0  0  0  0  0  0  0  0  0  0  0
    1.3448    1.5546    4.7479 H   0  0  0  0  0  0  0  0  0  0  0  0
    2.9701    3.0133    5.2212 H   0  0  0  0  0  0  0  0  0  0  0  0
   -1.2779   -1.2432   -1.2225 N   0  0  0  0  0  0  0  0  0  0  0  0
   -1.8875   -2.2258   -2.0895 C   0  0  2  0  0  0  0  0  0  0  0  0
   -2.2965   -1.5261   -3.3789 C   0  0  0  0  0  0  0  0  0  0  0  0
   -2.4895   -0.3143   -3.4524 O   0  0  0  0  0  0  0  0  0  0  0  0
   -3.0865   -2.8830   -1.4239 C   0  0  0  0  0  0  0  0  0  0  0  0
   -1.6042   -1.1781   -0.2628 H   0  0  0  0  0  0  0  0  0  0  0  0
   -1.1189   -2.9751   -2.3079 H   0  0  0  0  0  0  0  0  0  0  0  0
   -3.8673   -2.1477   -1.1975 H   0  0  0  0  0  0  0  0  0  0  0  0
   -3.5299   -3.6473   -2.0707 H   0  0  0  0  0  0  0  0  0  0  0  0
   -2.7962   -3.3603   -0.4817 H   0  0  0  0  0  0  0  0  0  0  0  0
   -2.4626   -2.4198   -4.4277 N   0  0  0  0  0  0  0  0  0  0  0  0
   -2.8609   -2.0027   -5.7518 C   0  0  0  0  0  0  0  0  0  0  0  0
   -2.2624   -3.4048   -4.2812 H   0  0  0  0  0  0  0  0  0  0  0  0
   -3.9556   -2.0618   -5.8417 H   0  0  0  0  0  0  0  0  0  0  0  0
   -2.5345   -0.9663   -5.9233 H   0  0  0  0  0  0  0  0  0  0  0  0
   -2.3956   -2.6621   -6.4993 H   0  0  0  0  0  0  0  0  0  0  0  0
 23 25  2  0  0  0  0
 22 23  1  0  0  0  0
 24 26  1  0  0  0  0
 22 24  2  0  0  0  0
 25 27  1  0  0  0  0
 26 27  2  0  0  0  0
 21 22  1  0  0  0  0
 27 28  1  0  0  0  0
  1  3  1  0  0  0  0
  1  7  1  0  0  0  0
  1  2  2  0  0  0  0
 39 40  1  0  0  0  0
 40 48  1  0  0  0  0
 40 41  2  0  0  0  0
  8  9  1  0  0  0  0
  9 17  1  0  0  0  0
  9 10  2  0  0  0  0
 18 19  1  0  0  0  0
 19 38  1  0  0  0  0
 19 20  2  0  0  0  0
 39 42  1  0  0  0  0
  8 11  1  0  0  0  0
 48 49  1  0  0  0  0
 18 21  1  0  0  0  0
 38 39  1  0  0  0  0
  7  8  1  0  0  0  0
 17 18  1  0  0  0  0
 23 33  1  0  0  0  0
 24 34  1  0  0  0  0
 25 35  1  0  0  0  0
 26 36  1  0  0  0  0
  3  4  1  0  0  0  0
  3  5  1  0  0  0  0
  3  6  1  0  0  0  0
 42 45  1  0  0  0  0
 42 46  1  0  0  0  0
 42 47  1  0  0  0  0
 11 14  1  0  0  0  0
 11 15  1  0  0  0  0
 11 16  1  0  0  0  0
 49 51  1  0  0  0  0
 49 52  1  0  0  0  0
 49 53  1  0  0  0  0
 21 31  1  0  0  0  0
 21 32  1  0  0  0  0
 39 44  1  0  0  0  0
  8 13  1  0  0  0  0
 18 30  1  0  0  0  0
 48 50  1  0  0  0  0
  7 12  1  0  0  0  0
 38 43  1  0  0  0  0
 17 29  1  0  0  0  0
 28 37  1  0  0  0  0
M  END
$$$$

  -OEChem-05262214473D

 53 53  0     1  0  0  0  0  0999 V2000
   -1.9298    0.2574    3.9747 C   0  0  0  0  0  0  0  0  0  0  0  0
   -0.9825   -0.3573    3.4990 O   0  0  0  0  0  0  0  0  0  0  0  0
   -2.3617   -0.0250    5.3754 C   0  0  0  0  0  0  0  0  0  0  0  0
   -3.1214   -0.8213    5.4288 H   0  0  0  0  0  0  0  0  0  0  0  0
   -1.5305   -0.3726    6.0097 H   0  0  0  0  0  0  0  0  0  0  0  0
   -2.7997    0.8299    5.9150 H   0  0  0  0  0  0  0  0  0  0  0  0
   -2.6795    1.2298    3.3336 N   0  0  0  0  0  0  0  0  0  0  0  0
   -2.4327    1.6559    1.9812 C   0  0  2  0  0  0  0  0  0  0  0  0
   -1.0977    1.0705    1.5400 C   0  0  0  0  0  0  0  0  0  0  0  0
   -0.2256    0.7177    2.3313 O   0  0  0  0  0  0  0  0  0  0  0  0
   -2.4239    3.1726    1.8718 C   0  0  0  0  0  0  0  0  0  0  0  0
   -3.4446    1.6657    3.8454 H   0  0  0  0  0  0  0  0  0  0  0  0
   -3.2368    1.2374    1.3661 H   0  0  0  0  0  0  0  0  0  0  0  0
   -1.6248    3.6099    2.4815 H   0  0  0  0  0  0  0  0  0  0  0  0
   -2.2644    3.4949    0.8375 H   0  0  0  0  0  0  0  0  0  0  0  0
   -3.3741    3.5939    2.2175 H   0  0  0  0  0  0  0  0  0  0  0  0
   -0.9750    1.0274    0.1566 N   0  0  0  0  0  0  0  0  0  0  0  0
    0.2023    0.5266   -0.5070 C   0  0  2  0  0  0  0  0  0  0  0  0
   -0.2690   -0.3840   -1.6353 C   0  0  0  0  0  0  0  0  0  0  0  0
    0.3828   -0.5714   -2.6604 O   0  0  0  0  0  0  0  0  0  0  0  0
    1.1229   -0.2414    0.4483 C   0  0  0  0  0  0  0  0  0  0  0  0
    1.7457    0.6462    1.4982 C   0  0  0  0  0  0  0  0  0  0  0  0
    2.8681    1.4135    1.1865 C   0  0  0  0  0  0  0  0  0  0  0  0
    1.1991    0.6986    2.7804 C   0  0  0  0  0  0  0  0  0  0  0  0
    3.4439    2.2333    2.1570 C   0  0  0  0  0  0  0  0  0  0  0  0
    1.7749    1.5184    3.7510 C   0  0  0  0  0  0  0  0  0  0  0  0
    2.8973    2.2857    3.4393 C   0  0  0  0  0  0  0  0  0  0  0  0
    3.4601    3.0848    4.3866 O   0  0  0  0  0  0  0  0  0  0  0  0
   -1.7582    1.3241   -0.4207 H   0  0  0  0  0  0  0  0  0  0  0  0
    0.7122    1.3966   -0.9372 H   0  0  0  0  0  0  0  0  0  0  0  0
    1.9125   -0.7561   -0.1159 H   0  0  0  0  0  0  0  0  0  0  0  0
    0.5669   -1.0391    0.9584 H   0  0  0  0  0  0  0  0  0  0  0  0
    3.3005    1.3788    0.1901 H   0  0  0  0  0  0  0  0  0  0  0  0
    0.3246    0.1043    3.0322 H   0  0  0  0  0  0  0  0  0  0  0  0
    4.3185    2.8285    1.9082 H   0  0  0  0  0  0  0  0  0  0  0  0
    1.3448    1.5546    4.7479 H   0  0  0  0  0  0  0  0  0  0  0  0
    2.9701    3.0133    5.2212 H   0  0  0  0  0  0  0  0  0  0  0  0
   -1.4774   -0.9982   -1.3369 N   0  0  0  0  0  0  0  0  0  0  0  0
   -2.1353   -1.9287   -2.2257 C   0  0  2  0  0  0  0  0  0  0  0  0
   -2.2040   -1.2912   -3.6071 C   0  0  0  0  0  0  0  0  0  0  0  0
   -2.1405   -0.0772   -3.7895 O   0  0  0  0  0  0  0  0  0  0  0  0
   -3.5251   -2.2862   -1.7224 C   0  0  0  0  0  0  0  0  0  0  0  0
   -1.9216   -0.7828   -0.4492 H   0  0  0  0  0  0  0  0  0  0  0  0
   -1.5066   -2.8248   -2.2673 H   0  0  0  0  0  0  0  0  0  0  0  0
   -4.1696   -1.4009   -1.6740 H   0  0  0  0  0  0  0  0  0  0  0  0
   -4.0111   -3.0131   -2.3816 H   0  0  0  0  0  0  0  0  0  0  0  0
   -3.4764   -2.7172   -0.7166 H   0  0  0  0  0  0  0  0  0  0  0  0
   -2.3878   -2.2343   -4.6086 N   0  0  0  0  0  0  0  0  0  0  0  0
   -2.4969   -1.8784   -6.0041 C   0  0  0  0  0  0  0  0  0  0  0  0
   -2.4102   -3.2208   -4.3679 H   0  0  0  0  0  0  0  0  0  0  0  0
   -3.5564   -1.7420   -6.2665 H   0  0  0  0  0  0  0  0  0  0  0  0
   -1.9504   -0.9415   -6.1873 H   0  0  0  0  0  0  0  0  0  0  0  0
   -2.0667   -2.6806   -6.6217 H   0  0  0  0  0  0  0  0  0  0  0  0
 23 25  2  0  0  0  0
 22 23  1  0  0  0  0
 24 26  1  0  0  0  0
 22 24  2  0  0  0  0
 25 27  1  0  0  0  0
 26 27  2  0  0  0  0
 21 22  1  0  0  0  0
 27 28  1  0  0  0  0
  1  3  1  0  0  0  0
  1  7  1  0  0  0  0
  1  2  2  0  0  0  0
 39 40  1  0  0  0  0
 40 48  1  0  0  0  0
 40 41  2  0  0  0  0
  8  9  1  0  0  0  0
  9 17  1  0  0  0  0
  9 10  2  0  0  0  0
 18 19  1  0  0  0  0
 19 38  1  0  0  0  0
 19 20  2  0  0  0  0
 39 42  1  0  0  0  0
  8 11  1  0  0  0  0
 48 49  1  0  0  0  0
 18 21  1  0  0  0  0
 38 39  1  0  0  0  0
  7  8  1  0  0  0  0
 17 18  1  0  0  0  0
 23 33  1  0  0  0  0
 24 34  1  0  0  0  0
 25 35  1  0  0  0  0
 26 36  1  0  0  0  0
  3  4  1  0  0  0  0
  3  5  1  0  0  0  0
  3  6  1  0  0  0  0
 42 45  1  0  0  0  0
 42 46  1  0  0  0  0
 42 47  1  0  0  0  0
 11 14  1  0  0  0  0
 11 15  1  0  0  0  0
 11 16  1  0  0  0  0
 49 51  1  0  0  0  0
 49 52  1  0  0  0  0
 49 53  1  0  0  0  0
 21 31  1  0  0  0  0
 21 32  1  0  0  0  0
 39 44  1  0  0  0  0
  8 13  1  0  0  0  0
 18 30  1  0  0  0  0
 48 50  1  0  0  0  0
  7 12  1  0  0  0  0
 38 43  1  0  0  0  0
 17 29  1  0  0  0  0
 28 37  1  0  0  0  0
M  END
$$$$

  -OEChem-05262214473D

 53 53  0     1  0  0  0  0  0999 V2000
   -1.9298    0.2574    3.9747 C   0  0  0  0  0  0  0  0  0  0  0  0
   -0.9825   -0.3573    3.4990 O   0  0  0  0  0  0  0  0  0  0  0  0
   -2.3617   -0.0250    5.3754 C   0  0  0  0  0  0  0  0  0  0  0  0
   -3.1214   -0.8213    5.4288 H   0  0  0  0  0  0  0  0  0  0  0  0
   -1.5305   -0.3726    6.0097 H   0  0  0  0  0  0  0  0  0  0  0  0
   -2.7997    0.8299    5.9150 H   0  0  0  0  0  0  0  0  0  0  0  0
   -2.6795    1.2298    3.3336 N   0  0  0  0  0  0  0  0  0  0  0  0
   -2.4327    1.6559    1.9812 C   0  0  2  0  0  0  0  0  0  0  0  0
   -1.0977    1.0705    1.5400 C   0  0  0  0  0  0  0  0  0  0  0  0
   -0.2256    0.7177    2.3313 O   0  0  0  0  0  0  0  0  0  0  0  0
   -2.4239    3.1726    1.8718 C   0  0  0  0  0  0  0  0  0  0  0  0
   -3.4446    1.6657    3.8454 H   0  0  0  0  0  0  0  0  0  0  0  0
   -3.2368    1.2374    1.3661 H   0  0  0  0  0  0  0  0  0  0  0  0
   -1.6248    3.6099    2.4815 H   0  0  0  0  0  0  0  0  0  0  0  0
   -2.2644    3.4949    0.8375 H   0  0  0  0  0  0  0  0  0  0  0  0
   -3.3741    3.5939    2.2175 H   0  0  0  0  0  0  0  0  0  0  0  0
   -0.9750    1.0274    0.1566 N   0  0  0  0  0  0  0  0  0  0  0  0
    0.2023    0.5266   -0.5070 C   0  0  2  0  0  0  0  0  0  0  0  0
   -0.2690   -0.3840   -1.6353 C   0  0  0  0  0  0  0  0  0  0  0  0
    0.4761   -0.7855   -2.5266 O   0  0  0  0  0  0  0  0  0  0  0  0
    1.1229   -0.2414    0.4483 C   0  0  0  0  0  0  0  0  0  0  0  0
    1.7457    0.6462    1.4982 C   0  0  0  0  0  0  0  0  0  0  0  0
    2.8681    1.4135    1.1865 C   0  0  0  0  0  0  0  0  0  0  0  0
    1.1991    0.6986    2.7804 C   0  0  0  0  0  0  0  0  0  0  0  0
    3.4439    2.2333    2.1570 C   0  0  0  0  0  0  0  0  0  0  0  0
    1.7749    1.5184    3.7510 C   0  0  0  0  0  0  0  0  0  0  0  0
    2.8973    2.2857    3.4393 C   0  0  0  0  0  0  0  0  0  0  0  0
    3.4601    3.0848    4.3866 O   0  0  0  0  0  0  0  0  0  0  0  0
   -1.7582    1.3241   -0.4207 H   0  0  0  0  0  0  0  0  0  0  0  0
    0.7122    1.3966   -0.9372 H   0  0  0  0  0  0  0  0  0  0  0  0
    1.9125   -0.7561   -0.1159 H   0  0  0  0  0  0  0  0  0  0  0  0
    0.5669   -1.0391    0.9584 H   0  0  0  0  0  0  0  0  0  0  0  0
    3.3005    1.3788    0.1901 H   0  0  0  0  0  0  0  0  0  0  0  0
    0.3246    0.1043    3.0322 H   0  0  0  0  0  0  0  0  0  0  0  0
    4.3185    2.8285    1.9082 H   0  0  0  0  0  0  0  0  0  0  0  0
    1.3448    1.5546    4.7479 H   0  0  0  0  0  0  0  0  0  0  0  0
    2.9701    3.0133    5.2212 H   0  0  0  0  0  0  0  0  0  0  0  0
   -1.6054   -0.7325   -1.4979 N   0  0  0  0  0  0  0  0  0  0  0  0
   -2.2967   -1.6053   -2.4194 C   0  0  2  0  0  0  0  0  0  0  0  0
   -2.0344   -1.1003   -3.8320 C   0  0  0  0  0  0  0  0  0  0  0  0
   -1.7059    0.0580   -4.0802 O   0  0  0  0  0  0  0  0  0  0  0  0
   -3.7883   -1.6496   -2.1262 C   0  0  0  0  0  0  0  0  0  0  0  0
   -2.1237   -0.3552   -0.7100 H   0  0  0  0  0  0  0  0  0  0  0  0
   -1.8586   -2.6021   -2.3000 H   0  0  0  0  0  0  0  0  0  0  0  0
   -4.2449   -0.6597   -2.2407 H   0  0  0  0  0  0  0  0  0  0  0  0
   -4.3063   -2.3331   -2.8070 H   0  0  0  0  0  0  0  0  0  0  0  0
   -3.9741   -1.9845   -1.1000 H   0  0  0  0  0  0  0  0  0  0  0  0
   -2.2521   -2.0838   -4.7867 N   0  0  0  0  0  0  0  0  0  0  0  0
   -2.0826   -1.8482   -6.2015 C   0  0  0  0  0  0  0  0  0  0  0  0
   -2.5043   -3.0218   -4.4893 H   0  0  0  0  0  0  0  0  0  0  0  0
   -3.0439   -1.5435   -6.6408 H   0  0  0  0  0  0  0  0  0  0  0  0
   -1.3407   -1.0506   -6.3540 H   0  0  0  0  0  0  0  0  0  0  0  0
   -1.7337   -2.7713   -6.6876 H   0  0  0  0  0  0  0  0  0  0  0  0
 23 25  2  0  0  0  0
 22 23  1  0  0  0  0
 24 26  1  0  0  0  0
 22 24  2  0  0  0  0
 25 27  1  0  0  0  0
 26 27  2  0  0  0  0
 21 22  1  0  0  0  0
 27 28  1  0  0  0  0
  1  3  1  0  0  0  0
  1  7  1  0  0  0  0
  1  2  2  0  0  0  0
 39 40  1  0  0  0  0
 40 48  1  0  0  0  0
 40 41  2  0  0  0  0
  8  9  1  0  0  0  0
  9 17  1  0  0  0  0
  9 10  2  0  0  0  0
 18 19  1  0  0  0  0
 19 38  1  0  0  0  0
 19 20  2  0  0  0  0
 39 42  1  0  0  0  0
  8 11  1  0  0  0  0
 48 49  1  0  0  0  0
 18 21  1  0  0  0  0
 38 39  1  0  0  0  0
  7  8  1  0  0  0  0
 17 18  1  0  0  0  0
 23 33  1  0  0  0  0
 24 34  1  0  0  0  0
 25 35  1  0  0  0  0
 26 36  1  0  0  0  0
  3  4  1  0  0  0  0
  3  5  1  0  0  0  0
  3  6  1  0  0  0  0
 42 45  1  0  0  0  0
 42 46  1  0  0  0  0
 42 47  1  0  0  0  0
 11 14  1  0  0  0  0
 11 15  1  0  0  0  0
 11 16  1  0  0  0  0
 49 51  1  0  0  0  0
 49 52  1  0  0  0  0
 49 53  1  0  0  0  0
 21 31  1  0  0  0  0
 21 32  1  0  0  0  0
 39 44  1  0  0  0  0
  8 13  1  0  0  0  0
 18 30  1  0  0  0  0
 48 50  1  0  0  0  0
  7 12  1  0  0  0  0
 38 43  1  0  0  0  0
 17 29  1  0  0  0  0
 28 37  1  0  0  0  0
M  END
$$$$

  -OEChem-05262214473D

 53 53  0     1  0  0  0  0  0999 V2000
   -1.9298    0.2574    3.9747 C   0  0  0  0  0  0  0  0  0  0  0  0
   -0.9825   -0.3573    3.4990 O   0  0  0  0  0  0  0  0  0  0  0  0
   -2.3617   -0.0250    5.3754 C   0  0  0  0  0  0  0  0  0  0  0  0
   -3.1214   -0.8213    5.4288 H   0  0  0  0  0  0  0  0  0  0  0  0
   -1.5305   -0.3726    6.0097 H   0  0  0  0  0  0  0  0  0  0  0  0
   -2.7997    0.8299    5.9150 H   0  0  0  0  0  0  0  0  0  0  0  0
   -2.6795    1.2298    3.3336 N   0  0  0  0  0  0  0  0  0  0  0  0
   -2.4327    1.6559    1.9812 C   0  0  2  0  0  0  0  0  0  0  0  0
   -1.0977    1.0705    1.5400 C   0  0  0  0  0  0  0  0  0  0  0  0
   -0.2256    0.7177    2.3313 O   0  0  0  0  0  0  0  0  0  0  0  0
   -2.4239    3.1726    1.8718 C   0  0  0  0  0  0  0  0  0  0  0  0
   -3.4446    1.6657    3.8454 H   0  0  0  0  0  0  0  0  0  0  0  0
   -3.2368    1.2374    1.3661 H   0  0  0  0  0  0  0  0  0  0  0  0
   -1.6248    3.6099    2.4815 H   0  0  0  0  0  0  0  0  0  0  0  0
   -2.2644    3.4949    0.8375 H   0  0  0  0  0  0  0  0  0  0  0  0
   -3.3741    3.5939    2.2175 H   0  0  0  0  0  0  0  0  0  0  0  0
   -0.9750    1.0274    0.1566 N   0  0  0  0  0  0  0  0  0  0  0  0
    0.2023    0.5266   -0.5070 C   0  0  2  0  0  0  0  0  0  0  0  0
   -0.2690   -0.3840   -1.6353 C   0  0  0  0  0  0  0  0  0  0  0  0
    0.5046   -0.9994   -2.3658 O   0  0  0  0  0  0  0  0  0  0  0  0
    1.1229   -0.2414    0.4483 C   0  0  0  0  0  0  0  0  0  0  0  0
    1.7457    0.6462    1.4982 C   0  0  0  0  0  0  0  0  0  0  0  0
    2.8681    1.4135    1.1865 C   0  0  0  0  0  0  0  0  0  0  0  0
    1.1991    0.6986    2.7804 C   0  0  0  0  0  0  0  0  0  0  0  0
    3.4439    2.2333    2.1570 C   0  0  0  0  0  0  0  0  0  0  0  0
    1.7749    1.5184    3.7510 C   0  0  0  0  0  0  0  0  0  0  0  0
    2.8973    2.2857    3.4393 C   0  0  0  0  0  0  0  0  0  0  0  0
    3.4601    3.0848    4.3866 O   0  0  0  0  0  0  0  0  0  0  0  0
   -1.7582    1.3241   -0.4207 H   0  0  0  0  0  0  0  0  0  0  0  0
    0.7122    1.3966   -0.9372 H   0  0  0  0  0  0  0  0  0  0  0  0
    1.9125   -0.7561   -0.1159 H   0  0  0  0  0  0  0  0  0  0  0  0
    0.5669   -1.0391    0.9584 H   0  0  0  0  0  0  0  0  0  0  0  0
    3.3005    1.3788    0.1901 H   0  0  0  0  0  0  0  0  0  0  0  0
    0.3246    0.1043    3.0322 H   0  0  0  0  0  0  0  0  0  0  0  0
    4.3185    2.8285    1.9082 H   0  0  0  0  0  0  0  0  0  0  0  0
    1.3448    1.5546    4.7479 H   0  0  0  0  0  0  0  0  0  0  0  0
    2.9701    3.0133    5.2212 H   0  0  0  0  0  0  0  0  0  0  0  0
   -1.6534   -0.4642   -1.6944 N   0  0  0  0  0  0  0  0  0  0  0  0
   -2.3608   -1.2774   -2.6572 C   0  0  2  0  0  0  0  0  0  0  0  0
   -1.7992   -0.9664   -4.0383 C   0  0  0  0  0  0  0  0  0  0  0  0
   -1.2153    0.0821   -4.3045 O   0  0  0  0  0  0  0  0  0  0  0  0
   -3.8582   -1.0166   -2.6080 C   0  0  0  0  0  0  0  0  0  0  0  0
   -2.1967    0.0757   -1.0273 H   0  0  0  0  0  0  0  0  0  0  0  0
   -2.1508   -2.3222   -2.4038 H   0  0  0  0  0  0  0  0  0  0  0  0
   -4.0880    0.0254   -2.8591 H   0  0  0  0  0  0  0  0  0  0  0  0
   -4.3955   -1.6539   -3.3180 H   0  0  0  0  0  0  0  0  0  0  0  0
   -4.2551   -1.2122   -1.6060 H   0  0  0  0  0  0  0  0  0  0  0  0
   -2.0647   -1.9788   -4.9498 N   0  0  0  0  0  0  0  0  0  0  0  0
   -1.6461   -1.9143   -6.3306 C   0  0  0  0  0  0  0  0  0  0  0  0
   -2.5383   -2.8212   -4.6370 H   0  0  0  0  0  0  0  0  0  0  0  0
   -2.4530   -1.4799   -6.9390 H   0  0  0  0  0  0  0  0  0  0  0  0
   -0.7468   -1.2860   -6.4120 H   0  0  0  0  0  0  0  0  0  0  0  0
   -1.4192   -2.9279   -6.6925 H   0  0  0  0  0  0  0  0  0  0  0  0
 23 25  2  0  0  0  0
 22 23  1  0  0  0  0
 24 26  1  0  0  0  0
 22 24  2  0  0  0  0
 25 27  1  0  0  0  0
 26 27  2  0  0  0  0
 21 22  1  0  0  0  0
 27 28  1  0  0  0  0
  1  3  1  0  0  0  0
  1  7  1  0  0  0  0
  1  2  2  0  0  0  0
 39 40  1  0  0  0  0
 40 48  1  0  0  0  0
 40 41  2  0  0  0  0
  8  9  1  0  0  0  0
  9 17  1  0  0  0  0
  9 10  2  0  0  0  0
 18 19  1  0  0  0  0
 19 38  1  0  0  0  0
 19 20  2  0  0  0  0
 39 42  1  0  0  0  0
  8 11  1  0  0  0  0
 48 49  1  0  0  0  0
 18 21  1  0  0  0  0
 38 39  1  0  0  0  0
  7  8  1  0  0  0  0
 17 18  1  0  0  0  0
 23 33  1  0  0  0  0
 24 34  1  0  0  0  0
 25 35  1  0  0  0  0
 26 36  1  0  0  0  0
  3  4  1  0  0  0  0
  3  5  1  0  0  0  0
  3  6  1  0  0  0  0
 42 45  1  0  0  0  0
 42 46  1  0  0  0  0
 42 47  1  0  0  0  0
 11 14  1  0  0  0  0
 11 15  1  0  0  0  0
 11 16  1  0  0  0  0
 49 51  1  0  0  0  0
 49 52  1  0  0  0  0
 49 53  1  0  0  0  0
 21 31  1  0  0  0  0
 21 32  1  0  0  0  0
 39 44  1  0  0  0  0
  8 13  1  0  0  0  0
 18 30  1  0  0  0  0
 48 50  1  0  0  0  0
  7 12  1  0  0  0  0
 38 43  1  0  0  0  0
 17 29  1  0  0  0  0
 28 37  1  0  0  0  0
M  END
$$$$

  -OEChem-05262214473D

 53 53  0     1  0  0  0  0  0999 V2000
   -1.9298    0.2574    3.9747 C   0  0  0  0  0  0  0  0  0  0  0  0
   -0.9825   -0.3573    3.4990 O   0  0  0  0  0  0  0  0  0  0  0  0
   -2.3617   -0.0250    5.3754 C   0  0  0  0  0  0  0  0  0  0  0  0
   -3.1214   -0.8213    5.4288 H   0  0  0  0  0  0  0  0  0  0  0  0
   -1.5305   -0.3726    6.0097 H   0  0  0  0  0  0  0  0  0  0  0  0
   -2.7997    0.8299    5.9150 H   0  0  0  0  0  0  0  0  0  0  0  0
   -2.6795    1.2298    3.3336 N   0  0  0  0  0  0  0  0  0  0  0  0
   -2.4327    1.6559    1.9812 C   0  0  2  0  0  0  0  0  0  0  0  0
   -1.0977    1.0705    1.5400 C   0  0  0  0  0  0  0  0  0  0  0  0
   -0.2256    0.7177    2.3313 O   0  0  0  0  0  0  0  0  0  0  0  0
   -2.4239    3.1726    1.8718 C   0  0  0  0  0  0  0  0  0  0  0  0
   -3.4446    1.6657    3.8454 H   0  0  0  0  0  0  0  0  0  0  0  0
   -3.2368    1.2374    1.3661 H   0  0  0  0  0  0  0  0  0  0  0  0
   -1.6248    3.6099    2.4815 H   0  0  0  0  0  0  0  0  0  0  0  0
   -2.2644    3.4949    0.8375 H   0  0  0  0  0  0  0  0  0  0  0  0
   -3.3741    3.5939    2.2175 H   0  0  0  0  0  0  0  0  0  0  0  0
   -0.9750    1.0274    0.1566 N   0  0  0  0  0  0  0  0  0  0  0  0
    0.2023    0.5266   -0.5070 C   0  0  2  0  0  0  0  0  0  0  0  0
   -0.2690   -0.3840   -1.6353 C   0  0  0  0  0  0  0  0  0  0  0  0
    0.4662   -1.1987   -2.1890 O   0  0  0  0  0  0  0  0  0  0  0  0
    1.1229   -0.2414    0.4483 C   0  0  0  0  0  0  0  0  0  0  0  0
    1.7457    0.6462    1.4982 C   0  0  0  0  0  0  0  0  0  0  0  0
    2.8681    1.4135    1.1865 C   0  0  0  0  0  0  0  0  0  0  0  0
    1.1991    0.6986    2.7804 C   0  0  0  0  0  0  0  0  0  0  0  0
    3.4439    2.2333    2.1570 C   0  0  0  0  0  0  0  0  0  0  0  0
    1.7749    1.5184    3.7510 C   0  0  0  0  0  0  0  0  0  0  0  0
    2.8973    2.2857    3.4393 C   0  0  0  0  0  0  0  0  0  0  0  0
    3.4601    3.0848    4.3866 O   0  0  0  0  0  0  0  0  0  0  0  0
   -1.7582    1.3241   -0.4207 H   0  0  0  0  0  0  0  0  0  0  0  0
    0.7122    1.3966   -0.9372 H   0  0  0  0  0  0  0  0  0  0  0  0
    1.9125   -0.7561   -0.1159 H   0  0  0  0  0  0  0  0  0  0  0  0
    0.5669   -1.0391    0.9584 H   0  0  0  0  0  0  0  0  0  0  0  0
    3.3005    1.3788    0.1901 H   0  0  0  0  0  0  0  0  0  0  0  0
    0.3246    0.1043    3.0322 H   0  0  0  0  0  0  0  0  0  0  0  0
    4.3185    2.8285    1.9082 H   0  0  0  0  0  0  0  0  0  0  0  0
    1.3448    1.5546    4.7479 H   0  0  0  0  0  0  0  0  0  0  0  0
    2.9701    3.0133    5.2212 H   0  0  0  0  0  0  0  0  0  0  0  0
   -1.6179   -0.2116   -1.9130 N   0  0  0  0  0  0  0  0  0  0  0  0
   -2.3230   -0.9675   -2.9231 C   0  0  2  0  0  0  0  0  0  0  0  0
   -1.5145   -0.8986   -4.2120 C   0  0  0  0  0  0  0  0  0  0  0  0
   -0.7021   -0.0066   -4.4473 O   0  0  0  0  0  0  0  0  0  0  0  0
   -3.7299   -0.4302   -3.1347 C   0  0  0  0  0  0  0  0  0  0  0  0
   -2.1356    0.4806   -1.3795 H   0  0  0  0  0  0  0  0  0  0  0  0
   -2.3635   -2.0042   -2.5717 H   0  0  0  0  0  0  0  0  0  0  0  0
   -3.7097    0.6075   -3.4870 H   0  0  0  0  0  0  0  0  0  0  0  0
   -4.2726   -1.0216   -3.8796 H   0  0  0  0  0  0  0  0  0  0  0  0
   -4.3004   -0.4528   -2.1999 H   0  0  0  0  0  0  0  0  0  0  0  0
   -1.8383   -1.9263   -5.0867 N   0  0  0  0  0  0  0  0  0  0  0  0
   -1.2172   -2.0720   -6.3824 C   0  0  0  0  0  0  0  0  0  0  0  0
   -2.5099   -2.6327   -4.8009 H   0  0  0  0  0  0  0  0  0  0  0  0
   -1.8240   -1.5554   -7.1407 H   0  0  0  0  0  0  0  0  0  0  0  0
   -0.2094   -1.6318   -6.3574 H   0  0  0  0  0  0  0  0  0  0  0  0
   -1.1446   -3.1398   -6.6362 H   0  0  0  0  0  0  0  0  0  0  0  0
 23 25  2  0  0  0  0
 22 23  1  0  0  0  0
 24 26  1  0  0  0  0
 22 24  2  0  0  0  0
 25 27  1  0  0  0  0
 26 27  2  0  0  0  0
 21 22  1  0  0  0  0
 27 28  1  0  0  0  0
  1  3  1  0  0  0  0
  1  7  1  0  0  0  0
  1  2  2  0  0  0  0
 39 40  1  0  0  0  0
 40 48  1  0  0  0  0
 40 41  2  0  0  0  0
  8  9  1  0  0  0  0
  9 17  1  0  0  0  0
  9 10  2  0  0  0  0
 18 19  1  0  0  0  0
 19 38  1  0  0  0  0
 19 20  2  0  0  0  0
 39 42  1  0  0  0  0
  8 11  1  0  0  0  0
 48 49  1  0  0  0  0
 18 21  1  0  0  0  0
 38 39  1  0  0  0  0
  7  8  1  0  0  0  0
 17 18  1  0  0  0  0
 23 33  1  0  0  0  0
 24 34  1  0  0  0  0
 25 35  1  0  0  0  0
 26 36  1  0  0  0  0
  3  4  1  0  0  0  0
  3  5  1  0  0  0  0
  3  6  1  0  0  0  0
 42 45  1  0  0  0  0
 42 46  1  0  0  0  0
 42 47  1  0  0  0  0
 11 14  1  0  0  0  0
 11 15  1  0  0  0  0
 11 16  1  0  0  0  0
 49 51  1  0  0  0  0
 49 52  1  0  0  0  0
 49 53  1  0  0  0  0
 21 31  1  0  0  0  0
 21 32  1  0  0  0  0
 39 44  1  0  0  0  0
  8 13  1  0  0  0  0
 18 30  1  0  0  0  0
 48 50  1  0  0  0  0
  7 12  1  0  0  0  0
 38 43  1  0  0  0  0
 17 29  1  0  0  0  0
 28 37  1  0  0  0  0
M  END
$$$$

  -OEChem-05262214473D

 53 53  0     1  0  0  0  0  0999 V2000
   -1.9298    0.2574    3.9747 C   0  0  0  0  0  0  0  0  0  0  0  0
   -0.9825   -0.3573    3.4990 O   0  0  0  0  0  0  0  0  0  0  0  0
   -2.3617   -0.0250    5.3754 C   0  0  0  0  0  0  0  0  0  0  0  0
   -3.1214   -0.8213    5.4288 H   0  0  0  0  0  0  0  0  0  0  0  0
   -1.5305   -0.3726    6.0097 H   0  0  0  0  0  0  0  0  0  0  0  0
   -2.7997    0.8299    5.9150 H   0  0  0  0  0  0  0  0  0  0  0  0
   -2.6795    1.2298    3.3336 N   0  0  0  0  0  0  0  0  0  0  0  0
   -2.4327    1.6559    1.9812 C   0  0  2  0  0  0  0  0  0  0  0  0
   -1.0977    1.0705    1.5400 C   0  0  0  0  0  0  0  0  0  0  0  0
   -0.2256    0.7177    2.3313 O   0  0  0  0  0  0  0  0  0  0  0  0
   -2.4239    3.1726    1.8718 C   0  0  0  0  0  0  0  0  0  0  0  0
   -3.4446    1.6657    3.8454 H   0  0  0  0  0  0  0  0  0  0  0  0
   -3.2368    1.2374    1.3661 H   0  0  0  0  0  0  0  0  0  0  0  0
   -1.6248    3.6099    2.4815 H   0  0  0  0  0  0  0  0  0  0  0  0
   -2.2644    3.4949    0.8375 H   0  0  0  0  0  0  0  0  0  0  0  0
   -3.3741    3.5939    2.2175 H   0  0  0  0  0  0  0  0  0  0  0  0
   -0.9750    1.0274    0.1566 N   0  0  0  0  0  0  0  0  0  0  0  0
    0.2023    0.5266   -0.5070 C   0  0  2  0  0  0  0  0  0  0  0  0
   -0.2690   -0.3840   -1.6353 C   0  0  0  0  0  0  0  0  0  0  0  0
    0.3637   -1.3697   -2.0081 O   0  0  0  0  0  0  0  0  0  0  0  0
    1.1229   -0.2414    0.4483 C   0  0  0  0  0  0  0  0  0  0  0  0
    1.7457    0.6462    1.4982 C   0  0  0  0  0  0  0  0  0  0  0  0
    2.8681    1.4135    1.1865 C   0  0  0  0  0  0  0  0  0  0  0  0
    1.1991    0.6986    2.7804 C   0  0  0  0  0  0  0  0  0  0  0  0
    3.4439    2.2333    2.1570 C   0  0  0  0  0  0  0  0  0  0  0  0
    1.7749    1.5184    3.7510 C   0  0  0  0  0  0  0  0  0  0  0  0
    2.8973    2.2857    3.4393 C   0  0  0  0  0  0  0  0  0  0  0  0
    3.4601    3.0848    4.3866 O   0  0  0  0  0  0  0  0  0  0  0  0
   -1.7582    1.3241   -0.4207 H   0  0  0  0  0  0  0  0  0  0  0  0
    0.7122    1.3966   -0.9372 H   0  0  0  0  0  0  0  0  0  0  0  0
    1.9125   -0.7561   -0.1159 H   0  0  0  0  0  0  0  0  0  0  0  0
    0.5669   -1.0391    0.9584 H   0  0  0  0  0  0  0  0  0  0  0  0
    3.3005    1.3788    0.1901 H   0  0  0  0  0  0  0  0  0  0  0  0
    0.3246    0.1043    3.0322 H   0  0  0  0  0  0  0  0  0  0  0  0
    4.3185    2.8285    1.9082 H   0  0  0  0  0  0  0  0  0  0  0  0
    1.3448    1.5546    4.7479 H   0  0  0  0  0  0  0  0  0  0  0  0
    2.9701    3.0133    5.2212 H   0  0  0  0  0  0  0  0  0  0  0  0
   -1.5015    0.0081   -2.1390 N   0  0  0  0  0  0  0  0  0  0  0  0
   -2.1861   -0.6966   -3.1989 C   0  0  2  0  0  0  0  0  0  0  0  0
   -1.1997   -0.9015   -4.3411 C   0  0  0  0  0  0  0  0  0  0  0  0
   -0.2013   -0.2020   -4.4988 O   0  0  0  0  0  0  0  0  0  0  0  0
   -3.4123    0.0694   -3.6706 C   0  0  0  0  0  0  0  0  0  0  0  0
   -1.9446    0.8317   -1.7427 H   0  0  0  0  0  0  0  0  0  0  0  0
   -2.4820   -1.6697   -2.7921 H   0  0  0  0  0  0  0  0  0  0  0  0
   -3.1357    1.0472   -4.0815 H   0  0  0  0  0  0  0  0  0  0  0  0
   -3.9459   -0.4793   -4.4538 H   0  0  0  0  0  0  0  0  0  0  0  0
   -4.1069    0.2418   -2.8414 H   0  0  0  0  0  0  0  0  0  0  0  0
   -1.5884   -1.9299   -5.1882 N   0  0  0  0  0  0  0  0  0  0  0  0
   -0.8250   -2.3106   -6.3536 C   0  0  0  0  0  0  0  0  0  0  0  0
   -2.4210   -2.4692   -4.9700 H   0  0  0  0  0  0  0  0  0  0  0  0
   -1.1996   -1.7651   -7.2323 H   0  0  0  0  0  0  0  0  0  0  0  0
    0.2351   -2.0644   -6.1939 H   0  0  0  0  0  0  0  0  0  0  0  0
   -0.9288   -3.3926   -6.5223 H   0  0  0  0  0  0  0  0  0  0  0  0
 23 25  2  0  0  0  0
 22 23  1  0  0  0  0
 24 26  1  0  0  0  0
 22 24  2  0  0  0  0
 25 27  1  0  0  0  0
 26 27  2  0  0  0  0
 21 22  1  0  0  0  0
 27 28  1  0  0  0  0
  1  3  1  0  0  0  0
  1  7  1  0  0  0  0
  1  2  2  0  0  0  0
 39 40  1  0  0  0  0
 40 48  1  0  0  0  0
 40 41  2  0  0  0  0
  8  9  1  0  0  0  0
  9 17  1  0  0  0  0
  9 10  2  0  0  0  0
 18 19  1  0  0  0  0
 19 38  1  0  0  0  0
 19 20  2  0  0  0  0
 39 42  1  0  0  0  0
  8 11  1  0  0  0  0
 48 49  1  0  0  0  0
 18 21  1  0  0  0  0
 38 39  1  0  0  0  0
  7  8  1  0  0  0  0
 17 18  1  0  0  0  0
 23 33  1  0  0  0  0
 24 34  1  0  0  0  0
 25 35  1  0  0  0  0
 26 36  1  0  0  0  0
  3  4  1  0  0  0  0
  3  5  1  0  0  0  0
  3  6  1  0  0  0  0
 42 45  1  0  0  0  0
 42 46  1  0  0  0  0
 42 47  1  0  0  0  0
 11 14  1  0  0  0  0
 11 15  1  0  0  0  0
 11 16  1  0  0  0  0
 49 51  1  0  0  0  0
 49 52  1  0  0  0  0
 49 53  1  0  0  0  0
 21 31  1  0  0  0  0
 21 32  1  0  0  0  0
 39 44  1  0  0  0  0
  8 13  1  0  0  0  0
 18 30  1  0  0  0  0
 48 50  1  0  0  0  0
  7 12  1  0  0  0  0
 38 43  1  0  0  0  0
 17 29  1  0  0  0  0
 28 37  1  0  0  0  0
M  END
$$$$

  -OEChem-05262214473D

 53 53  0     1  0  0  0  0  0999 V2000
   -1.9298    0.2574    3.9747 C   0  0  0  0  0  0  0  0  0  0  0  0
   -0.9825   -0.3573    3.4990 O   0  0  0  0  0  0  0  0  0  0  0  0
   -2.3617   -0.0250    5.3754 C   0  0  0  0  0  0  0  0  0  0  0  0
   -3.1214   -0.8213    5.4288 H   0  0  0  0  0  0  0  0  0  0  0  0
   -1.5305   -0.3726    6.0097 H   0  0  0  0  0  0  0  0  0  0  0  0
   -2.7997    0.8299    5.9150 H   0  0  0  0  0  0  0  0  0  0  0  0
   -2.6795    1.2298    3.3336 N   0  0  0  0  0  0  0  0  0  0  0  0
   -2.4327    1.6559    1.9812 C   0  0  2  0  0  0  0  0  0  0  0  0
   -1.0977    1.0705    1.5400 C   0  0  0  0  0  0  0  0  0  0  0  0
   -0.2256    0.7177    2.3313 O   0  0  0  0  0  0  0  0  0  0  0  0
   -2.4239    3.1726    1.8718 C   0  0  0  0  0  0  0  0  0  0  0  0
   -3.4446    1.6657    3.8454 H   0  0  0  0  0  0  0  0  0  0  0  0
   -3.2368    1.2374    1.3661 H   0  0  0  0  0  0  0  0  0  0  0  0
   -1.6248    3.6099    2.4815 H   0  0  0  0  0  0  0  0  0  0  0  0
   -2.2644    3.4949    0.8375 H   0  0  0  0  0  0  0  0  0  0  0  0
   -3.3741    3.5939    2.2175 H   0  0  0  0  0  0  0  0  0  0  0  0
   -0.9750    1.0274    0.1566 N   0  0  0  0  0  0  0  0  0  0  0  0
    0.2023    0.5266   -0.5070 C   0  0  2  0  0  0  0  0  0  0  0  0
   -0.2690   -0.3840   -1.6353 C   0  0  0  0  0  0  0  0  0  0  0  0
    0.2039   -1.5007   -1.8356 O   0  0  0  0  0  0  0  0  0  0  0  0
    1.1229   -0.2414    0.4483 C   0  0  0  0  0  0  0  0  0  0  0  0
    1.7457    0.6462    1.4982 C   0  0  0  0  0  0  0  0  0  0  0  0
    2.8681    1.4135    1.1865 C   0  0  0  0  0  0  0  0  0  0  0  0
    1.1991    0.6986    2.7804 C   0  0  0  0  0  0  0  0  0  0  0  0
    3.4439    2.2333    2.1570 C   0  0  0  0  0  0  0  0  0  0  0  0
    1.7749    1.5184    3.7510 C   0  0  0  0  0  0  0  0  0  0  0  0
    2.8973    2.2857    3.4393 C   0  0  0  0  0  0  0  0  0  0  0  0
    3.4601    3.0848    4.3866 O   0  0  0  0  0  0  0  0  0  0  0  0
   -1.7582    1.3241   -0.4207 H   0  0  0  0  0  0  0  0  0  0  0  0
    0.7122    1.3966   -0.9372 H   0  0  0  0  0  0  0  0  0  0  0  0
    1.9125   -0.7561   -0.1159 H   0  0  0  0  0  0  0  0  0  0  0  0
    0.5669   -1.0391    0.9584 H   0  0  0  0  0  0  0  0  0  0  0  0
    3.3005    1.3788    0.1901 H   0  0  0  0  0  0  0  0  0  0  0  0
    0.3246    0.1043    3.0322 H   0  0  0  0  0  0  0  0  0  0  0  0
    4.3185    2.8285    1.9082 H   0  0  0  0  0  0  0  0  0  0  0  0
    1.3448    1.5546    4.7479 H   0  0  0  0  0  0  0  0  0  0  0  0
    2.9701    3.0133    5.2212 H   0  0  0  0  0  0  0  0  0  0  0  0
   -1.3120    0.1799   -2.3568 N   0  0  0  0  0  0  0  0  0  0  0  0
   -1.9593   -0.4832   -3.4659 C   0  0  2  0  0  0  0  0  0  0  0  0
   -0.8762   -0.9750   -4.4169 C   0  0  0  0  0  0  0  0  0  0  0  0
    0.2530   -0.4907   -4.4555 O   0  0  0  0  0  0  0  0  0  0  0  0
   -2.9270    0.4483   -4.1791 C   0  0  0  0  0  0  0  0  0  0  0  0
   -1.6366    1.1053   -2.0921 H   0  0  0  0  0  0  0  0  0  0  0  0
   -2.4983   -1.3415   -3.0502 H   0  0  0  0  0  0  0  0  0  0  0  0
   -2.4051    1.3143   -4.6023 H   0  0  0  0  0  0  0  0  0  0  0  0
   -3.4377   -0.0640   -5.0012 H   0  0  0  0  0  0  0  0  0  0  0  0
   -3.6878    0.8244   -3.4866 H   0  0  0  0  0  0  0  0  0  0  0  0
   -1.3320   -1.9893   -5.2473 N   0  0  0  0  0  0  0  0  0  0  0  0
   -0.4964   -2.6139   -6.2461 C   0  0  0  0  0  0  0  0  0  0  0  0
   -2.2777   -2.3419   -5.1327 H   0  0  0  0  0  0  0  0  0  0  0  0
   -0.6226   -2.0945   -7.2074 H   0  0  0  0  0  0  0  0  0  0  0  0
    0.5563   -2.5543   -5.9326 H   0  0  0  0  0  0  0  0  0  0  0  0
   -0.7863   -3.6691   -6.3588 H   0  0  0  0  0  0  0  0  0  0  0  0
 23 25  2  0  0  0  0
 22 23  1  0  0  0  0
 24 26  1  0  0  0  0
 22 24  2  0  0  0  0
 25 27  1  0  0  0  0
 26 27  2  0  0  0  0
 21 22  1  0  0  0  0
 27 28  1  0  0  0  0
  1  3  1  0  0  0  0
  1  7  1  0  0  0  0
  1  2  2  0  0  0  0
 39 40  1  0  0  0  0
 40 48  1  0  0  0  0
 40 41  2  0  0  0  0
  8  9  1  0  0  0  0
  9 17  1  0  0  0  0
  9 10  2  0  0  0  0
 18 19  1  0  0  0  0
 19 38  1  0  0  0  0
 19 20  2  0  0  0  0
 39 42  1  0  0  0  0
  8 11  1  0  0  0  0
 48 49  1  0  0  0  0
 18 21  1  0  0  0  0
 38 39  1  0  0  0  0
  7  8  1  0  0  0  0
 17 18  1  0  0  0  0
 23 33  1  0  0  0  0
 24 34  1  0  0  0  0
 25 35  1  0  0  0  0
 26 36  1  0  0  0  0
  3  4  1  0  0  0  0
  3  5  1  0  0  0  0
  3  6  1  0  0  0  0
 42 45  1  0  0  0  0
 42 46  1  0  0  0  0
 42 47  1  0  0  0  0
 11 14  1  0  0  0  0
 11 15  1  0  0  0  0
 11 16  1  0  0  0  0
 49 51  1  0  0  0  0
 49 52  1  0  0  0  0
 49 53  1  0  0  0  0
 21 31  1  0  0  0  0
 21 32  1  0  0  0  0
 39 44  1  0  0  0  0
  8 13  1  0  0  0  0
 18 30  1  0  0  0  0
 48 50  1  0  0  0  0
  7 12  1  0  0  0  0
 38 43  1  0  0  0  0
 17 29  1  0  0  0  0
 28 37  1  0  0  0  0
M  END
$$$$

  -OEChem-05262214473D

 53 53  0     1  0  0  0  0  0999 V2000
   -1.9298    0.2574    3.9747 C   0  0  0  0  0  0  0  0  0  0  0  0
   -0.9825   -0.3573    3.4990 O   0  0  0  0  0  0  0  0  0  0  0  0
   -2.3617   -0.0250    5.3754 C   0  0  0  0  0  0  0  0  0  0  0  0
   -3.1214   -0.8213    5.4288 H   0  0  0  0  0  0  0  0  0  0  0  0
   -1.5305   -0.3726    6.0097 H   0  0  0  0  0  0  0  0  0  0  0  0
   -2.7997    0.8299    5.9150 H   0  0  0  0  0  0  0  0  0  0  0  0
   -2.6795    1.2298    3.3336 N   0  0  0  0  0  0  0  0  0  0  0  0
   -2.4327    1.6559    1.9812 C   0  0  2  0  0  0  0  0  0  0  0  0
   -1.0977    1.0705    1.5400 C   0  0  0  0  0  0  0  0  0  0  0  0
   -0.2256    0.7177    2.3313 O   0  0  0  0  0  0  0  0  0  0  0  0
   -2.4239    3.1726    1.8718 C   0  0  0  0  0  0  0  0  0  0  0  0
   -3.4446    1.6657    3.8454 H   0  0  0  0  0  0  0  0  0  0  0  0
   -3.2368    1.2374    1.3661 H   0  0  0  0  0  0  0  0  0  0  0  0
   -1.6248    3.6099    2.4815 H   0  0  0  0  0  0  0  0  0  0  0  0
   -2.2644    3.4949    0.8375 H   0  0  0  0  0  0  0  0  0  0  0  0
   -3.3741    3.5939    2.2175 H   0  0  0  0  0  0  0  0  0  0  0  0
   -0.9750    1.0274    0.1566 N   0  0  0  0  0  0  0  0  0  0  0  0
    0.2023    0.5266   -0.5070 C   0  0  2  0  0  0  0  0  0  0  0  0
   -0.2690   -0.3840   -1.6353 C   0  0  0  0  0  0  0  0  0  0  0  0
   -0.0022   -1.5829   -1.6832 O   0  0  0  0  0  0  0  0  0  0  0  0
    1.1229   -0.2414    0.4483 C   0  0  0  0  0  0  0  0  0  0  0  0
    1.7457    0.6462    1.4982 C   0  0  0  0  0  0  0  0  0  0  0  0
    2.8681    1.4135    1.1865 C   0  0  0  0  0  0  0  0  0  0  0  0
    1.1991    0.6986    2.7804 C   0  0  0  0  0  0  0  0  0  0  0  0
    3.4439    2.2333    2.1570 C   0  0  0  0  0  0  0  0  0  0  0  0
    1.7749    1.5184    3.7510 C   0  0  0  0  0  0  0  0  0  0  0  0
    2.8973    2.2857    3.4393 C   0  0  0  0  0  0  0  0  0  0  0  0
    3.4601    3.0848    4.3866 O   0  0  0  0  0  0  0  0  0  0  0  0
   -1.7582    1.3241   -0.4207 H   0  0  0  0  0  0  0  0  0  0  0  0
    0.7122    1.3966   -0.9372 H   0  0  0  0  0  0  0  0  0  0  0  0
    1.9125   -0.7561   -0.1159 H   0  0  0  0  0  0  0  0  0  0  0  0
    0.5669   -1.0391    0.9584 H   0  0  0  0  0  0  0  0  0  0  0  0
    3.3005    1.3788    0.1901 H   0  0  0  0  0  0  0  0  0  0  0  0
    0.3246    0.1043    3.0322 H   0  0  0  0  0  0  0  0  0  0  0  0
    4.3185    2.8285    1.9082 H   0  0  0  0  0  0  0  0  0  0  0  0
    1.3448    1.5546    4.7479 H   0  0  0  0  0  0  0  0  0  0  0  0
    2.9701    3.0133    5.2212 H   0  0  0  0  0  0  0  0  0  0  0  0
   -1.0624    0.2922   -2.5517 N   0  0  0  0  0  0  0  0  0  0  0  0
   -1.6582   -0.3419   -3.7057 C   0  0  2  0  0  0  0  0  0  0  0  0
   -0.5661   -1.1140   -4.4343 C   0  0  0  0  0  0  0  0  0  0  0  0
    0.6298   -0.8532   -4.3204 O   0  0  0  0  0  0  0  0  0  0  0  0
   -2.3070    0.6806   -4.6256 C   0  0  0  0  0  0  0  0  0  0  0  0
   -1.2328    1.2826   -2.4039 H   0  0  0  0  0  0  0  0  0  0  0  0
   -2.4114   -1.0420   -3.3282 H   0  0  0  0  0  0  0  0  0  0  0  0
   -1.5677    1.3907   -5.0137 H   0  0  0  0  0  0  0  0  0  0  0  0
   -2.7826    0.1960   -5.4846 H   0  0  0  0  0  0  0  0  0  0  0  0
   -3.0716    1.2553   -4.0917 H   0  0  0  0  0  0  0  0  0  0  0  0
   -1.0867   -2.1006   -5.2600 N   0  0  0  0  0  0  0  0  0  0  0  0
   -0.2537   -2.9612   -6.0671 C   0  0  0  0  0  0  0  0  0  0  0  0
   -2.0898   -2.2593   -5.2778 H   0  0  0  0  0  0  0  0  0  0  0  0
   -0.1321   -2.5212   -7.0679 H   0  0  0  0  0  0  0  0  0  0  0  0
    0.7323   -3.0682   -5.5914 H   0  0  0  0  0  0  0  0  0  0  0  0
   -0.7268   -3.9503   -6.1566 H   0  0  0  0  0  0  0  0  0  0  0  0
 23 25  2  0  0  0  0
 22 23  1  0  0  0  0
 24 26  1  0  0  0  0
 22 24  2  0  0  0  0
 25 27  1  0  0  0  0
 26 27  2  0  0  0  0
 21 22  1  0  0  0  0
 27 28  1  0  0  0  0
  1  3  1  0  0  0  0
  1  7  1  0  0  0  0
  1  2  2  0  0  0  0
 39 40  1  0  0  0  0
 40 48  1  0  0  0  0
 40 41  2  0  0  0  0
  8  9  1  0  0  0  0
  9 17  1  0  0  0  0
  9 10  2  0  0  0  0
 18 19  1  0  0  0  0
 19 38  1  0  0  0  0
 19 20  2  0  0  0  0
 39 42  1  0  0  0  0
  8 11  1  0  0  0  0
 48 49  1  0  0  0  0
 18 21  1  0  0  0  0
 38 39  1  0  0  0  0
  7  8  1  0  0  0  0
 17 18  1  0  0  0  0
 23 33  1  0  0  0  0
 24 34  1  0  0  0  0
 25 35  1  0  0  0  0
 26 36  1  0  0  0  0
  3  4  1  0  0  0  0
  3  5  1  0  0  0  0
  3  6  1  0  0  0  0
 42 45  1  0  0  0  0
 42 46  1  0  0  0  0
 42 47  1  0  0  0  0
 11 14  1  0  0  0  0
 11 15  1  0  0  0  0
 11 16  1  0  0  0  0
 49 51  1  0  0  0  0
 49 52  1  0  0  0  0
 49 53  1  0  0  0  0
 21 31  1  0  0  0  0
 21 32  1  0  0  0  0
 39 44  1  0  0  0  0
  8 13  1  0  0  0  0
 18 30  1  0  0  0  0
 48 50  1  0  0  0  0
  7 12  1  0  0  0  0
 38 43  1  0  0  0  0
 17 29  1  0  0  0  0
 28 37  1  0  0  0  0
M  END
$$$$

  -OEChem-05262214473D

 53 53  0     1  0  0  0  0  0999 V2000
   -1.9298    0.2574    3.9747 C   0  0  0  0  0  0  0  0  0  0  0  0
   -0.9825   -0.3573    3.4990 O   0  0  0  0  0  0  0  0  0  0  0  0
   -2.3617   -0.0250    5.3754 C   0  0  0  0  0  0  0  0  0  0  0  0
   -3.1214   -0.8213    5.4288 H   0  0  0  0  0  0  0  0  0  0  0  0
   -1.5305   -0.3726    6.0097 H   0  0  0  0  0  0  0  0  0  0  0  0
   -2.7997    0.8299    5.9150 H   0  0  0  0  0  0  0  0  0  0  0  0
   -2.6795    1.2298    3.3336 N   0  0  0  0  0  0  0  0  0  0  0  0
   -2.4327    1.6559    1.9812 C   0  0  2  0  0  0  0  0  0  0  0  0
   -1.0977    1.0705    1.5400 C   0  0  0  0  0  0  0  0  0  0  0  0
   -0.2256    0.7177    2.3313 O   0  0  0  0  0  0  0  0  0  0  0  0
   -2.4239    3.1726    1.8718 C   0  0  0  0  0  0  0  0  0  0  0  0
   -3.4446    1.6657    3.8454 H   0  0  0  0  0  0  0  0  0  0  0  0
   -3.2368    1.2374    1.3661 H   0  0  0  0  0  0  0  0  0  0  0  0
   -1.6248    3.6099    2.4815 H   0  0  0  0  0  0  0  0  0  0  0  0
   -2.2644    3.4949    0.8375 H   0  0  0  0  0  0  0  0  0  0  0  0
   -3.3741    3.5939    2.2175 H   0  0  0  0  0  0  0  0  0  0  0  0
   -0.9750    1.0274    0.1566 N   0  0  0  0  0  0  0  0  0  0  0  0
    0.2023    0.5266   -0.5070 C   0  0  2  0  0  0  0  0  0  0  0  0
   -0.2690   -0.3840   -1.6353 C   0  0  0  0  0  0  0  0  0  0  0  0
   -0.2406   -1.6106   -1.5613 O   0  0  0  0  0  0  0  0  0  0  0  0
    1.1229   -0.2414    0.4483 C   0  0  0  0  0  0  0  0  0  0  0  0
    1.7457    0.6462    1.4982 C   0  0  0  0  0  0  0  0  0  0  0  0
    2.8681    1.4135    1.1865 C   0  0  0  0  0  0  0  0  0  0  0  0
    1.1991    0.6986    2.7804 C   0  0  0  0  0  0  0  0  0  0  0  0
    3.4439    2.2333    2.1570 C   0  0  0  0  0  0  0  0  0  0  0  0
    1.7749    1.5184    3.7510 C   0  0  0  0  0  0  0  0  0  0  0  0
    2.8973    2.2857    3.4393 C   0  0  0  0  0  0  0  0  0  0  0  0
    3.4601    3.0848    4.3866 O   0  0  0  0  0  0  0  0  0  0  0  0
   -1.7582    1.3241   -0.4207 H   0  0  0  0  0  0  0  0  0  0  0  0
    0.7122    1.3966   -0.9372 H   0  0  0  0  0  0  0  0  0  0  0  0
    1.9125   -0.7561   -0.1159 H   0  0  0  0  0  0  0  0  0  0  0  0
    0.5669   -1.0391    0.9584 H   0  0  0  0  0  0  0  0  0  0  0  0
    3.3005    1.3788    0.1901 H   0  0  0  0  0  0  0  0  0  0  0  0
    0.3246    0.1043    3.0322 H   0  0  0  0  0  0  0  0  0  0  0  0
    4.3185    2.8285    1.9082 H   0  0  0  0  0  0  0  0  0  0  0  0
    1.3448    1.5546    4.7479 H   0  0  0  0  0  0  0  0  0  0  0  0
    2.9701    3.0133    5.2212 H   0  0  0  0  0  0  0  0  0  0  0  0
   -0.7696    0.3372   -2.7103 N   0  0  0  0  0  0  0  0  0  0  0  0
   -1.3031   -0.2823   -3.9021 C   0  0  2  0  0  0  0  0  0  0  0  0
   -0.2905   -1.3090   -4.3920 C   0  0  0  0  0  0  0  0  0  0  0  0
    0.9034   -1.2646   -4.1026 O   0  0  0  0  0  0  0  0  0  0  0  0
   -1.5946    0.7505   -4.9795 C   0  0  0  0  0  0  0  0  0  0  0  0
   -0.7606    1.3515   -2.6568 H   0  0  0  0  0  0  0  0  0  0  0  0
   -2.2270   -0.7917   -3.6072 H   0  0  0  0  0  0  0  0  0  0  0  0
   -0.6807    1.2713   -5.2878 H   0  0  0  0  0  0  0  0  0  0  0  0
   -2.0253    0.2830   -5.8712 H   0  0  0  0  0  0  0  0  0  0  0  0
   -2.3003    1.5050   -4.6154 H   0  0  0  0  0  0  0  0  0  0  0  0
   -0.8690   -2.2561   -5.2254 N   0  0  0  0  0  0  0  0  0  0  0  0
   -0.1135   -3.3289   -5.8290 C   0  0  0  0  0  0  0  0  0  0  0  0
   -1.8700   -2.2272   -5.3955 H   0  0  0  0  0  0  0  0  0  0  0  0
    0.2383   -3.0162   -6.8232 H   0  0  0  0  0  0  0  0  0  0  0  0
    0.7512   -3.5709   -5.1936 H   0  0  0  0  0  0  0  0  0  0  0  0
   -0.7546   -4.2171   -5.9297 H   0  0  0  0  0  0  0  0  0  0  0  0
 23 25  2  0  0  0  0
 22 23  1  0  0  0  0
 24 26  1  0  0  0  0
 22 24  2  0  0  0  0
 25 27  1  0  0  0  0
 26 27  2  0  0  0  0
 21 22  1  0  0  0  0
 27 28  1  0  0  0  0
  1  3  1  0  0  0  0
  1  7  1  0  0  0  0
  1  2  2  0  0  0  0
 39 40  1  0  0  0  0
 40 48  1  0  0  0  0
 40 41  2  0  0  0  0
  8  9  1  0  0  0  0
  9 17  1  0  0  0  0
  9 10  2  0  0  0  0
 18 19  1  0  0  0  0
 19 38  1  0  0  0  0
 19 20  2  0  0  0  0
 39 42  1  0  0  0  0
  8 11  1  0  0  0  0
 48 49  1  0  0  0  0
 18 21  1  0  0  0  0
 38 39  1  0  0  0  0
  7  8  1  0  0  0  0
 17 18  1  0  0  0  0
 23 33  1  0  0  0  0
 24 34  1  0  0  0  0
 25 35  1  0  0  0  0
 26 36  1  0  0  0  0
  3  4  1  0  0  0  0
  3  5  1  0  0  0  0
  3  6  1  0  0  0  0
 42 45  1  0  0  0  0
 42 46  1  0  0  0  0
 42 47  1  0  0  0  0
 11 14  1  0  0  0  0
 11 15  1  0  0  0  0
 11 16  1  0  0  0  0
 49 51  1  0  0  0  0
 49 52  1  0  0  0  0
 49 53  1  0  0  0  0
 21 31  1  0  0  0  0
 21 32  1  0  0  0  0
 39 44  1  0  0  0  0
  8 13  1  0  0  0  0
 18 30  1  0  0  0  0
 48 50  1  0  0  0  0
  7 12  1  0  0  0  0
 38 43  1  0  0  0  0
 17 29  1  0  0  0  0
 28 37  1  0  0  0  0
M  END
$$$$

  -OEChem-05262214473D

 53 53  0     1  0  0  0  0  0999 V2000
   -1.9298    0.2574    3.9747 C   0  0  0  0  0  0  0  0  0  0  0  0
   -0.9825   -0.3573    3.4990 O   0  0  0  0  0  0  0  0  0  0  0  0
   -2.3617   -0.0250    5.3754 C   0  0  0  0  0  0  0  0  0  0  0  0
   -3.1214   -0.8213    5.4288 H   0  0  0  0  0  0  0  0  0  0  0  0
   -1.5305   -0.3726    6.0097 H   0  0  0  0  0  0  0  0  0  0  0  0
   -2.7997    0.8299    5.9150 H   0  0  0  0  0  0  0  0  0  0  0  0
   -2.6795    1.2298    3.3336 N   0  0  0  0  0  0  0  0  0  0  0  0
   -2.4327    1.6559    1.9812 C   0  0  2  0  0  0  0  0  0  0  0  0
   -1.0977    1.0705    1.5400 C   0  0  0  0  0  0  0  0  0  0  0  0
   -0.2256    0.7177    2.3313 O   0  0  0  0  0  0  0  0  0  0  0  0
   -2.4239    3.1726    1.8718 C   0  0  0  0  0  0  0  0  0  0  0  0
   -3.4446    1.6657    3.8454 H   0  0  0  0  0  0  0  0  0  0  0  0
   -3.2368    1.2374    1.3661 H   0  0  0  0  0  0  0  0  0  0  0  0
   -1.6248    3.6099    2.4815 H   0  0  0  0  0  0  0  0  0  0  0  0
   -2.2644    3.4949    0.8375 H   0  0  0  0  0  0  0  0  0  0  0  0
   -3.3741    3.5939    2.2175 H   0  0  0  0  0  0  0  0  0  0  0  0
   -0.9750    1.0274    0.1566 N   0  0  0  0  0  0  0  0  0  0  0  0
    0.2023    0.5266   -0.5070 C   0  0  2  0  0  0  0  0  0  0  0  0
   -0.2690   -0.3840   -1.6353 C   0  0  0  0  0  0  0  0  0  0  0  0
   -0.4950   -1.5820   -1.4782 O   0  0  0  0  0  0  0  0  0  0  0  0
    1.1229   -0.2414    0.4483 C   0  0  0  0  0  0  0  0  0  0  0  0
    1.7457    0.6462    1.4982 C   0  0  0  0  0  0  0  0  0  0  0  0
    2.8681    1.4135    1.1865 C   0  0  0  0  0  0  0  0  0  0  0  0
    1.1991    0.6986    2.7804 C   0  0  0  0  0  0  0  0  0  0  0  0
    3.4439    2.2333    2.1570 C   0  0  0  0  0  0  0  0  0  0  0  0
    1.7749    1.5184    3.7510 C   0  0  0  0  0  0  0  0  0  0  0  0
    2.8973    2.2857    3.4393 C   0  0  0  0  0  0  0  0  0  0  0  0
    3.4601    3.0848    4.3866 O   0  0  0  0  0  0  0  0  0  0  0  0
   -1.7582    1.3241   -0.4207 H   0  0  0  0  0  0  0  0  0  0  0  0
    0.7122    1.3966   -0.9372 H   0  0  0  0  0  0  0  0  0  0  0  0
    1.9125   -0.7561   -0.1159 H   0  0  0  0  0  0  0  0  0  0  0  0
    0.5669   -1.0391    0.9584 H   0  0  0  0  0  0  0  0  0  0  0  0
    3.3005    1.3788    0.1901 H   0  0  0  0  0  0  0  0  0  0  0  0
    0.3246    0.1043    3.0322 H   0  0  0  0  0  0  0  0  0  0  0  0
    4.3185    2.8285    1.9082 H   0  0  0  0  0  0  0  0  0  0  0  0
    1.3448    1.5546    4.7479 H   0  0  0  0  0  0  0  0  0  0  0  0
    2.9701    3.0133    5.2212 H   0  0  0  0  0  0  0  0  0  0  0  0
   -0.4537    0.3120   -2.8219 N   0  0  0  0  0  0  0  0  0  0  0  0
   -0.9184   -0.3085   -4.0417 C   0  0  2  0  0  0  0  0  0  0  0  0
   -0.0682   -1.5468   -4.2929 C   0  0  0  0  0  0  0  0  0  0  0  0
    1.0552   -1.6971   -3.8170 O   0  0  0  0  0  0  0  0  0  0  0  0
   -0.8384    0.6533   -5.2169 C   0  0  0  0  0  0  0  0  0  0  0  0
   -0.2521    1.3075   -2.8336 H   0  0  0  0  0  0  0  0  0  0  0  0
   -1.9579   -0.6075   -3.8683 H   0  0  0  0  0  0  0  0  0  0  0  0
    0.1956    0.9640   -5.4058 H   0  0  0  0  0  0  0  0  0  0  0  0
   -1.2174    0.1911   -6.1344 H   0  0  0  0  0  0  0  0  0  0  0  0
   -1.4265    1.5566   -5.0220 H   0  0  0  0  0  0  0  0  0  0  0  0
   -0.6938   -2.4452   -5.1459 N   0  0  0  0  0  0  0  0  0  0  0  0
   -0.0853   -3.6918   -5.5478 C   0  0  0  0  0  0  0  0  0  0  0  0
   -1.6333   -2.2477   -5.4779 H   0  0  0  0  0  0  0  0  0  0  0  0
    0.4635   -3.5456   -6.4899 H   0  0  0  0  0  0  0  0  0  0  0  0
    0.6116   -4.0283   -4.7661 H   0  0  0  0  0  0  0  0  0  0  0  0
   -0.8675   -4.4514   -5.6934 H   0  0  0  0  0  0  0  0  0  0  0  0
 23 25  2  0  0  0  0
 22 23  1  0  0  0  0
 24 26  1  0  0  0  0
 22 24  2  0  0  0  0
 25 27  1  0  0  0  0
 26 27  2  0  0  0  0
 21 22  1  0  0  0  0
 27 28  1  0  0  0  0
  1  3  1  0  0  0  0
  1  7  1  0  0  0  0
  1  2  2  0  0  0  0
 39 40  1  0  0  0  0
 40 48  1  0  0  0  0
 40 41  2  0  0  0  0
  8  9  1  0  0  0  0
  9 17  1  0  0  0  0
  9 10  2  0  0  0  0
 18 19  1  0  0  0  0
 19 38  1  0  0  0  0
 19 20  2  0  0  0  0
 39 42  1  0  0  0  0
  8 11  1  0  0  0  0
 48 49  1  0  0  0  0
 18 21  1  0  0  0  0
 38 39  1  0  0  0  0
  7  8  1  0  0  0  0
 17 18  1  0  0  0  0
 23 33  1  0  0  0  0
 24 34  1  0  0  0  0
 25 35  1  0  0  0  0
 26 36  1  0  0  0  0
  3  4  1  0  0  0  0
  3  5  1  0  0  0  0
  3  6  1  0  0  0  0
 42 45  1  0  0  0  0
 42 46  1  0  0  0  0
 42 47  1  0  0  0  0
 11 14  1  0  0  0  0
 11 15  1  0  0  0  0
 11 16  1  0  0  0  0
 49 51  1  0  0  0  0
 49 52  1  0  0  0  0
 49 53  1  0  0  0  0
 21 31  1  0  0  0  0
 21 32  1  0  0  0  0
 39 44  1  0  0  0  0
  8 13  1  0  0  0  0
 18 30  1  0  0  0  0
 48 50  1  0  0  0  0
  7 12  1  0  0  0  0
 38 43  1  0  0  0  0
 17 29  1  0  0  0  0
 28 37  1  0  0  0  0
M  END
$$$$

  -OEChem-05262214473D

 53 53  0     1  0  0  0  0  0999 V2000
   -1.9298    0.2574    3.9747 C   0  0  0  0  0  0  0  0  0  0  0  0
   -0.9825   -0.3573    3.4990 O   0  0  0  0  0  0  0  0  0  0  0  0
   -2.3617   -0.0250    5.3754 C   0  0  0  0  0  0  0  0  0  0  0  0
   -3.1214   -0.8213    5.4288 H   0  0  0  0  0  0  0  0  0  0  0  0
   -1.5305   -0.3726    6.0097 H   0  0  0  0  0  0  0  0  0  0  0  0
   -2.7997    0.8299    5.9150 H   0  0  0  0  0  0  0  0  0  0  0  0
   -2.6795    1.2298    3.3336 N   0  0  0  0  0  0  0  0  0  0  0  0
   -2.4327    1.6559    1.9812 C   0  0  2  0  0  0  0  0  0  0  0  0
   -1.0977    1.0705    1.5400 C   0  0  0  0  0  0  0  0  0  0  0  0
   -0.2256    0.7177    2.3313 O   0  0  0  0  0  0  0  0  0  0  0  0
   -2.4239    3.1726    1.8718 C   0  0  0  0  0  0  0  0  0  0  0  0
   -3.4446    1.6657    3.8454 H   0  0  0  0  0  0  0  0  0  0  0  0
   -3.2368    1.2374    1.3661 H   0  0  0  0  0  0  0  0  0  0  0  0
   -1.6248    3.6099    2.4815 H   0  0  0  0  0  0  0  0  0  0  0  0
   -2.2644    3.4949    0.8375 H   0  0  0  0  0  0  0  0  0  0  0  0
   -3.3741    3.5939    2.2175 H   0  0  0  0  0  0  0  0  0  0  0  0
   -0.9750    1.0274    0.1566 N   0  0  0  0  0  0  0  0  0  0  0  0
    0.2023    0.5266   -0.5070 C   0  0  2  0  0  0  0  0  0  0  0  0
   -0.2690   -0.3840   -1.6353 C   0  0  0  0  0  0  0  0  0  0  0  0
   -0.7481   -1.4989   -1.4395 O   0  0  0  0  0  0  0  0  0  0  0  0
    1.1229   -0.2414    0.4483 C   0  0  0  0  0  0  0  0  0  0  0  0
    1.7457    0.6462    1.4982 C   0  0  0  0  0  0  0  0  0  0  0  0
    2.8681    1.4135    1.1865 C   0  0  0  0  0  0  0  0  0  0  0  0
    1.1991    0.6986    2.7804 C   0  0  0  0  0  0  0  0  0  0  0  0
    3.4439    2.2333    2.1570 C   0  0  0  0  0  0  0  0  0  0  0  0
    1.7749    1.5184    3.7510 C   0  0  0  0  0  0  0  0  0  0  0  0
    2.8973    2.2857    3.4393 C   0  0  0  0  0  0  0  0  0  0  0  0
    3.4601    3.0848    4.3866 O   0  0  0  0  0  0  0  0  0  0  0  0
   -1.7582    1.3241   -0.4207 H   0  0  0  0  0  0  0  0  0  0  0  0
    0.7122    1.3966   -0.9372 H   0  0  0  0  0  0  0  0  0  0  0  0
    1.9125   -0.7561   -0.1159 H   0  0  0  0  0  0  0  0  0  0  0  0
    0.5669   -1.0391    0.9584 H   0  0  0  0  0  0  0  0  0  0  0  0
    3.3005    1.3788    0.1901 H   0  0  0  0  0  0  0  0  0  0  0  0
    0.3246    0.1043    3.0322 H   0  0  0  0  0  0  0  0  0  0  0  0
    4.3185    2.8285    1.9082 H   0  0  0  0  0  0  0  0  0  0  0  0
    1.3448    1.5546    4.7479 H   0  0  0  0  0  0  0  0  0  0  0  0
    2.9701    3.0133    5.2212 H   0  0  0  0  0  0  0  0  0  0  0  0
   -0.1361    0.2181   -2.8788 N   0  0  0  0  0  0  0  0  0  0  0  0
   -0.5302   -0.4186   -4.1149 C   0  0  2  0  0  0  0  0  0  0  0  0
    0.0857   -1.8112   -4.1438 C   0  0  0  0  0  0  0  0  0  0  0  0
    1.0749   -2.1210   -3.4830 O   0  0  0  0  0  0  0  0  0  0  0  0
   -0.0899    0.3956   -5.3216 C   0  0  0  0  0  0  0  0  0  0  0  0
    0.2579    1.1533   -2.9222 H   0  0  0  0  0  0  0  0  0  0  0  0
   -1.6222   -0.5020   -4.0936 H   0  0  0  0  0  0  0  0  0  0  0  0
    1.0015    0.4900   -5.3598 H   0  0  0  0  0  0  0  0  0  0  0  0
   -0.4140   -0.0735   -6.2564 H   0  0  0  0  0  0  0  0  0  0  0  0
   -0.5098    1.4065   -5.2838 H   0  0  0  0  0  0  0  0  0  0  0  0
   -0.5732   -2.6550   -5.0270 N   0  0  0  0  0  0  0  0  0  0  0  0
   -0.1710   -4.0253   -5.2429 C   0  0  0  0  0  0  0  0  0  0  0  0
   -1.3959   -2.3194   -5.5191 H   0  0  0  0  0  0  0  0  0  0  0  0
    0.5281   -4.0735   -6.0908 H   0  0  0  0  0  0  0  0  0  0  0  0
    0.3230   -4.4092   -4.3382 H   0  0  0  0  0  0  0  0  0  0  0  0
   -1.0581   -4.6371   -5.4639 H   0  0  0  0  0  0  0  0  0  0  0  0
 23 25  2  0  0  0  0
 22 23  1  0  0  0  0
 24 26  1  0  0  0  0
 22 24  2  0  0  0  0
 25 27  1  0  0  0  0
 26 27  2  0  0  0  0
 21 22  1  0  0  0  0
 27 28  1  0  0  0  0
  1  3  1  0  0  0  0
  1  7  1  0  0  0  0
  1  2  2  0  0  0  0
 39 40  1  0  0  0  0
 40 48  1  0  0  0  0
 40 41  2  0  0  0  0
  8  9  1  0  0  0  0
  9 17  1  0  0  0  0
  9 10  2  0  0  0  0
 18 19  1  0  0  0  0
 19 38  1  0  0  0  0
 19 20  2  0  0  0  0
 39 42  1  0  0  0  0
  8 11  1  0  0  0  0
 48 49  1  0  0  0  0
 18 21  1  0  0  0  0
 38 39  1  0  0  0  0
  7  8  1  0  0  0  0
 17 18  1  0  0  0  0
 23 33  1  0  0  0  0
 24 34  1  0  0  0  0
 25 35  1  0  0  0  0
 26 36  1  0  0  0  0
  3  4  1  0  0  0  0
  3  5  1  0  0  0  0
  3  6  1  0  0  0  0
 42 45  1  0  0  0  0
 42 46  1  0  0  0  0
 42 47  1  0  0  0  0
 11 14  1  0  0  0  0
 11 15  1  0  0  0  0
 11 16  1  0  0  0  0
 49 51  1  0  0  0  0
 49 52  1  0  0  0  0
 49 53  1  0  0  0  0
 21 31  1  0  0  0  0
 21 32  1  0  0  0  0
 39 44  1  0  0  0  0
  8 13  1  0  0  0  0
 18 30  1  0  0  0  0
 48 50  1  0  0  0  0
  7 12  1  0  0  0  0
 38 43  1  0  0  0  0
 17 29  1  0  0  0  0
 28 37  1  0  0  0  0
M  END
$$$$

  -OEChem-05262214473D

 53 53  0     1  0  0  0  0  0999 V2000
   -1.9298    0.2574    3.9747 C   0  0  0  0  0  0  0  0  0  0  0  0
   -0.9825   -0.3573    3.4990 O   0  0  0  0  0  0  0  0  0  0  0  0
   -2.3617   -0.0250    5.3754 C   0  0  0  0  0  0  0  0  0  0  0  0
   -3.1214   -0.8213    5.4288 H   0  0  0  0  0  0  0  0  0  0  0  0
   -1.5305   -0.3726    6.0097 H   0  0  0  0  0  0  0  0  0  0  0  0
   -2.7997    0.8299    5.9150 H   0  0  0  0  0  0  0  0  0  0  0  0
   -2.6795    1.2298    3.3336 N   0  0  0  0  0  0  0  0  0  0  0  0
   -2.4327    1.6559    1.9812 C   0  0  2  0  0  0  0  0  0  0  0  0
   -1.0977    1.0705    1.5400 C   0  0  0  0  0  0  0  0  0  0  0  0
   -0.2256    0.7177    2.3313 O   0  0  0  0  0  0  0  0  0  0  0  0
   -2.4239    3.1726    1.8718 C   0  0  0  0  0  0  0  0  0  0  0  0
   -3.4446    1.6657    3.8454 H   0  0  0  0  0  0  0  0  0  0  0  0
   -3.2368    1.2374    1.3661 H   0  0  0  0  0  0  0  0  0  0  0  0
   -1.6248    3.6099    2.4815 H   0  0  0  0  0  0  0  0  0  0  0  0
   -2.2644    3.4949    0.8375 H   0  0  0  0  0  0  0  0  0  0  0  0
   -3.3741    3.5939    2.2175 H   0  0  0  0  0  0  0  0  0  0  0  0
   -0.9750    1.0274    0.1566 N   0  0  0  0  0  0  0  0  0  0  0  0
    0.2023    0.5266   -0.5070 C   0  0  2  0  0  0  0  0  0  0  0  0
   -0.2690   -0.3840   -1.6353 C   0  0  0  0  0  0  0  0  0  0  0  0
   -0.9826   -1.3671   -1.4479 O   0  0  0  0  0  0  0  0  0  0  0  0
    1.1229   -0.2414    0.4483 C   0  0  0  0  0  0  0  0  0  0  0  0
    1.7457    0.6462    1.4982 C   0  0  0  0  0  0  0  0  0  0  0  0
    2.8681    1.4135    1.1865 C   0  0  0  0  0  0  0  0  0  0  0  0
    1.1991    0.6986    2.7804 C   0  0  0  0  0  0  0  0  0  0  0  0
    3.4439    2.2333    2.1570 C   0  0  0  0  0  0  0  0  0  0  0  0
    1.7749    1.5184    3.7510 C   0  0  0  0  0  0  0  0  0  0  0  0
    2.8973    2.2857    3.4393 C   0  0  0  0  0  0  0  0  0  0  0  0
    3.4601    3.0848    4.3866 O   0  0  0  0  0  0  0  0  0  0  0  0
   -1.7582    1.3241   -0.4207 H   0  0  0  0  0  0  0  0  0  0  0  0
    0.7122    1.3966   -0.9372 H   0  0  0  0  0  0  0  0  0  0  0  0
    1.9125   -0.7561   -0.1159 H   0  0  0  0  0  0  0  0  0  0  0  0
    0.5669   -1.0391    0.9584 H   0  0  0  0  0  0  0  0  0  0  0  0
    3.3005    1.3788    0.1901 H   0  0  0  0  0  0  0  0  0  0  0  0
    0.3246    0.1043    3.0322 H   0  0  0  0  0  0  0  0  0  0  0  0
    4.3185    2.8285    1.9082 H   0  0  0  0  0  0  0  0  0  0  0  0
    1.3448    1.5546    4.7479 H   0  0  0  0  0  0  0  0  0  0  0  0
    2.9701    3.0133    5.2212 H   0  0  0  0  0  0  0  0  0  0  0  0
    0.1614    0.0621   -2.8771 N   0  0  0  0  0  0  0  0  0  0  0  0
   -0.1650   -0.6052   -4.1169 C   0  0  2  0  0  0  0  0  0  0  0  0
    0.1607   -2.0841   -3.9549 C   0  0  0  0  0  0  0  0  0  0  0  0
    0.9611   -2.5076   -3.1235 O   0  0  0  0  0  0  0  0  0  0  0  0
    0.5999   -0.0051   -5.2863 C   0  0  0  0  0  0  0  0  0  0  0  0
    0.7347    0.8997   -2.9166 H   0  0  0  0  0  0  0  0  0  0  0  0
   -1.2430   -0.4824   -4.2678 H   0  0  0  0  0  0  0  0  0  0  0  0
    1.6820   -0.1186   -5.1529 H   0  0  0  0  0  0  0  0  0  0  0  0
    0.3302   -0.4928   -6.2289 H   0  0  0  0  0  0  0  0  0  0  0  0
    0.3875    1.0651   -5.3830 H   0  0  0  0  0  0  0  0  0  0  0  0
   -0.5152   -2.8713   -4.8766 N   0  0  0  0  0  0  0  0  0  0  0  0
   -0.3648   -4.3066   -4.9349 C   0  0  0  0  0  0  0  0  0  0  0  0
   -1.1739   -2.4374   -5.5166 H   0  0  0  0  0  0  0  0  0  0  0  0
    0.4276   -4.5639   -5.6531 H   0  0  0  0  0  0  0  0  0  0  0  0
   -0.0948   -4.6876   -3.9390 H   0  0  0  0  0  0  0  0  0  0  0  0
   -1.3131   -4.7617   -5.2568 H   0  0  0  0  0  0  0  0  0  0  0  0
 23 25  2  0  0  0  0
 22 23  1  0  0  0  0
 24 26  1  0  0  0  0
 22 24  2  0  0  0  0
 25 27  1  0  0  0  0
 26 27  2  0  0  0  0
 21 22  1  0  0  0  0
 27 28  1  0  0  0  0
  1  3  1  0  0  0  0
  1  7  1  0  0  0  0
  1  2  2  0  0  0  0
 39 40  1  0  0  0  0
 40 48  1  0  0  0  0
 40 41  2  0  0  0  0
  8  9  1  0  0  0  0
  9 17  1  0  0  0  0
  9 10  2  0  0  0  0
 18 19  1  0  0  0  0
 19 38  1  0  0  0  0
 19 20  2  0  0  0  0
 39 42  1  0  0  0  0
  8 11  1  0  0  0  0
 48 49  1  0  0  0  0
 18 21  1  0  0  0  0
 38 39  1  0  0  0  0
  7  8  1  0  0  0  0
 17 18  1  0  0  0  0
 23 33  1  0  0  0  0
 24 34  1  0  0  0  0
 25 35  1  0  0  0  0
 26 36  1  0  0  0  0
  3  4  1  0  0  0  0
  3  5  1  0  0  0  0
  3  6  1  0  0  0  0
 42 45  1  0  0  0  0
 42 46  1  0  0  0  0
 42 47  1  0  0  0  0
 11 14  1  0  0  0  0
 11 15  1  0  0  0  0
 11 16  1  0  0  0  0
 49 51  1  0  0  0  0
 49 52  1  0  0  0  0
 49 53  1  0  0  0  0
 21 31  1  0  0  0  0
 21 32  1  0  0  0  0
 39 44  1  0  0  0  0
  8 13  1  0  0  0  0
 18 30  1  0  0  0  0
 48 50  1  0  0  0  0
  7 12  1  0  0  0  0
 38 43  1  0  0  0  0
 17 29  1  0  0  0  0
 28 37  1  0  0  0  0
M  END
$$$$

  -OEChem-05262214473D

 53 53  0     1  0  0  0  0  0999 V2000
   -1.9298    0.2574    3.9747 C   0  0  0  0  0  0  0  0  0  0  0  0
   -0.9825   -0.3573    3.4990 O   0  0  0  0  0  0  0  0  0  0  0  0
   -2.3617   -0.0250    5.3754 C   0  0  0  0  0  0  0  0  0  0  0  0
   -3.1214   -0.8213    5.4288 H   0  0  0  0  0  0  0  0  0  0  0  0
   -1.5305   -0.3726    6.0097 H   0  0  0  0  0  0  0  0  0  0  0  0
   -2.7997    0.8299    5.9150 H   0  0  0  0  0  0  0  0  0  0  0  0
   -2.6795    1.2298    3.3336 N   0  0  0  0  0  0  0  0  0  0  0  0
   -2.4327    1.6559    1.9812 C   0  0  2  0  0  0  0  0  0  0  0  0
   -1.0977    1.0705    1.5400 C   0  0  0  0  0  0  0  0  0  0  0  0
   -0.2256    0.7177    2.3313 O   0  0  0  0  0  0  0  0  0  0  0  0
   -2.4239    3.1726    1.8718 C   0  0  0  0  0  0  0  0  0  0  0  0
   -3.4446    1.6657    3.8454 H   0  0  0  0  0  0  0  0  0  0  0  0
   -3.2368    1.2374    1.3661 H   0  0  0  0  0  0  0  0  0  0  0  0
   -1.6248    3.6099    2.4815 H   0  0  0  0  0  0  0  0  0  0  0  0
   -2.2644    3.4949    0.8375 H   0  0  0  0  0  0  0  0  0  0  0  0
   -3.3741    3.5939    2.2175 H   0  0  0  0  0  0  0  0  0  0  0  0
   -0.9750    1.0274    0.1566 N   0  0  0  0  0  0  0  0  0  0  0  0
    0.2023    0.5266   -0.5070 C   0  0  2  0  0  0  0  0  0  0  0  0
   -0.2690   -0.3840   -1.6353 C   0  0  0  0  0  0  0  0  0  0  0  0
   -1.1826   -1.1955   -1.5028 O   0  0  0  0  0  0  0  0  0  0  0  0
    1.1229   -0.2414    0.4483 C   0  0  0  0  0  0  0  0  0  0  0  0
    1.7457    0.6462    1.4982 C   0  0  0  0  0  0  0  0  0  0  0  0
    2.8681    1.4135    1.1865 C   0  0  0  0  0  0  0  0  0  0  0  0
    1.1991    0.6986    2.7804 C   0  0  0  0  0  0  0  0  0  0  0  0
    3.4439    2.2333    2.1570 C   0  0  0  0  0  0  0  0  0  0  0  0
    1.7749    1.5184    3.7510 C   0  0  0  0  0  0  0  0  0  0  0  0
    2.8973    2.2857    3.4393 C   0  0  0  0  0  0  0  0  0  0  0  0
    3.4601    3.0848    4.3866 O   0  0  0  0  0  0  0  0  0  0  0  0
   -1.7582    1.3241   -0.4207 H   0  0  0  0  0  0  0  0  0  0  0  0
    0.7122    1.3966   -0.9372 H   0  0  0  0  0  0  0  0  0  0  0  0
    1.9125   -0.7561   -0.1159 H   0  0  0  0  0  0  0  0  0  0  0  0
    0.5669   -1.0391    0.9584 H   0  0  0  0  0  0  0  0  0  0  0  0
    3.3005    1.3788    0.1901 H   0  0  0  0  0  0  0  0  0  0  0  0
    0.3246    0.1043    3.0322 H   0  0  0  0  0  0  0  0  0  0  0  0
    4.3185    2.8285    1.9082 H   0  0  0  0  0  0  0  0  0  0  0  0
    1.3448    1.5546    4.7479 H   0  0  0  0  0  0  0  0  0  0  0  0
    2.9701    3.0133    5.2212 H   0  0  0  0  0  0  0  0  0  0  0  0
    0.4187   -0.1455   -2.8171 N   0  0  0  0  0  0  0  0  0  0  0  0
    0.1523   -0.8555   -4.0474 C   0  0  2  0  0  0  0  0  0  0  0  0
    0.1516   -2.3469   -3.7389 C   0  0  0  0  0  0  0  0  0  0  0  0
    0.7215   -2.8304   -2.7629 O   0  0  0  0  0  0  0  0  0  0  0  0
    1.1841   -0.5215   -5.1135 C   0  0  0  0  0  0  0  0  0  0  0  0
    1.1458    0.5638   -2.8173 H   0  0  0  0  0  0  0  0  0  0  0  0
   -0.8460   -0.5501   -4.3790 H   0  0  0  0  0  0  0  0  0  0  0  0
    2.1907   -0.8203   -4.7991 H   0  0  0  0  0  0  0  0  0  0  0  0
    0.9646   -1.0381   -6.0537 H   0  0  0  0  0  0  0  0  0  0  0  0
    1.2040    0.5554   -5.3127 H   0  0  0  0  0  0  0  0  0  0  0  0
   -0.5239   -3.0793   -4.7051 N   0  0  0  0  0  0  0  0  0  0  0  0
   -0.6536   -4.5166   -4.6449 C   0  0  0  0  0  0  0  0  0  0  0  0
   -0.9825   -2.5937   -5.4704 H   0  0  0  0  0  0  0  0  0  0  0  0
    0.1690   -4.9833   -5.2066 H   0  0  0  0  0  0  0  0  0  0  0  0
   -0.6134   -4.8446   -3.5957 H   0  0  0  0  0  0  0  0  0  0  0  0
   -1.6154   -4.8166   -5.0863 H   0  0  0  0  0  0  0  0  0  0  0  0
 23 25  2  0  0  0  0
 22 23  1  0  0  0  0
 24 26  1  0  0  0  0
 22 24  2  0  0  0  0
 25 27  1  0  0  0  0
 26 27  2  0  0  0  0
 21 22  1  0  0  0  0
 27 28  1  0  0  0  0
  1  3  1  0  0  0  0
  1  7  1  0  0  0  0
  1  2  2  0  0  0  0
 39 40  1  0  0  0  0
 40 48  1  0  0  0  0
 40 41  2  0  0  0  0
  8  9  1  0  0  0  0
  9 17  1  0  0  0  0
  9 10  2  0  0  0  0
 18 19  1  0  0  0  0
 19 38  1  0  0  0  0
 19 20  2  0  0  0  0
 39 42  1  0  0  0  0
  8 11  1  0  0  0  0
 48 49  1  0  0  0  0
 18 21  1  0  0  0  0
 38 39  1  0  0  0  0
  7  8  1  0  0  0  0
 17 18  1  0  0  0  0
 23 33  1  0  0  0  0
 24 34  1  0  0  0  0
 25 35  1  0  0  0  0
 26 36  1  0  0  0  0
  3  4  1  0  0  0  0
  3  5  1  0  0  0  0
  3  6  1  0  0  0  0
 42 45  1  0  0  0  0
 42 46  1  0  0  0  0
 42 47  1  0  0  0  0
 11 14  1  0  0  0  0
 11 15  1  0  0  0  0
 11 16  1  0  0  0  0
 49 51  1  0  0  0  0
 49 52  1  0  0  0  0
 49 53  1  0  0  0  0
 21 31  1  0  0  0  0
 21 32  1  0  0  0  0
 39 44  1  0  0  0  0
  8 13  1  0  0  0  0
 18 30  1  0  0  0  0
 48 50  1  0  0  0  0
  7 12  1  0  0  0  0
 38 43  1  0  0  0  0
 17 29  1  0  0  0  0
 28 37  1  0  0  0  0
M  END
$$$$

  -OEChem-05262214473D

 53 53  0     1  0  0  0  0  0999 V2000
   -1.9298    0.2574    3.9747 C   0  0  0  0  0  0  0  0  0  0  0  0
   -0.9825   -0.3573    3.4990 O   0  0  0  0  0  0  0  0  0  0  0  0
   -2.3617   -0.0250    5.3754 C   0  0  0  0  0  0  0  0  0  0  0  0
   -3.1214   -0.8213    5.4288 H   0  0  0  0  0  0  0  0  0  0  0  0
   -1.5305   -0.3726    6.0097 H   0  0  0  0  0  0  0  0  0  0  0  0
   -2.7997    0.8299    5.9150 H   0  0  0  0  0  0  0  0  0  0  0  0
   -2.6795    1.2298    3.3336 N   0  0  0  0  0  0  0  0  0  0  0  0
   -2.4327    1.6559    1.9812 C   0  0  2  0  0  0  0  0  0  0  0  0
   -1.0977    1.0705    1.5400 C   0  0  0  0  0  0  0  0  0  0  0  0
   -0.2256    0.7177    2.3313 O   0  0  0  0  0  0  0  0  0  0  0  0
   -2.4239    3.1726    1.8718 C   0  0  0  0  0  0  0  0  0  0  0  0
   -3.4446    1.6657    3.8454 H   0  0  0  0  0  0  0  0  0  0  0  0
   -3.2368    1.2374    1.3661 H   0  0  0  0  0  0  0  0  0  0  0  0
   -1.6248    3.6099    2.4815 H   0  0  0  0  0  0  0  0  0  0  0  0
   -2.2644    3.4949    0.8375 H   0  0  0  0  0  0  0  0  0  0  0  0
   -3.3741    3.5939    2.2175 H   0  0  0  0  0  0  0  0  0  0  0  0
   -0.9750    1.0274    0.1566 N   0  0  0  0  0  0  0  0  0  0  0  0
    0.2023    0.5266   -0.5070 C   0  0  2  0  0  0  0  0  0  0  0  0
   -0.2690   -0.3840   -1.6353 C   0  0  0  0  0  0  0  0  0  0  0  0
   -1.3345   -0.9959   -1.6005 O   0  0  0  0  0  0  0  0  0  0  0  0
    1.1229   -0.2414    0.4483 C   0  0  0  0  0  0  0  0  0  0  0  0
    1.7457    0.6462    1.4982 C   0  0  0  0  0  0  0  0  0  0  0  0
    2.8681    1.4135    1.1865 C   0  0  0  0  0  0  0  0  0  0  0  0
    1.1991    0.6986    2.7804 C   0  0  0  0  0  0  0  0  0  0  0  0
    3.4439    2.2333    2.1570 C   0  0  0  0  0  0  0  0  0  0  0  0
    1.7749    1.5184    3.7510 C   0  0  0  0  0  0  0  0  0  0  0  0
    2.8973    2.2857    3.4393 C   0  0  0  0  0  0  0  0  0  0  0  0
    3.4601    3.0848    4.3866 O   0  0  0  0  0  0  0  0  0  0  0  0
   -1.7582    1.3241   -0.4207 H   0  0  0  0  0  0  0  0  0  0  0  0
    0.7122    1.3966   -0.9372 H   0  0  0  0  0  0  0  0  0  0  0  0
    1.9125   -0.7561   -0.1159 H   0  0  0  0  0  0  0  0  0  0  0  0
    0.5669   -1.0391    0.9584 H   0  0  0  0  0  0  0  0  0  0  0  0
    3.3005    1.3788    0.1901 H   0  0  0  0  0  0  0  0  0  0  0  0
    0.3246    0.1043    3.0322 H   0  0  0  0  0  0  0  0  0  0  0  0
    4.3185    2.8285    1.9082 H   0  0  0  0  0  0  0  0  0  0  0  0
    1.3448    1.5546    4.7479 H   0  0  0  0  0  0  0  0  0  0  0  0
    2.9701    3.0133    5.2212 H   0  0  0  0  0  0  0  0  0  0  0  0
    0.6182   -0.3904   -2.7027 N   0  0  0  0  0  0  0  0  0  0  0  0
    0.4001   -1.1525   -3.9112 C   0  0  2  0  0  0  0  0  0  0  0  0
    0.0591   -2.5818   -3.5107 C   0  0  0  0  0  0  0  0  0  0  0  0
    0.3725   -3.0674   -2.4259 O   0  0  0  0  0  0  0  0  0  0  0  0
    1.6227   -1.1183   -4.8151 C   0  0  0  0  0  0  0  0  0  0  0  0
    1.4632    0.1686   -2.6309 H   0  0  0  0  0  0  0  0  0  0  0  0
   -0.4583   -0.7004   -4.4197 H   0  0  0  0  0  0  0  0  0  0  0  0
    2.4930   -1.5671   -4.3226 H   0  0  0  0  0  0  0  0  0  0  0  0
    1.4458   -1.6723   -5.7429 H   0  0  0  0  0  0  0  0  0  0  0  0
    1.8843   -0.0877   -5.0779 H   0  0  0  0  0  0  0  0  0  0  0  0
   -0.5987   -3.2649   -4.5241 N   0  0  0  0  0  0  0  0  0  0  0  0
   -1.0175   -4.6408   -4.3926 C   0  0  0  0  0  0  0  0  0  0  0  0
   -0.8347   -2.7777   -5.3836 H   0  0  0  0  0  0  0  0  0  0  0  0
   -0.2301   -5.3031   -4.7818 H   0  0  0  0  0  0  0  0  0  0  0  0
   -1.1974   -4.8694   -3.3317 H   0  0  0  0  0  0  0  0  0  0  0  0
   -1.9443   -4.7981   -4.9639 H   0  0  0  0  0  0  0  0  0  0  0  0
 23 25  2  0  0  0  0
 22 23  1  0  0  0  0
 24 26  1  0  0  0  0
 22 24  2  0  0  0  0
 25 27  1  0  0  0  0
 26 27  2  0  0  0  0
 21 22  1  0  0  0  0
 27 28  1  0  0  0  0
  1  3  1  0  0  0  0
  1  7  1  0  0  0  0
  1  2  2  0  0  0  0
 39 40  1  0  0  0  0
 40 48  1  0  0  0  0
 40 41  2  0  0  0  0
  8  9  1  0  0  0  0
  9 17  1  0  0  0  0
  9 10  2  0  0  0  0
 18 19  1  0  0  0  0
 19 38  1  0  0  0  0
 19 20  2  0  0  0  0
 39 42  1  0  0  0  0
  8 11  1  0  0  0  0
 48 49  1  0  0  0  0
 18 21  1  0  0  0  0
 38 39  1  0  0  0  0
  7  8  1  0  0  0  0
 17 18  1  0  0  0  0
 23 33  1  0  0  0  0
 24 34  1  0  0  0  0
 25 35  1  0  0  0  0
 26 36  1  0  0  0  0
  3  4  1  0  0  0  0
  3  5  1  0  0  0  0
  3  6  1  0  0  0  0
 42 45  1  0  0  0  0
 42 46  1  0  0  0  0
 42 47  1  0  0  0  0
 11 14  1  0  0  0  0
 11 15  1  0  0  0  0
 11 16  1  0  0  0  0
 49 51  1  0  0  0  0
 49 52  1  0  0  0  0
 49 53  1  0  0  0  0
 21 31  1  0  0  0  0
 21 32  1  0  0  0  0
 39 44  1  0  0  0  0
  8 13  1  0  0  0  0
 18 30  1  0  0  0  0
 48 50  1  0  0  0  0
  7 12  1  0  0  0  0
 38 43  1  0  0  0  0
 17 29  1  0  0  0  0
 28 37  1  0  0  0  0
M  END
$$$$

  -OEChem-05262214473D

 53 53  0     1  0  0  0  0  0999 V2000
   -1.9298    0.2574    3.9747 C   0  0  0  0  0  0  0  0  0  0  0  0
   -0.9825   -0.3573    3.4990 O   0  0  0  0  0  0  0  0  0  0  0  0
   -2.3617   -0.0250    5.3754 C   0  0  0  0  0  0  0  0  0  0  0  0
   -3.1214   -0.8213    5.4288 H   0  0  0  0  0  0  0  0  0  0  0  0
   -1.5305   -0.3726    6.0097 H   0  0  0  0  0  0  0  0  0  0  0  0
   -2.7997    0.8299    5.9150 H   0  0  0  0  0  0  0  0  0  0  0  0
   -2.6795    1.2298    3.3336 N   0  0  0  0  0  0  0  0  0  0  0  0
   -2.4327    1.6559    1.9812 C   0  0  2  0  0  0  0  0  0  0  0  0
   -1.0977    1.0705    1.5400 C   0  0  0  0  0  0  0  0  0  0  0  0
   -0.2256    0.7177    2.3313 O   0  0  0  0  0  0  0  0  0  0  0  0
   -2.4239    3.1726    1.8718 C   0  0  0  0  0  0  0  0  0  0  0  0
   -3.4446    1.6657    3.8454 H   0  0  0  0  0  0  0  0  0  0  0  0
   -3.2368    1.2374    1.3661 H   0  0  0  0  0  0  0  0  0  0  0  0
   -1.6248    3.6099    2.4815 H   0  0  0  0  0  0  0  0  0  0  0  0
   -2.2644    3.4949    0.8375 H   0  0  0  0  0  0  0  0  0  0  0  0
   -3.3741    3.5939    2.2175 H   0  0  0  0  0  0  0  0  0  0  0  0
   -0.9750    1.0274    0.1566 N   0  0  0  0  0  0  0  0  0  0  0  0
    0.2023    0.5266   -0.5070 C   0  0  2  0  0  0  0  0  0  0  0  0
   -0.2690   -0.3840   -1.6353 C   0  0  0  0  0  0  0  0  0  0  0  0
   -1.4278   -0.7818   -1.7343 O   0  0  0  0  0  0  0  0  0  0  0  0
    1.1229   -0.2414    0.4483 C   0  0  0  0  0  0  0  0  0  0  0  0
    1.7457    0.6462    1.4982 C   0  0  0  0  0  0  0  0  0  0  0  0
    2.8681    1.4135    1.1865 C   0  0  0  0  0  0  0  0  0  0  0  0
    1.1991    0.6986    2.7804 C   0  0  0  0  0  0  0  0  0  0  0  0
    3.4439    2.2333    2.1570 C   0  0  0  0  0  0  0  0  0  0  0  0
    1.7749    1.5184    3.7510 C   0  0  0  0  0  0  0  0  0  0  0  0
    2.8973    2.2857    3.4393 C   0  0  0  0  0  0  0  0  0  0  0  0
    3.4601    3.0848    4.3866 O   0  0  0  0  0  0  0  0  0  0  0  0
   -1.7582    1.3241   -0.4207 H   0  0  0  0  0  0  0  0  0  0  0  0
    0.7122    1.3966   -0.9372 H   0  0  0  0  0  0  0  0  0  0  0  0
    1.9125   -0.7561   -0.1159 H   0  0  0  0  0  0  0  0  0  0  0  0
    0.5669   -1.0391    0.9584 H   0  0  0  0  0  0  0  0  0  0  0  0
    3.3005    1.3788    0.1901 H   0  0  0  0  0  0  0  0  0  0  0  0
    0.3246    0.1043    3.0322 H   0  0  0  0  0  0  0  0  0  0  0  0
    4.3185    2.8285    1.9082 H   0  0  0  0  0  0  0  0  0  0  0  0
    1.3448    1.5546    4.7479 H   0  0  0  0  0  0  0  0  0  0  0  0
    2.9701    3.0133    5.2212 H   0  0  0  0  0  0  0  0  0  0  0  0
    0.7462   -0.6561   -2.5418 N   0  0  0  0  0  0  0  0  0  0  0  0
    0.5616   -1.4760   -3.7175 C   0  0  2  0  0  0  0  0  0  0  0  0
   -0.1105   -2.7727   -3.2858 C   0  0  0  0  0  0  0  0  0  0  0  0
   -0.0621   -3.2026   -2.1352 O   0  0  0  0  0  0  0  0  0  0  0  0
    1.8859   -1.7549   -4.4112 C   0  0  0  0  0  0  0  0  0  0  0  0
    1.6653   -0.2591   -2.3701 H   0  0  0  0  0  0  0  0  0  0  0  0
   -0.1064   -0.9231   -4.3870 H   0  0  0  0  0  0  0  0  0  0  0  0
    2.5683   -2.3084   -3.7558 H   0  0  0  0  0  0  0  0  0  0  0  0
    1.7410   -2.3522   -5.3174 H   0  0  0  0  0  0  0  0  0  0  0  0
    2.3819   -0.8203   -4.6944 H   0  0  0  0  0  0  0  0  0  0  0  0
   -0.7344   -3.4153   -4.3461 N   0  0  0  0  0  0  0  0  0  0  0  0
   -1.4318   -4.6710   -4.1952 C   0  0  0  0  0  0  0  0  0  0  0  0
   -0.7406   -2.9768   -5.2623 H   0  0  0  0  0  0  0  0  0  0  0  0
   -0.7426   -5.5016   -4.4075 H   0  0  0  0  0  0  0  0  0  0  0  0
   -1.8072   -4.7603   -3.1651 H   0  0  0  0  0  0  0  0  0  0  0  0
   -2.2773   -4.7074   -4.8979 H   0  0  0  0  0  0  0  0  0  0  0  0
 23 25  2  0  0  0  0
 22 23  1  0  0  0  0
 24 26  1  0  0  0  0
 22 24  2  0  0  0  0
 25 27  1  0  0  0  0
 26 27  2  0  0  0  0
 21 22  1  0  0  0  0
 27 28  1  0  0  0  0
  1  3  1  0  0  0  0
  1  7  1  0  0  0  0
  1  2  2  0  0  0  0
 39 40  1  0  0  0  0
 40 48  1  0  0  0  0
 40 41  2  0  0  0  0
  8  9  1  0  0  0  0
  9 17  1  0  0  0  0
  9 10  2  0  0  0  0
 18 19  1  0  0  0  0
 19 38  1  0  0  0  0
 19 20  2  0  0  0  0
 39 42  1  0  0  0  0
  8 11  1  0  0  0  0
 48 49  1  0  0  0  0
 18 21  1  0  0  0  0
 38 39  1  0  0  0  0
  7  8  1  0  0  0  0
 17 18  1  0  0  0  0
 23 33  1  0  0  0  0
 24 34  1  0  0  0  0
 25 35  1  0  0  0  0
 26 36  1  0  0  0  0
  3  4  1  0  0  0  0
  3  5  1  0  0  0  0
  3  6  1  0  0  0  0
 42 45  1  0  0  0  0
 42 46  1  0  0  0  0
 42 47  1  0  0  0  0
 11 14  1  0  0  0  0
 11 15  1  0  0  0  0
 11 16  1  0  0  0  0
 49 51  1  0  0  0  0
 49 52  1  0  0  0  0
 49 53  1  0  0  0  0
 21 31  1  0  0  0  0
 21 32  1  0  0  0  0
 39 44  1  0  0  0  0
  8 13  1  0  0  0  0
 18 30  1  0  0  0  0
 48 50  1  0  0  0  0
  7 12  1  0  0  0  0
 38 43  1  0  0  0  0
 17 29  1  0  0  0  0
 28 37  1  0  0  0  0
M  END
$$$$

  -OEChem-05262214473D

 53 53  0     1  0  0  0  0  0999 V2000
   -1.9298    0.2574    3.9747 C   0  0  0  0  0  0  0  0  0  0  0  0
   -0.9825   -0.3573    3.4990 O   0  0  0  0  0  0  0  0  0  0  0  0
   -2.3617   -0.0250    5.3754 C   0  0  0  0  0  0  0  0  0  0  0  0
   -3.1214   -0.8213    5.4288 H   0  0  0  0  0  0  0  0  0  0  0  0
   -1.5305   -0.3726    6.0097 H   0  0  0  0  0  0  0  0  0  0  0  0
   -2.7997    0.8299    5.9150 H   0  0  0  0  0  0  0  0  0  0  0  0
   -2.6795    1.2298    3.3336 N   0  0  0  0  0  0  0  0  0  0  0  0
   -2.4327    1.6559    1.9812 C   0  0  2  0  0  0  0  0  0  0  0  0
   -1.0977    1.0705    1.5400 C   0  0  0  0  0  0  0  0  0  0  0  0
   -0.2256    0.7177    2.3313 O   0  0  0  0  0  0  0  0  0  0  0  0
   -2.4239    3.1726    1.8718 C   0  0  0  0  0  0  0  0  0  0  0  0
   -3.4446    1.6657    3.8454 H   0  0  0  0  0  0  0  0  0  0  0  0
   -3.2368    1.2374    1.3661 H   0  0  0  0  0  0  0  0  0  0  0  0
   -1.6248    3.6099    2.4815 H   0  0  0  0  0  0  0  0  0  0  0  0
   -2.2644    3.4949    0.8375 H   0  0  0  0  0  0  0  0  0  0  0  0
   -3.3741    3.5939    2.2175 H   0  0  0  0  0  0  0  0  0  0  0  0
   -0.9750    1.0274    0.1566 N   0  0  0  0  0  0  0  0  0  0  0  0
    0.2023    0.5266   -0.5070 C   0  0  2  0  0  0  0  0  0  0  0  0
   -0.2474   -0.0636   -1.8388 C   0  0  0  0  0  0  0  0  0  0  0  0
   -1.4147   -0.0354   -2.2231 O   0  0  0  0  0  0  0  0  0  0  0  0
    0.9302   -0.5338    0.3271 C   0  0  0  0  0  0  0  0  0  0  0  0
    1.5353    0.0307    1.5893 C   0  0  0  0  0  0  0  0  0  0  0  0
    2.7610    0.6946    1.5389 C   0  0  0  0  0  0  0  0  0  0  0  0
    0.8689   -0.1121    2.8063 C   0  0  0  0  0  0  0  0  0  0  0  0
    3.3203    1.2158    2.7056 C   0  0  0  0  0  0  0  0  0  0  0  0
    1.4282    0.4091    3.9730 C   0  0  0  0  0  0  0  0  0  0  0  0
    2.6540    1.0730    3.9227 C   0  0  0  0  0  0  0  0  0  0  0  0
    3.2005    1.5805    5.0612 O   0  0  0  0  0  0  0  0  0  0  0  0
   -1.7582    1.3241   -0.4207 H   0  0  0  0  0  0  0  0  0  0  0  0
    0.8459    1.3934   -0.6977 H   0  0  0  0  0  0  0  0  0  0  0  0
    1.7124   -1.0186   -0.2727 H   0  0  0  0  0  0  0  0  0  0  0  0
    0.2408   -1.3410    0.6076 H   0  0  0  0  0  0  0  0  0  0  0  0
    3.2871    0.8105    0.5952 H   0  0  0  0  0  0  0  0  0  0  0  0
   -0.0867   -0.6278    2.8550 H   0  0  0  0  0  0  0  0  0  0  0  0
    4.2757    1.7317    2.6600 H   0  0  0  0  0  0  0  0  0  0  0  0
    0.9044    0.2943    4.9179 H   0  0  0  0  0  0  0  0  0  0  0  0
    2.6225    1.4024    5.8202 H   0  0  0  0  0  0  0  0  0  0  0  0
    0.8174   -0.5786   -2.5649 N   0  0  0  0  0  0  0  0  0  0  0  0
    0.6710   -1.1764   -3.8726 C   0  0  2  0  0  0  0  0  0  0  0  0
   -0.4511   -2.2033   -3.7973 C   0  0  0  0  0  0  0  0  0  0  0  0
   -0.8109   -2.7278   -2.7454 O   0  0  0  0  0  0  0  0  0  0  0  0
    1.9683   -1.8217   -4.3344 C   0  0  0  0  0  0  0  0  0  0  0  0
    1.7465   -0.5331   -2.1567 H   0  0  0  0  0  0  0  0  0  0  0  0
    0.3847   -0.3713   -4.5581 H   0  0  0  0  0  0  0  0  0  0  0  0
    2.2712   -2.6308   -3.6598 H   0  0  0  0  0  0  0  0  0  0  0  0
    1.8638   -2.2491   -5.3371 H   0  0  0  0  0  0  0  0  0  0  0  0
    2.7812   -1.0880   -4.3594 H   0  0  0  0  0  0  0  0  0  0  0  0
   -0.9745   -2.4971   -5.0486 N   0  0  0  0  0  0  0  0  0  0  0  0
   -2.0411   -3.4514   -5.2431 C   0  0  0  0  0  0  0  0  0  0  0  0
   -0.6285   -2.0003   -5.8642 H   0  0  0  0  0  0  0  0  0  0  0  0
   -1.6131   -4.4429   -5.4522 H   0  0  0  0  0  0  0  0  0  0  0  0
   -2.6575   -3.5026   -4.3335 H   0  0  0  0  0  0  0  0  0  0  0  0
   -2.6655   -3.1353   -6.0918 H   0  0  0  0  0  0  0  0  0  0  0  0
 23 25  2  0  0  0  0
 22 23  1  0  0  0  0
 24 26  1  0  0  0  0
 22 24  2  0  0  0  0
 25 27  1  0  0  0  0
 26 27  2  0  0  0  0
 21 22  1  0  0  0  0
 27 28  1  0  0  0  0
  1  3  1  0  0  0  0
  1  7  1  0  0  0  0
  1  2  2  0  0  0  0
 39 40  1  0  0  0  0
 40 48  1  0  0  0  0
 40 41  2  0  0  0  0
  8  9  1  0  0  0  0
  9 17  1  0  0  0  0
  9 10  2  0  0  0  0
 18 19  1  0  0  0  0
 19 38  1  0  0  0  0
 19 20  2  0  0  0  0
 39 42  1  0  0  0  0
  8 11  1  0  0  0  0
 48 49  1  0  0  0  0
 18 21  1  0  0  0  0
 38 39  1  0  0  0  0
  7  8  1  0  0  0  0
 17 18  1  0  0  0  0
 23 33  1  0  0  0  0
 24 34  1  0  0  0  0
 25 35  1  0  0  0  0
 26 36  1  0  0  0  0
  3  4  1  0  0  0  0
  3  5  1  0  0  0  0
  3  6  1  0  0  0  0
 42 45  1  0  0  0  0
 42 46  1  0  0  0  0
 42 47  1  0  0  0  0
 11 14  1  0  0  0  0
 11 15  1  0  0  0  0
 11 16  1  0  0  0  0
 49 51  1  0  0  0  0
 49 52  1  0  0  0  0
 49 53  1  0  0  0  0
 21 31  1  0  0  0  0
 21 32  1  0  0  0  0
 39 44  1  0  0  0  0
  8 13  1  0  0  0  0
 18 30  1  0  0  0  0
 48 50  1  0  0  0  0
  7 12  1  0  0  0  0
 38 43  1  0  0  0  0
 17 29  1  0  0  0  0
 28 37  1  0  0  0  0
M  END
$$$$

  -OEChem-05262214473D

 53 53  0     1  0  0  0  0  0999 V2000
   -1.9298    0.2574    3.9747 C   0  0  0  0  0  0  0  0  0  0  0  0
   -0.9825   -0.3573    3.4990 O   0  0  0  0  0  0  0  0  0  0  0  0
   -2.3617   -0.0250    5.3754 C   0  0  0  0  0  0  0  0  0  0  0  0
   -3.1214   -0.8213    5.4288 H   0  0  0  0  0  0  0  0  0  0  0  0
   -1.5305   -0.3726    6.0097 H   0  0  0  0  0  0  0  0  0  0  0  0
   -2.7997    0.8299    5.9150 H   0  0  0  0  0  0  0  0  0  0  0  0
   -2.6795    1.2298    3.3336 N   0  0  0  0  0  0  0  0  0  0  0  0
   -2.4327    1.6559    1.9812 C   0  0  2  0  0  0  0  0  0  0  0  0
   -1.0977    1.0705    1.5400 C   0  0  0  0  0  0  0  0  0  0  0  0
   -0.2256    0.7177    2.3313 O   0  0  0  0  0  0  0  0  0  0  0  0
   -2.4239    3.1726    1.8718 C   0  0  0  0  0  0  0  0  0  0  0  0
   -3.4446    1.6657    3.8454 H   0  0  0  0  0  0  0  0  0  0  0  0
   -3.2368    1.2374    1.3661 H   0  0  0  0  0  0  0  0  0  0  0  0
   -1.6248    3.6099    2.4815 H   0  0  0  0  0  0  0  0  0  0  0  0
   -2.2644    3.4949    0.8375 H   0  0  0  0  0  0  0  0  0  0  0  0
   -3.3741    3.5939    2.2175 H   0  0  0  0  0  0  0  0  0  0  0  0
   -0.9750    1.0274    0.1566 N   0  0  0  0  0  0  0  0  0  0  0  0
    0.2023    0.5266   -0.5070 C   0  0  2  0  0  0  0  0  0  0  0  0
   -0.2474   -0.0636   -1.8388 C   0  0  0  0  0  0  0  0  0  0  0  0
   -1.3367    0.1893   -2.3490 O   0  0  0  0  0  0  0  0  0  0  0  0
    0.9302   -0.5338    0.3271 C   0  0  0  0  0  0  0  0  0  0  0  0
    1.5353    0.0307    1.5893 C   0  0  0  0  0  0  0  0  0  0  0  0
    2.7610    0.6946    1.5389 C   0  0  0  0  0  0  0  0  0  0  0  0
    0.8689   -0.1121    2.8063 C   0  0  0  0  0  0  0  0  0  0  0  0
    3.3203    1.2158    2.7056 C   0  0  0  0  0  0  0  0  0  0  0  0
    1.4282    0.4091    3.9730 C   0  0  0  0  0  0  0  0  0  0  0  0
    2.6540    1.0730    3.9227 C   0  0  0  0  0  0  0  0  0  0  0  0
    3.2005    1.5805    5.0612 O   0  0  0  0  0  0  0  0  0  0  0  0
   -1.7582    1.3241   -0.4207 H   0  0  0  0  0  0  0  0  0  0  0  0
    0.8459    1.3934   -0.6977 H   0  0  0  0  0  0  0  0  0  0  0  0
    1.7124   -1.0186   -0.2727 H   0  0  0  0  0  0  0  0  0  0  0  0
    0.2408   -1.3410    0.6076 H   0  0  0  0  0  0  0  0  0  0  0  0
    3.2871    0.8105    0.5952 H   0  0  0  0  0  0  0  0  0  0  0  0
   -0.0867   -0.6278    2.8550 H   0  0  0  0  0  0  0  0  0  0  0  0
    4.2757    1.7317    2.6600 H   0  0  0  0  0  0  0  0  0  0  0  0
    0.9044    0.2943    4.9179 H   0  0  0  0  0  0  0  0  0  0  0  0
    2.6225    1.4024    5.8202 H   0  0  0  0  0  0  0  0  0  0  0  0
    0.7323   -0.8641   -2.4096 N   0  0  0  0  0  0  0  0  0  0  0  0
    0.5724   -1.5269   -3.6840 C   0  0  2  0  0  0  0  0  0  0  0  0
   -0.7579   -2.2682   -3.6650 C   0  0  0  0  0  0  0  0  0  0  0  0
   -1.3232   -2.6051   -2.6267 O   0  0  0  0  0  0  0  0  0  0  0  0
    1.7232   -2.4824   -3.9589 C   0  0  0  0  0  0  0  0  0  0  0  0
    1.6055   -0.9905   -1.9064 H   0  0  0  0  0  0  0  0  0  0  0  0
    0.5428   -0.7418   -4.4473 H   0  0  0  0  0  0  0  0  0  0  0  0
    1.7689   -3.2761   -3.2042 H   0  0  0  0  0  0  0  0  0  0  0  0
    1.6153   -2.9623   -4.9372 H   0  0  0  0  0  0  0  0  0  0  0  0
    2.6818   -1.9528   -3.9426 H   0  0  0  0  0  0  0  0  0  0  0  0
   -1.2182   -2.5471   -4.9442 N   0  0  0  0  0  0  0  0  0  0  0  0
   -2.4532   -3.2538   -5.1915 C   0  0  0  0  0  0  0  0  0  0  0  0
   -0.6941   -2.2132   -5.7477 H   0  0  0  0  0  0  0  0  0  0  0  0
   -2.2475   -4.3301   -5.2880 H   0  0  0  0  0  0  0  0  0  0  0  0
   -3.1454   -3.0867   -4.3531 H   0  0  0  0  0  0  0  0  0  0  0  0
   -2.9079   -2.8828   -6.1219 H   0  0  0  0  0  0  0  0  0  0  0  0
 23 25  2  0  0  0  0
 22 23  1  0  0  0  0
 24 26  1  0  0  0  0
 22 24  2  0  0  0  0
 25 27  1  0  0  0  0
 26 27  2  0  0  0  0
 21 22  1  0  0  0  0
 27 28  1  0  0  0  0
  1  3  1  0  0  0  0
  1  7  1  0  0  0  0
  1  2  2  0  0  0  0
 39 40  1  0  0  0  0
 40 48  1  0  0  0  0
 40 41  2  0  0  0  0
  8  9  1  0  0  0  0
  9 17  1  0  0  0  0
  9 10  2  0  0  0  0
 18 19  1  0  0  0  0
 19 38  1  0  0  0  0
 19 20  2  0  0  0  0
 39 42  1  0  0  0  0
  8 11  1  0  0  0  0
 48 49  1  0  0  0  0
 18 21  1  0  0  0  0
 38 39  1  0  0  0  0
  7  8  1  0  0  0  0
 17 18  1  0  0  0  0
 23 33  1  0  0  0  0
 24 34  1  0  0  0  0
 25 35  1  0  0  0  0
 26 36  1  0  0  0  0
  3  4  1  0  0  0  0
  3  5  1  0  0  0  0
  3  6  1  0  0  0  0
 42 45  1  0  0  0  0
 42 46  1  0  0  0  0
 42 47  1  0  0  0  0
 11 14  1  0  0  0  0
 11 15  1  0  0  0  0
 11 16  1  0  0  0  0
 49 51  1  0  0  0  0
 49 52  1  0  0  0  0
 49 53  1  0  0  0  0
 21 31  1  0  0  0  0
 21 32  1  0  0  0  0
 39 44  1  0  0  0  0
  8 13  1  0  0  0  0
 18 30  1  0  0  0  0
 48 50  1  0  0  0  0
  7 12  1  0  0  0  0
 38 43  1  0  0  0  0
 17 29  1  0  0  0  0
 28 37  1  0  0  0  0
M  END
$$$$

  -OEChem-05262214473D

 53 53  0     1  0  0  0  0  0999 V2000
   -1.9298    0.2574    3.9747 C   0  0  0  0  0  0  0  0  0  0  0  0
   -0.9825   -0.3573    3.4990 O   0  0  0  0  0  0  0  0  0  0  0  0
   -2.3617   -0.0250    5.3754 C   0  0  0  0  0  0  0  0  0  0  0  0
   -3.1214   -0.8213    5.4288 H   0  0  0  0  0  0  0  0  0  0  0  0
   -1.5305   -0.3726    6.0097 H   0  0  0  0  0  0  0  0  0  0  0  0
   -2.7997    0.8299    5.9150 H   0  0  0  0  0  0  0  0  0  0  0  0
   -2.6795    1.2298    3.3336 N   0  0  0  0  0  0  0  0  0  0  0  0
   -2.4327    1.6559    1.9812 C   0  0  2  0  0  0  0  0  0  0  0  0
   -1.0977    1.0705    1.5400 C   0  0  0  0  0  0  0  0  0  0  0  0
   -0.2256    0.7177    2.3313 O   0  0  0  0  0  0  0  0  0  0  0  0
   -2.4239    3.1726    1.8718 C   0  0  0  0  0  0  0  0  0  0  0  0
   -3.4446    1.6657    3.8454 H   0  0  0  0  0  0  0  0  0  0  0  0
   -3.2368    1.2374    1.3661 H   0  0  0  0  0  0  0  0  0  0  0  0
   -1.6248    3.6099    2.4815 H   0  0  0  0  0  0  0  0  0  0  0  0
   -2.2644    3.4949    0.8375 H   0  0  0  0  0  0  0  0  0  0  0  0
   -3.3741    3.5939    2.2175 H   0  0  0  0  0  0  0  0  0  0  0  0
   -0.9750    1.0274    0.1566 N   0  0  0  0  0  0  0  0  0  0  0  0
    0.2023    0.5266   -0.5070 C   0  0  2  0  0  0  0  0  0  0  0  0
   -0.2474   -0.0636   -1.8388 C   0  0  0  0  0  0  0  0  0  0  0  0
   -1.1980    0.3792   -2.4800 O   0  0  0  0  0  0  0  0  0  0  0  0
    0.9302   -0.5338    0.3271 C   0  0  0  0  0  0  0  0  0  0  0  0
    1.5353    0.0307    1.5893 C   0  0  0  0  0  0  0  0  0  0  0  0
    2.7610    0.6946    1.5389 C   0  0  0  0  0  0  0  0  0  0  0  0
    0.8689   -0.1121    2.8063 C   0  0  0  0  0  0  0  0  0  0  0  0
    3.3203    1.2158    2.7056 C   0  0  0  0  0  0  0  0  0  0  0  0
    1.4282    0.4091    3.9730 C   0  0  0  0  0  0  0  0  0  0  0  0
    2.6540    1.0730    3.9227 C   0  0  0  0  0  0  0  0  0  0  0  0
    3.2005    1.5805    5.0612 O   0  0  0  0  0  0  0  0  0  0  0  0
   -1.7582    1.3241   -0.4207 H   0  0  0  0  0  0  0  0  0  0  0  0
    0.8459    1.3934   -0.6977 H   0  0  0  0  0  0  0  0  0  0  0  0
    1.7124   -1.0186   -0.2727 H   0  0  0  0  0  0  0  0  0  0  0  0
    0.2408   -1.3410    0.6076 H   0  0  0  0  0  0  0  0  0  0  0  0
    3.2871    0.8105    0.5952 H   0  0  0  0  0  0  0  0  0  0  0  0
   -0.0867   -0.6278    2.8550 H   0  0  0  0  0  0  0  0  0  0  0  0
    4.2757    1.7317    2.6600 H   0  0  0  0  0  0  0  0  0  0  0  0
    0.9044    0.2943    4.9179 H   0  0  0  0  0  0  0  0  0  0  0  0
    2.6225    1.4024    5.8202 H   0  0  0  0  0  0  0  0  0  0  0  0
    0.5699   -1.1088   -2.2464 N   0  0  0  0  0  0  0  0  0  0  0  0
    0.3791   -1.8288   -3.4849 C   0  0  2  0  0  0  0  0  0  0  0  0
   -1.0821   -2.2513   -3.5630 C   0  0  0  0  0  0  0  0  0  0  0  0
   -1.8022   -2.3617   -2.5729 O   0  0  0  0  0  0  0  0  0  0  0  0
    1.2994   -3.0365   -3.5702 C   0  0  0  0  0  0  0  0  0  0  0  0
    1.3409   -1.3813   -1.6439 H   0  0  0  0  0  0  0  0  0  0  0  0
    0.6007   -1.1269   -4.2962 H   0  0  0  0  0  0  0  0  0  0  0  0
    1.0921   -3.7511   -2.7652 H   0  0  0  0  0  0  0  0  0  0  0  0
    1.1740   -3.5645   -4.5212 H   0  0  0  0  0  0  0  0  0  0  0  0
    2.3486   -2.7338   -3.4840 H   0  0  0  0  0  0  0  0  0  0  0  0
   -1.4753   -2.5323   -4.8639 N   0  0  0  0  0  0  0  0  0  0  0  0
   -2.8118   -2.9659   -5.1980 C   0  0  0  0  0  0  0  0  0  0  0  0
   -0.8172   -2.3952   -5.6255 H   0  0  0  0  0  0  0  0  0  0  0  0
   -2.8512   -4.0652   -5.2015 H   0  0  0  0  0  0  0  0  0  0  0  0
   -3.5207   -2.5761   -4.4526 H   0  0  0  0  0  0  0  0  0  0  0  0
   -3.0819   -2.5863   -6.1945 H   0  0  0  0  0  0  0  0  0  0  0  0
 23 25  2  0  0  0  0
 22 23  1  0  0  0  0
 24 26  1  0  0  0  0
 22 24  2  0  0  0  0
 25 27  1  0  0  0  0
 26 27  2  0  0  0  0
 21 22  1  0  0  0  0
 27 28  1  0  0  0  0
  1  3  1  0  0  0  0
  1  7  1  0  0  0  0
  1  2  2  0  0  0  0
 39 40  1  0  0  0  0
 40 48  1  0  0  0  0
 40 41  2  0  0  0  0
  8  9  1  0  0  0  0
  9 17  1  0  0  0  0
  9 10  2  0  0  0  0
 18 19  1  0  0  0  0
 19 38  1  0  0  0  0
 19 20  2  0  0  0  0
 39 42  1  0  0  0  0
  8 11  1  0  0  0  0
 48 49  1  0  0  0  0
 18 21  1  0  0  0  0
 38 39  1  0  0  0  0
  7  8  1  0  0  0  0
 17 18  1  0  0  0  0
 23 33  1  0  0  0  0
 24 34  1  0  0  0  0
 25 35  1  0  0  0  0
 26 36  1  0  0  0  0
  3  4  1  0  0  0  0
  3  5  1  0  0  0  0
  3  6  1  0  0  0  0
 42 45  1  0  0  0  0
 42 46  1  0  0  0  0
 42 47  1  0  0  0  0
 11 14  1  0  0  0  0
 11 15  1  0  0  0  0
 11 16  1  0  0  0  0
 49 51  1  0  0  0  0
 49 52  1  0  0  0  0
 49 53  1  0  0  0  0
 21 31  1  0  0  0  0
 21 32  1  0  0  0  0
 39 44  1  0  0  0  0
  8 13  1  0  0  0  0
 18 30  1  0  0  0  0
 48 50  1  0  0  0  0
  7 12  1  0  0  0  0
 38 43  1  0  0  0  0
 17 29  1  0  0  0  0
 28 37  1  0  0  0  0
M  END
$$$$

  -OEChem-05262214473D

 53 53  0     1  0  0  0  0  0999 V2000
   -1.9298    0.2574    3.9747 C   0  0  0  0  0  0  0  0  0  0  0  0
   -0.9825   -0.3573    3.4990 O   0  0  0  0  0  0  0  0  0  0  0  0
   -2.3617   -0.0250    5.3754 C   0  0  0  0  0  0  0  0  0  0  0  0
   -3.1214   -0.8213    5.4288 H   0  0  0  0  0  0  0  0  0  0  0  0
   -1.5305   -0.3726    6.0097 H   0  0  0  0  0  0  0  0  0  0  0  0
   -2.7997    0.8299    5.9150 H   0  0  0  0  0  0  0  0  0  0  0  0
   -2.6795    1.2298    3.3336 N   0  0  0  0  0  0  0  0  0  0  0  0
   -2.4327    1.6559    1.9812 C   0  0  2  0  0  0  0  0  0  0  0  0
   -1.0977    1.0705    1.5400 C   0  0  0  0  0  0  0  0  0  0  0  0
   -0.2256    0.7177    2.3313 O   0  0  0  0  0  0  0  0  0  0  0  0
   -2.4239    3.1726    1.8718 C   0  0  0  0  0  0  0  0  0  0  0  0
   -3.4446    1.6657    3.8454 H   0  0  0  0  0  0  0  0  0  0  0  0
   -3.2368    1.2374    1.3661 H   0  0  0  0  0  0  0  0  0  0  0  0
   -1.6248    3.6099    2.4815 H   0  0  0  0  0  0  0  0  0  0  0  0
   -2.2644    3.4949    0.8375 H   0  0  0  0  0  0  0  0  0  0  0  0
   -3.3741    3.5939    2.2175 H   0  0  0  0  0  0  0  0  0  0  0  0
   -0.9750    1.0274    0.1566 N   0  0  0  0  0  0  0  0  0  0  0  0
    0.2023    0.5266   -0.5070 C   0  0  2  0  0  0  0  0  0  0  0  0
   -0.2474   -0.0636   -1.8388 C   0  0  0  0  0  0  0  0  0  0  0  0
   -1.0080    0.5213   -2.6071 O   0  0  0  0  0  0  0  0  0  0  0  0
    0.9302   -0.5338    0.3271 C   0  0  0  0  0  0  0  0  0  0  0  0
    1.5353    0.0307    1.5893 C   0  0  0  0  0  0  0  0  0  0  0  0
    2.7610    0.6946    1.5389 C   0  0  0  0  0  0  0  0  0  0  0  0
    0.8689   -0.1121    2.8063 C   0  0  0  0  0  0  0  0  0  0  0  0
    3.3203    1.2158    2.7056 C   0  0  0  0  0  0  0  0  0  0  0  0
    1.4282    0.4091    3.9730 C   0  0  0  0  0  0  0  0  0  0  0  0
    2.6540    1.0730    3.9227 C   0  0  0  0  0  0  0  0  0  0  0  0
    3.2005    1.5805    5.0612 O   0  0  0  0  0  0  0  0  0  0  0  0
   -1.7582    1.3241   -0.4207 H   0  0  0  0  0  0  0  0  0  0  0  0
    0.8459    1.3934   -0.6977 H   0  0  0  0  0  0  0  0  0  0  0  0
    1.7124   -1.0186   -0.2727 H   0  0  0  0  0  0  0  0  0  0  0  0
    0.2408   -1.3410    0.6076 H   0  0  0  0  0  0  0  0  0  0  0  0
    3.2871    0.8105    0.5952 H   0  0  0  0  0  0  0  0  0  0  0  0
   -0.0867   -0.6278    2.8550 H   0  0  0  0  0  0  0  0  0  0  0  0
    4.2757    1.7317    2.6600 H   0  0  0  0  0  0  0  0  0  0  0  0
    0.9044    0.2943    4.9179 H   0  0  0  0  0  0  0  0  0  0  0  0
    2.6225    1.4024    5.8202 H   0  0  0  0  0  0  0  0  0  0  0  0
    0.3413   -1.2959   -2.0863 N   0  0  0  0  0  0  0  0  0  0  0  0
    0.1041   -2.0616   -3.2889 C   0  0  2  0  0  0  0  0  0  0  0  0
   -1.4016   -2.1540   -3.4982 C   0  0  0  0  0  0  0  0  0  0  0  0
   -2.2153   -2.0141   -2.5874 O   0  0  0  0  0  0  0  0  0  0  0  0
    0.7258   -3.4462   -3.1949 C   0  0  0  0  0  0  0  0  0  0  0  0
    0.9706   -1.6789   -1.3869 H   0  0  0  0  0  0  0  0  0  0  0  0
    0.5544   -1.5005   -4.1150 H   0  0  0  0  0  0  0  0  0  0  0  0
    0.2871   -4.0233   -2.3728 H   0  0  0  0  0  0  0  0  0  0  0  0
    0.5698   -4.0147   -4.1178 H   0  0  0  0  0  0  0  0  0  0  0  0
    1.8041   -3.3779   -3.0147 H   0  0  0  0  0  0  0  0  0  0  0  0
   -1.7283   -2.4538   -4.8133 N   0  0  0  0  0  0  0  0  0  0  0  0
   -3.0924   -2.6072   -5.2623 C   0  0  0  0  0  0  0  0  0  0  0  0
   -0.9896   -2.5338   -5.5059 H   0  0  0  0  0  0  0  0  0  0  0  0
   -3.3831   -3.6662   -5.1987 H   0  0  0  0  0  0  0  0  0  0  0  0
   -3.7577   -2.0057   -4.6254 H   0  0  0  0  0  0  0  0  0  0  0  0
   -3.1758   -2.2661   -6.3047 H   0  0  0  0  0  0  0  0  0  0  0  0
 23 25  2  0  0  0  0
 22 23  1  0  0  0  0
 24 26  1  0  0  0  0
 22 24  2  0  0  0  0
 25 27  1  0  0  0  0
 26 27  2  0  0  0  0
 21 22  1  0  0  0  0
 27 28  1  0  0  0  0
  1  3  1  0  0  0  0
  1  7  1  0  0  0  0
  1  2  2  0  0  0  0
 39 40  1  0  0  0  0
 40 48  1  0  0  0  0
 40 41  2  0  0  0  0
  8  9  1  0  0  0  0
  9 17  1  0  0  0  0
  9 10  2  0  0  0  0
 18 19  1  0  0  0  0
 19 38  1  0  0  0  0
 19 20  2  0  0  0  0
 39 42  1  0  0  0  0
  8 11  1  0  0  0  0
 48 49  1  0  0  0  0
 18 21  1  0  0  0  0
 38 39  1  0  0  0  0
  7  8  1  0  0  0  0
 17 18  1  0  0  0  0
 23 33  1  0  0  0  0
 24 34  1  0  0  0  0
 25 35  1  0  0  0  0
 26 36  1  0  0  0  0
  3  4  1  0  0  0  0
  3  5  1  0  0  0  0
  3  6  1  0  0  0  0
 42 45  1  0  0  0  0
 42 46  1  0  0  0  0
 42 47  1  0  0  0  0
 11 14  1  0  0  0  0
 11 15  1  0  0  0  0
 11 16  1  0  0  0  0
 49 51  1  0  0  0  0
 49 52  1  0  0  0  0
 49 53  1  0  0  0  0
 21 31  1  0  0  0  0
 21 32  1  0  0  0  0
 39 44  1  0  0  0  0
  8 13  1  0  0  0  0
 18 30  1  0  0  0  0
 48 50  1  0  0  0  0
  7 12  1  0  0  0  0
 38 43  1  0  0  0  0
 17 29  1  0  0  0  0
 28 37  1  0  0  0  0
M  END
$$$$

  -OEChem-05262214473D

 53 53  0     1  0  0  0  0  0999 V2000
   -1.9298    0.2574    3.9747 C   0  0  0  0  0  0  0  0  0  0  0  0
   -0.9825   -0.3573    3.4990 O   0  0  0  0  0  0  0  0  0  0  0  0
   -2.3617   -0.0250    5.3754 C   0  0  0  0  0  0  0  0  0  0  0  0
   -3.1214   -0.8213    5.4288 H   0  0  0  0  0  0  0  0  0  0  0  0
   -1.5305   -0.3726    6.0097 H   0  0  0  0  0  0  0  0  0  0  0  0
   -2.7997    0.8299    5.9150 H   0  0  0  0  0  0  0  0  0  0  0  0
   -2.6795    1.2298    3.3336 N   0  0  0  0  0  0  0  0  0  0  0  0
   -2.4327    1.6559    1.9812 C   0  0  2  0  0  0  0  0  0  0  0  0
   -1.0977    1.0705    1.5400 C   0  0  0  0  0  0  0  0  0  0  0  0
   -0.2256    0.7177    2.3313 O   0  0  0  0  0  0  0  0  0  0  0  0
   -2.4239    3.1726    1.8718 C   0  0  0  0  0  0  0  0  0  0  0  0
   -3.4446    1.6657    3.8454 H   0  0  0  0  0  0  0  0  0  0  0  0
   -3.2368    1.2374    1.3661 H   0  0  0  0  0  0  0  0  0  0  0  0
   -1.6248    3.6099    2.4815 H   0  0  0  0  0  0  0  0  0  0  0  0
   -2.2644    3.4949    0.8375 H   0  0  0  0  0  0  0  0  0  0  0  0
   -3.3741    3.5939    2.2175 H   0  0  0  0  0  0  0  0  0  0  0  0
   -0.9750    1.0274    0.1566 N   0  0  0  0  0  0  0  0  0  0  0  0
    0.2023    0.5266   -0.5070 C   0  0  2  0  0  0  0  0  0  0  0  0
   -0.2474   -0.0636   -1.8388 C   0  0  0  0  0  0  0  0  0  0  0  0
   -0.7796    0.6058   -2.7217 O   0  0  0  0  0  0  0  0  0  0  0  0
    0.9302   -0.5338    0.3271 C   0  0  0  0  0  0  0  0  0  0  0  0
    1.5353    0.0307    1.5893 C   0  0  0  0  0  0  0  0  0  0  0  0
    2.7610    0.6946    1.5389 C   0  0  0  0  0  0  0  0  0  0  0  0
    0.8689   -0.1121    2.8063 C   0  0  0  0  0  0  0  0  0  0  0  0
    3.3203    1.2158    2.7056 C   0  0  0  0  0  0  0  0  0  0  0  0
    1.4282    0.4091    3.9730 C   0  0  0  0  0  0  0  0  0  0  0  0
    2.6540    1.0730    3.9227 C   0  0  0  0  0  0  0  0  0  0  0  0
    3.2005    1.5805    5.0612 O   0  0  0  0  0  0  0  0  0  0  0  0
   -1.7582    1.3241   -0.4207 H   0  0  0  0  0  0  0  0  0  0  0  0
    0.8459    1.3934   -0.6977 H   0  0  0  0  0  0  0  0  0  0  0  0
    1.7124   -1.0186   -0.2727 H   0  0  0  0  0  0  0  0  0  0  0  0
    0.2408   -1.3410    0.6076 H   0  0  0  0  0  0  0  0  0  0  0  0
    3.2871    0.8105    0.5952 H   0  0  0  0  0  0  0  0  0  0  0  0
   -0.0867   -0.6278    2.8550 H   0  0  0  0  0  0  0  0  0  0  0  0
    4.2757    1.7317    2.6600 H   0  0  0  0  0  0  0  0  0  0  0  0
    0.9044    0.2943    4.9179 H   0  0  0  0  0  0  0  0  0  0  0  0
    2.6225    1.4024    5.8202 H   0  0  0  0  0  0  0  0  0  0  0  0
    0.0622   -1.4128   -1.9402 N   0  0  0  0  0  0  0  0  0  0  0  0
   -0.2338   -2.2092   -3.1094 C   0  0  2  0  0  0  0  0  0  0  0  0
   -1.6948   -1.9828   -3.4751 C   0  0  0  0  0  0  0  0  0  0  0  0
   -2.5342   -1.5861   -2.6694 O   0  0  0  0  0  0  0  0  0  0  0  0
    0.0416   -3.6837   -2.8587 C   0  0  0  0  0  0  0  0  0  0  0  0
    0.5199   -1.8631   -1.1531 H   0  0  0  0  0  0  0  0  0  0  0  0
    0.4071   -1.8371   -3.9161 H   0  0  0  0  0  0  0  0  0  0  0  0
   -0.5914   -4.0743   -2.0535 H   0  0  0  0  0  0  0  0  0  0  0  0
   -0.1560   -4.2820   -3.7542 H   0  0  0  0  0  0  0  0  0  0  0  0
    1.0855   -3.8410   -2.5668 H   0  0  0  0  0  0  0  0  0  0  0  0
   -1.9600   -2.3169   -4.7957 N   0  0  0  0  0  0  0  0  0  0  0  0
   -3.2760   -2.2021   -5.3798 C   0  0  0  0  0  0  0  0  0  0  0  0
   -1.1994   -2.6195   -5.3970 H   0  0  0  0  0  0  0  0  0  0  0  0
   -3.8069   -3.1603   -5.2798 H   0  0  0  0  0  0  0  0  0  0  0  0
   -3.8404   -1.4142   -4.8596 H   0  0  0  0  0  0  0  0  0  0  0  0
   -3.1829   -1.9440   -6.4450 H   0  0  0  0  0  0  0  0  0  0  0  0
 23 25  2  0  0  0  0
 22 23  1  0  0  0  0
 24 26  1  0  0  0  0
 22 24  2  0  0  0  0
 25 27  1  0  0  0  0
 26 27  2  0  0  0  0
 21 22  1  0  0  0  0
 27 28  1  0  0  0  0
  1  3  1  0  0  0  0
  1  7  1  0  0  0  0
  1  2  2  0  0  0  0
 39 40  1  0  0  0  0
 40 48  1  0  0  0  0
 40 41  2  0  0  0  0
  8  9  1  0  0  0  0
  9 17  1  0  0  0  0
  9 10  2  0  0  0  0
 18 19  1  0  0  0  0
 19 38  1  0  0  0  0
 19 20  2  0  0  0  0
 39 42  1  0  0  0  0
  8 11  1  0  0  0  0
 48 49  1  0  0  0  0
 18 21  1  0  0  0  0
 38 39  1  0  0  0  0
  7  8  1  0  0  0  0
 17 18  1  0  0  0  0
 23 33  1  0  0  0  0
 24 34  1  0  0  0  0
 25 35  1  0  0  0  0
 26 36  1  0  0  0  0
  3  4  1  0  0  0  0
  3  5  1  0  0  0  0
  3  6  1  0  0  0  0
 42 45  1  0  0  0  0
 42 46  1  0  0  0  0
 42 47  1  0  0  0  0
 11 14  1  0  0  0  0
 11 15  1  0  0  0  0
 11 16  1  0  0  0  0
 49 51  1  0  0  0  0
 49 52  1  0  0  0  0
 49 53  1  0  0  0  0
 21 31  1  0  0  0  0
 21 32  1  0  0  0  0
 39 44  1  0  0  0  0
  8 13  1  0  0  0  0
 18 30  1  0  0  0  0
 48 50  1  0  0  0  0
  7 12  1  0  0  0  0
 38 43  1  0  0  0  0
 17 29  1  0  0  0  0
 28 37  1  0  0  0  0
M  END
$$$$

  -OEChem-05262214473D

 53 53  0     1  0  0  0  0  0999 V2000
   -1.9298    0.2574    3.9747 C   0  0  0  0  0  0  0  0  0  0  0  0
   -0.9825   -0.3573    3.4990 O   0  0  0  0  0  0  0  0  0  0  0  0
   -2.3617   -0.0250    5.3754 C   0  0  0  0  0  0  0  0  0  0  0  0
   -3.1214   -0.8213    5.4288 H   0  0  0  0  0  0  0  0  0  0  0  0
   -1.5305   -0.3726    6.0097 H   0  0  0  0  0  0  0  0  0  0  0  0
   -2.7997    0.8299    5.9150 H   0  0  0  0  0  0  0  0  0  0  0  0
   -2.6795    1.2298    3.3336 N   0  0  0  0  0  0  0  0  0  0  0  0
   -2.4327    1.6559    1.9812 C   0  0  2  0  0  0  0  0  0  0  0  0
   -1.0977    1.0705    1.5400 C   0  0  0  0  0  0  0  0  0  0  0  0
   -0.2256    0.7177    2.3313 O   0  0  0  0  0  0  0  0  0  0  0  0
   -2.4239    3.1726    1.8718 C   0  0  0  0  0  0  0  0  0  0  0  0
   -3.4446    1.6657    3.8454 H   0  0  0  0  0  0  0  0  0  0  0  0
   -3.2368    1.2374    1.3661 H   0  0  0  0  0  0  0  0  0  0  0  0
   -1.6248    3.6099    2.4815 H   0  0  0  0  0  0  0  0  0  0  0  0
   -2.2644    3.4949    0.8375 H   0  0  0  0  0  0  0  0  0  0  0  0
   -3.3741    3.5939    2.2175 H   0  0  0  0  0  0  0  0  0  0  0  0
   -0.9750    1.0274    0.1566 N   0  0  0  0  0  0  0  0  0  0  0  0
    0.2023    0.5266   -0.5070 C   0  0  2  0  0  0  0  0  0  0  0  0
   -0.2474   -0.0636   -1.8388 C   0  0  0  0  0  0  0  0  0  0  0  0
   -0.5284    0.6271   -2.8160 O   0  0  0  0  0  0  0  0  0  0  0  0
    0.9302   -0.5338    0.3271 C   0  0  0  0  0  0  0  0  0  0  0  0
    1.5353    0.0307    1.5893 C   0  0  0  0  0  0  0  0  0  0  0  0
    2.7610    0.6946    1.5389 C   0  0  0  0  0  0  0  0  0  0  0  0
    0.8689   -0.1121    2.8063 C   0  0  0  0  0  0  0  0  0  0  0  0
    3.3203    1.2158    2.7056 C   0  0  0  0  0  0  0  0  0  0  0  0
    1.4282    0.4091    3.9730 C   0  0  0  0  0  0  0  0  0  0  0  0
    2.6540    1.0730    3.9227 C   0  0  0  0  0  0  0  0  0  0  0  0
    3.2005    1.5805    5.0612 O   0  0  0  0  0  0  0  0  0  0  0  0
   -1.7582    1.3241   -0.4207 H   0  0  0  0  0  0  0  0  0  0  0  0
    0.8459    1.3934   -0.6977 H   0  0  0  0  0  0  0  0  0  0  0  0
    1.7124   -1.0186   -0.2727 H   0  0  0  0  0  0  0  0  0  0  0  0
    0.2408   -1.3410    0.6076 H   0  0  0  0  0  0  0  0  0  0  0  0
    3.2871    0.8105    0.5952 H   0  0  0  0  0  0  0  0  0  0  0  0
   -0.0867   -0.6278    2.8550 H   0  0  0  0  0  0  0  0  0  0  0  0
    4.2757    1.7317    2.6600 H   0  0  0  0  0  0  0  0  0  0  0  0
    0.9044    0.2943    4.9179 H   0  0  0  0  0  0  0  0  0  0  0  0
    2.6225    1.4024    5.8202 H   0  0  0  0  0  0  0  0  0  0  0  0
   -0.2484   -1.4514   -1.8182 N   0  0  0  0  0  0  0  0  0  0  0  0
   -0.6115   -2.2617   -2.9585 C   0  0  2  0  0  0  0  0  0  0  0  0
   -1.9416   -1.7494   -3.4952 C   0  0  0  0  0  0  0  0  0  0  0  0
   -2.7373   -1.1069   -2.8132 O   0  0  0  0  0  0  0  0  0  0  0  0
   -0.7068   -3.7326   -2.5843 C   0  0  0  0  0  0  0  0  0  0  0  0
    0.0195   -1.9212   -0.9584 H   0  0  0  0  0  0  0  0  0  0  0  0
    0.1688   -2.1137   -3.7130 H   0  0  0  0  0  0  0  0  0  0  0  0
   -1.4835   -3.9006   -1.8293 H   0  0  0  0  0  0  0  0  0  0  0  0
   -0.9539   -4.3485   -3.4553 H   0  0  0  0  0  0  0  0  0  0  0  0
    0.2418   -4.0918   -2.1708 H   0  0  0  0  0  0  0  0  0  0  0  0
   -2.1546   -2.1309   -4.8124 N   0  0  0  0  0  0  0  0  0  0  0  0
   -3.3499   -1.7784   -5.5426 C   0  0  0  0  0  0  0  0  0  0  0  0
   -1.4323   -2.6466   -5.3064 H   0  0  0  0  0  0  0  0  0  0  0  0
   -4.0938   -2.5820   -5.4392 H   0  0  0  0  0  0  0  0  0  0  0  0
   -3.7631   -0.8422   -5.1392 H   0  0  0  0  0  0  0  0  0  0  0  0
   -3.1030   -1.6420   -6.6059 H   0  0  0  0  0  0  0  0  0  0  0  0
 23 25  2  0  0  0  0
 22 23  1  0  0  0  0
 24 26  1  0  0  0  0
 22 24  2  0  0  0  0
 25 27  1  0  0  0  0
 26 27  2  0  0  0  0
 21 22  1  0  0  0  0
 27 28  1  0  0  0  0
  1  3  1  0  0  0  0
  1  7  1  0  0  0  0
  1  2  2  0  0  0  0
 39 40  1  0  0  0  0
 40 48  1  0  0  0  0
 40 41  2  0  0  0  0
  8  9  1  0  0  0  0
  9 17  1  0  0  0  0
  9 10  2  0  0  0  0
 18 19  1  0  0  0  0
 19 38  1  0  0  0  0
 19 20  2  0  0  0  0
 39 42  1  0  0  0  0
  8 11  1  0  0  0  0
 48 49  1  0  0  0  0
 18 21  1  0  0  0  0
 38 39  1  0  0  0  0
  7  8  1  0  0  0  0
 17 18  1  0  0  0  0
 23 33  1  0  0  0  0
 24 34  1  0  0  0  0
 25 35  1  0  0  0  0
 26 36  1  0  0  0  0
  3  4  1  0  0  0  0
  3  5  1  0  0  0  0
  3  6  1  0  0  0  0
 42 45  1  0  0  0  0
 42 46  1  0  0  0  0
 42 47  1  0  0  0  0
 11 14  1  0  0  0  0
 11 15  1  0  0  0  0
 11 16  1  0  0  0  0
 49 51  1  0  0  0  0
 49 52  1  0  0  0  0
 49 53  1  0  0  0  0
 21 31  1  0  0  0  0
 21 32  1  0  0  0  0
 39 44  1  0  0  0  0
  8 13  1  0  0  0  0
 18 30  1  0  0  0  0
 48 50  1  0  0  0  0
  7 12  1  0  0  0  0
 38 43  1  0  0  0  0
 17 29  1  0  0  0  0
 28 37  1  0  0  0  0
M  END
$$$$

  -OEChem-05262214473D

 53 53  0     1  0  0  0  0  0999 V2000
   -1.9298    0.2574    3.9747 C   0  0  0  0  0  0  0  0  0  0  0  0
   -0.9825   -0.3573    3.4990 O   0  0  0  0  0  0  0  0  0  0  0  0
   -2.3617   -0.0250    5.3754 C   0  0  0  0  0  0  0  0  0  0  0  0
   -3.1214   -0.8213    5.4288 H   0  0  0  0  0  0  0  0  0  0  0  0
   -1.5305   -0.3726    6.0097 H   0  0  0  0  0  0  0  0  0  0  0  0
   -2.7997    0.8299    5.9150 H   0  0  0  0  0  0  0  0  0  0  0  0
   -2.6795    1.2298    3.3336 N   0  0  0  0  0  0  0  0  0  0  0  0
   -2.4327    1.6559    1.9812 C   0  0  2  0  0  0  0  0  0  0  0  0
   -1.0977    1.0705    1.5400 C   0  0  0  0  0  0  0  0  0  0  0  0
   -0.2256    0.7177    2.3313 O   0  0  0  0  0  0  0  0  0  0  0  0
   -2.4239    3.1726    1.8718 C   0  0  0  0  0  0  0  0  0  0  0  0
   -3.4446    1.6657    3.8454 H   0  0  0  0  0  0  0  0  0  0  0  0
   -3.2368    1.2374    1.3661 H   0  0  0  0  0  0  0  0  0  0  0  0
   -1.6248    3.6099    2.4815 H   0  0  0  0  0  0  0  0  0  0  0  0
   -2.2644    3.4949    0.8375 H   0  0  0  0  0  0  0  0  0  0  0  0
   -3.3741    3.5939    2.2175 H   0  0  0  0  0  0  0  0  0  0  0  0
   -0.9750    1.0274    0.1566 N   0  0  0  0  0  0  0  0  0  0  0  0
    0.2023    0.5266   -0.5070 C   0  0  2  0  0  0  0  0  0  0  0  0
   -0.2474   -0.0636   -1.8388 C   0  0  0  0  0  0  0  0  0  0  0  0
   -0.2714    0.5837   -2.8835 O   0  0  0  0  0  0  0  0  0  0  0  0
    0.9302   -0.5338    0.3271 C   0  0  0  0  0  0  0  0  0  0  0  0
    1.5353    0.0307    1.5893 C   0  0  0  0  0  0  0  0  0  0  0  0
    2.7610    0.6946    1.5389 C   0  0  0  0  0  0  0  0  0  0  0  0
    0.8689   -0.1121    2.8063 C   0  0  0  0  0  0  0  0  0  0  0  0
    3.3203    1.2158    2.7056 C   0  0  0  0  0  0  0  0  0  0  0  0
    1.4282    0.4091    3.9730 C   0  0  0  0  0  0  0  0  0  0  0  0
    2.6540    1.0730    3.9227 C   0  0  0  0  0  0  0  0  0  0  0  0
    3.2005    1.5805    5.0612 O   0  0  0  0  0  0  0  0  0  0  0  0
   -1.7582    1.3241   -0.4207 H   0  0  0  0  0  0  0  0  0  0  0  0
    0.8459    1.3934   -0.6977 H   0  0  0  0  0  0  0  0  0  0  0  0
    1.7124   -1.0186   -0.2727 H   0  0  0  0  0  0  0  0  0  0  0  0
    0.2408   -1.3410    0.6076 H   0  0  0  0  0  0  0  0  0  0  0  0
    3.2871    0.8105    0.5952 H   0  0  0  0  0  0  0  0  0  0  0  0
   -0.0867   -0.6278    2.8550 H   0  0  0  0  0  0  0  0  0  0  0  0
    4.2757    1.7317    2.6600 H   0  0  0  0  0  0  0  0  0  0  0  0
    0.9044    0.2943    4.9179 H   0  0  0  0  0  0  0  0  0  0  0  0
    2.6225    1.4024    5.8202 H   0  0  0  0  0  0  0  0  0  0  0  0
   -0.5695   -1.4092   -1.7285 N   0  0  0  0  0  0  0  0  0  0  0  0
   -1.0034   -2.2155   -2.8467 C   0  0  2  0  0  0  0  0  0  0  0  0
   -2.1251   -1.4696   -3.5572 C   0  0  0  0  0  0  0  0  0  0  0  0
   -2.8107   -0.6090   -3.0091 O   0  0  0  0  0  0  0  0  0  0  0  0
   -1.4682   -3.5898   -2.3905 C   0  0  0  0  0  0  0  0  0  0  0  0
   -0.4965   -1.8494   -0.8160 H   0  0  0  0  0  0  0  0  0  0  0  0
   -0.1443   -2.3115   -3.5196 H   0  0  0  0  0  0  0  0  0  0  0  0
   -2.3283   -3.5139   -1.7154 H   0  0  0  0  0  0  0  0  0  0  0  0
   -1.7696   -4.2094   -3.2415 H   0  0  0  0  0  0  0  0  0  0  0  0
   -0.6695   -4.1130   -1.8537 H   0  0  0  0  0  0  0  0  0  0  0  0
   -2.2989   -1.9085   -4.8623 N   0  0  0  0  0  0  0  0  0  0  0  0
   -3.3091   -1.3648   -5.7397 C   0  0  0  0  0  0  0  0  0  0  0  0
   -1.6725   -2.6132   -5.2401 H   0  0  0  0  0  0  0  0  0  0  0  0
   -4.2242   -1.9707   -5.6661 H   0  0  0  0  0  0  0  0  0  0  0  0
   -3.5311   -0.3284   -5.4452 H   0  0  0  0  0  0  0  0  0  0  0  0
   -2.9414   -1.3806   -6.7763 H   0  0  0  0  0  0  0  0  0  0  0  0
 23 25  2  0  0  0  0
 22 23  1  0  0  0  0
 24 26  1  0  0  0  0
 22 24  2  0  0  0  0
 25 27  1  0  0  0  0
 26 27  2  0  0  0  0
 21 22  1  0  0  0  0
 27 28  1  0  0  0  0
  1  3  1  0  0  0  0
  1  7  1  0  0  0  0
  1  2  2  0  0  0  0
 39 40  1  0  0  0  0
 40 48  1  0  0  0  0
 40 41  2  0  0  0  0
  8  9  1  0  0  0  0
  9 17  1  0  0  0  0
  9 10  2  0  0  0  0
 18 19  1  0  0  0  0
 19 38  1  0  0  0  0
 19 20  2  0  0  0  0
 39 42  1  0  0  0  0
  8 11  1  0  0  0  0
 48 49  1  0  0  0  0
 18 21  1  0  0  0  0
 38 39  1  0  0  0  0
  7  8  1  0  0  0  0
 17 18  1  0  0  0  0
 23 33  1  0  0  0  0
 24 34  1  0  0  0  0
 25 35  1  0  0  0  0
 26 36  1  0  0  0  0
  3  4  1  0  0  0  0
  3  5  1  0  0  0  0
  3  6  1  0  0  0  0
 42 45  1  0  0  0  0
 42 46  1  0  0  0  0
 42 47  1  0  0  0  0
 11 14  1  0  0  0  0
 11 15  1  0  0  0  0
 11 16  1  0  0  0  0
 49 51  1  0  0  0  0
 49 52  1  0  0  0  0
 49 53  1  0  0  0  0
 21 31  1  0  0  0  0
 21 32  1  0  0  0  0
 39 44  1  0  0  0  0
  8 13  1  0  0  0  0
 18 30  1  0  0  0  0
 48 50  1  0  0  0  0
  7 12  1  0  0  0  0
 38 43  1  0  0  0  0
 17 29  1  0  0  0  0
 28 37  1  0  0  0  0
M  END
$$$$

  -OEChem-05262214473D

 53 53  0     1  0  0  0  0  0999 V2000
   -1.9298    0.2574    3.9747 C   0  0  0  0  0  0  0  0  0  0  0  0
   -0.9825   -0.3573    3.4990 O   0  0  0  0  0  0  0  0  0  0  0  0
   -2.3617   -0.0250    5.3754 C   0  0  0  0  0  0  0  0  0  0  0  0
   -3.1214   -0.8213    5.4288 H   0  0  0  0  0  0  0  0  0  0  0  0
   -1.5305   -0.3726    6.0097 H   0  0  0  0  0  0  0  0  0  0  0  0
   -2.7997    0.8299    5.9150 H   0  0  0  0  0  0  0  0  0  0  0  0
   -2.6795    1.2298    3.3336 N   0  0  0  0  0  0  0  0  0  0  0  0
   -2.4327    1.6559    1.9812 C   0  0  2  0  0  0  0  0  0  0  0  0
   -1.0977    1.0705    1.5400 C   0  0  0  0  0  0  0  0  0  0  0  0
   -0.2256    0.7177    2.3313 O   0  0  0  0  0  0  0  0  0  0  0  0
   -2.4239    3.1726    1.8718 C   0  0  0  0  0  0  0  0  0  0  0  0
   -3.4446    1.6657    3.8454 H   0  0  0  0  0  0  0  0  0  0  0  0
   -3.2368    1.2374    1.3661 H   0  0  0  0  0  0  0  0  0  0  0  0
   -1.6248    3.6099    2.4815 H   0  0  0  0  0  0  0  0  0  0  0  0
   -2.2644    3.4949    0.8375 H   0  0  0  0  0  0  0  0  0  0  0  0
   -3.3741    3.5939    2.2175 H   0  0  0  0  0  0  0  0  0  0  0  0
   -0.9750    1.0274    0.1566 N   0  0  0  0  0  0  0  0  0  0  0  0
    0.2023    0.5266   -0.5070 C   0  0  2  0  0  0  0  0  0  0  0  0
   -0.2474   -0.0636   -1.8388 C   0  0  0  0  0  0  0  0  0  0  0  0
   -0.0263    0.4784   -2.9196 O   0  0  0  0  0  0  0  0  0  0  0  0
    0.9302   -0.5338    0.3271 C   0  0  0  0  0  0  0  0  0  0  0  0
    1.5353    0.0307    1.5893 C   0  0  0  0  0  0  0  0  0  0  0  0
    2.7610    0.6946    1.5389 C   0  0  0  0  0  0  0  0  0  0  0  0
    0.8689   -0.1121    2.8063 C   0  0  0  0  0  0  0  0  0  0  0  0
    3.3203    1.2158    2.7056 C   0  0  0  0  0  0  0  0  0  0  0  0
    1.4282    0.4091    3.9730 C   0  0  0  0  0  0  0  0  0  0  0  0
    2.6540    1.0730    3.9227 C   0  0  0  0  0  0  0  0  0  0  0  0
    3.2005    1.5805    5.0612 O   0  0  0  0  0  0  0  0  0  0  0  0
   -1.7582    1.3241   -0.4207 H   0  0  0  0  0  0  0  0  0  0  0  0
    0.8459    1.3934   -0.6977 H   0  0  0  0  0  0  0  0  0  0  0  0
    1.7124   -1.0186   -0.2727 H   0  0  0  0  0  0  0  0  0  0  0  0
    0.2408   -1.3410    0.6076 H   0  0  0  0  0  0  0  0  0  0  0  0
    3.2871    0.8105    0.5952 H   0  0  0  0  0  0  0  0  0  0  0  0
   -0.0867   -0.6278    2.8550 H   0  0  0  0  0  0  0  0  0  0  0  0
    4.2757    1.7317    2.6600 H   0  0  0  0  0  0  0  0  0  0  0  0
    0.9044    0.2943    4.9179 H   0  0  0  0  0  0  0  0  0  0  0  0
    2.6225    1.4024    5.8202 H   0  0  0  0  0  0  0  0  0  0  0  0
   -0.8790   -1.2890   -1.6773 N   0  0  0  0  0  0  0  0  0  0  0  0
   -1.3826   -2.0738   -2.7814 C   0  0  2  0  0  0  0  0  0  0  0  0
   -2.2330   -1.1627   -3.6568 C   0  0  0  0  0  0  0  0  0  0  0  0
   -2.7494   -0.1265   -3.2436 O   0  0  0  0  0  0  0  0  0  0  0  0
   -2.1907   -3.2649   -2.2905 C   0  0  0  0  0  0  0  0  0  0  0  0
   -0.9930   -1.6524   -0.7357 H   0  0  0  0  0  0  0  0  0  0  0  0
   -0.5109   -2.4170   -3.3491 H   0  0  0  0  0  0  0  0  0  0  0  0
   -3.0684   -2.9407   -1.7195 H   0  0  0  0  0  0  0  0  0  0  0  0
   -2.5475   -3.8743   -3.1273 H   0  0  0  0  0  0  0  0  0  0  0  0
   -1.5863   -3.9032   -1.6371 H   0  0  0  0  0  0  0  0  0  0  0  0
   -2.3830   -1.6649   -4.9419 N   0  0  0  0  0  0  0  0  0  0  0  0
   -3.1565   -0.9895   -5.9575 C   0  0  0  0  0  0  0  0  0  0  0  0
   -1.9036   -2.5216   -5.2027 H   0  0  0  0  0  0  0  0  0  0  0  0
   -4.1892   -1.3681   -5.9449 H   0  0  0  0  0  0  0  0  0  0  0  0
   -3.1602    0.0920   -5.7568 H   0  0  0  0  0  0  0  0  0  0  0  0
   -2.7091   -1.1777   -6.9446 H   0  0  0  0  0  0  0  0  0  0  0  0
 23 25  2  0  0  0  0
 22 23  1  0  0  0  0
 24 26  1  0  0  0  0
 22 24  2  0  0  0  0
 25 27  1  0  0  0  0
 26 27  2  0  0  0  0
 21 22  1  0  0  0  0
 27 28  1  0  0  0  0
  1  3  1  0  0  0  0
  1  7  1  0  0  0  0
  1  2  2  0  0  0  0
 39 40  1  0  0  0  0
 40 48  1  0  0  0  0
 40 41  2  0  0  0  0
  8  9  1  0  0  0  0
  9 17  1  0  0  0  0
  9 10  2  0  0  0  0
 18 19  1  0  0  0  0
 19 38  1  0  0  0  0
 19 20  2  0  0  0  0
 39 42  1  0  0  0  0
  8 11  1  0  0  0  0
 48 49  1  0  0  0  0
 18 21  1  0  0  0  0
 38 39  1  0  0  0  0
  7  8  1  0  0  0  0
 17 18  1  0  0  0  0
 23 33  1  0  0  0  0
 24 34  1  0  0  0  0
 25 35  1  0  0  0  0
 26 36  1  0  0  0  0
  3  4  1  0  0  0  0
  3  5  1  0  0  0  0
  3  6  1  0  0  0  0
 42 45  1  0  0  0  0
 42 46  1  0  0  0  0
 42 47  1  0  0  0  0
 11 14  1  0  0  0  0
 11 15  1  0  0  0  0
 11 16  1  0  0  0  0
 49 51  1  0  0  0  0
 49 52  1  0  0  0  0
 49 53  1  0  0  0  0
 21 31  1  0  0  0  0
 21 32  1  0  0  0  0
 39 44  1  0  0  0  0
  8 13  1  0  0  0  0
 18 30  1  0  0  0  0
 48 50  1  0  0  0  0
  7 12  1  0  0  0  0
 38 43  1  0  0  0  0
 17 29  1  0  0  0  0
 28 37  1  0  0  0  0
M  END
$$$$

  -OEChem-05262214473D

 53 53  0     1  0  0  0  0  0999 V2000
   -1.9298    0.2574    3.9747 C   0  0  0  0  0  0  0  0  0  0  0  0
   -0.9825   -0.3573    3.4990 O   0  0  0  0  0  0  0  0  0  0  0  0
   -2.3617   -0.0250    5.3754 C   0  0  0  0  0  0  0  0  0  0  0  0
   -3.1214   -0.8213    5.4288 H   0  0  0  0  0  0  0  0  0  0  0  0
   -1.5305   -0.3726    6.0097 H   0  0  0  0  0  0  0  0  0  0  0  0
   -2.7997    0.8299    5.9150 H   0  0  0  0  0  0  0  0  0  0  0  0
   -2.6795    1.2298    3.3336 N   0  0  0  0  0  0  0  0  0  0  0  0
   -2.4327    1.6559    1.9812 C   0  0  2  0  0  0  0  0  0  0  0  0
   -1.0977    1.0705    1.5400 C   0  0  0  0  0  0  0  0  0  0  0  0
   -0.2256    0.7177    2.3313 O   0  0  0  0  0  0  0  0  0  0  0  0
   -2.4239    3.1726    1.8718 C   0  0  0  0  0  0  0  0  0  0  0  0
   -3.4446    1.6657    3.8454 H   0  0  0  0  0  0  0  0  0  0  0  0
   -3.2368    1.2374    1.3661 H   0  0  0  0  0  0  0  0  0  0  0  0
   -1.6248    3.6099    2.4815 H   0  0  0  0  0  0  0  0  0  0  0  0
   -2.2644    3.4949    0.8375 H   0  0  0  0  0  0  0  0  0  0  0  0
   -3.3741    3.5939    2.2175 H   0  0  0  0  0  0  0  0  0  0  0  0
   -0.9750    1.0274    0.1566 N   0  0  0  0  0  0  0  0  0  0  0  0
    0.2023    0.5266   -0.5070 C   0  0  2  0  0  0  0  0  0  0  0  0
   -0.2474   -0.0636   -1.8388 C   0  0  0  0  0  0  0  0  0  0  0  0
    0.1903    0.3186   -2.9220 O   0  0  0  0  0  0  0  0  0  0  0  0
    0.9302   -0.5338    0.3271 C   0  0  0  0  0  0  0  0  0  0  0  0
    1.5353    0.0307    1.5893 C   0  0  0  0  0  0  0  0  0  0  0  0
    2.7610    0.6946    1.5389 C   0  0  0  0  0  0  0  0  0  0  0  0
    0.8689   -0.1121    2.8063 C   0  0  0  0  0  0  0  0  0  0  0  0
    3.3203    1.2158    2.7056 C   0  0  0  0  0  0  0  0  0  0  0  0
    1.4282    0.4091    3.9730 C   0  0  0  0  0  0  0  0  0  0  0  0
    2.6540    1.0730    3.9227 C   0  0  0  0  0  0  0  0  0  0  0  0
    3.2005    1.5805    5.0612 O   0  0  0  0  0  0  0  0  0  0  0  0
   -1.7582    1.3241   -0.4207 H   0  0  0  0  0  0  0  0  0  0  0  0
    0.8459    1.3934   -0.6977 H   0  0  0  0  0  0  0  0  0  0  0  0
    1.7124   -1.0186   -0.2727 H   0  0  0  0  0  0  0  0  0  0  0  0
    0.2408   -1.3410    0.6076 H   0  0  0  0  0  0  0  0  0  0  0  0
    3.2871    0.8105    0.5952 H   0  0  0  0  0  0  0  0  0  0  0  0
   -0.0867   -0.6278    2.8550 H   0  0  0  0  0  0  0  0  0  0  0  0
    4.2757    1.7317    2.6600 H   0  0  0  0  0  0  0  0  0  0  0  0
    0.9044    0.2943    4.9179 H   0  0  0  0  0  0  0  0  0  0  0  0
    2.6225    1.4024    5.8202 H   0  0  0  0  0  0  0  0  0  0  0  0
   -1.1559   -1.0989   -1.6680 N   0  0  0  0  0  0  0  0  0  0  0  0
   -1.7235   -1.8461   -2.7672 C   0  0  2  0  0  0  0  0  0  0  0  0
   -2.2578   -0.8494   -3.7872 C   0  0  0  0  0  0  0  0  0  0  0  0
   -2.5576    0.3079   -3.5009 O   0  0  0  0  0  0  0  0  0  0  0  0
   -2.8252   -2.7800   -2.2911 C   0  0  0  0  0  0  0  0  0  0  0  0
   -1.4360   -1.3438   -0.7228 H   0  0  0  0  0  0  0  0  0  0  0  0
   -0.9058   -2.4230   -3.2131 H   0  0  0  0  0  0  0  0  0  0  0  0
   -3.6533   -2.2201   -1.8414 H   0  0  0  0  0  0  0  0  0  0  0  0
   -3.2346   -3.3661   -3.1206 H   0  0  0  0  0  0  0  0  0  0  0  0
   -2.4461   -3.4768   -1.5357 H   0  0  0  0  0  0  0  0  0  0  0  0
   -2.4012   -1.4166   -5.0457 N   0  0  0  0  0  0  0  0  0  0  0  0
   -2.9024   -0.6782   -6.1813 C   0  0  0  0  0  0  0  0  0  0  0  0
   -2.1099   -2.3779   -5.1967 H   0  0  0  0  0  0  0  0  0  0  0  0
   -3.9912   -0.8153   -6.2568 H   0  0  0  0  0  0  0  0  0  0  0  0
   -2.6756    0.3905   -6.0527 H   0  0  0  0  0  0  0  0  0  0  0  0
   -2.4220   -1.0471   -7.0995 H   0  0  0  0  0  0  0  0  0  0  0  0
 23 25  2  0  0  0  0
 22 23  1  0  0  0  0
 24 26  1  0  0  0  0
 22 24  2  0  0  0  0
 25 27  1  0  0  0  0
 26 27  2  0  0  0  0
 21 22  1  0  0  0  0
 27 28  1  0  0  0  0
  1  3  1  0  0  0  0
  1  7  1  0  0  0  0
  1  2  2  0  0  0  0
 39 40  1  0  0  0  0
 40 48  1  0  0  0  0
 40 41  2  0  0  0  0
  8  9  1  0  0  0  0
  9 17  1  0  0  0  0
  9 10  2  0  0  0  0
 18 19  1  0  0  0  0
 19 38  1  0  0  0  0
 19 20  2  0  0  0  0
 39 42  1  0  0  0  0
  8 11  1  0  0  0  0
 48 49  1  0  0  0  0
 18 21  1  0  0  0  0
 38 39  1  0  0  0  0
  7  8  1  0  0  0  0
 17 18  1  0  0  0  0
 23 33  1  0  0  0  0
 24 34  1  0  0  0  0
 25 35  1  0  0  0  0
 26 36  1  0  0  0  0
  3  4  1  0  0  0  0
  3  5  1  0  0  0  0
  3  6  1  0  0  0  0
 42 45  1  0  0  0  0
 42 46  1  0  0  0  0
 42 47  1  0  0  0  0
 11 14  1  0  0  0  0
 11 15  1  0  0  0  0
 11 16  1  0  0  0  0
 49 51  1  0  0  0  0
 49 52  1  0  0  0  0
 49 53  1  0  0  0  0
 21 31  1  0  0  0  0
 21 32  1  0  0  0  0
 39 44  1  0  0  0  0
  8 13  1  0  0  0  0
 18 30  1  0  0  0  0
 48 50  1  0  0  0  0
  7 12  1  0  0  0  0
 38 43  1  0  0  0  0
 17 29  1  0  0  0  0
 28 37  1  0  0  0  0
M  END
$$$$

  -OEChem-05262214473D

 53 53  0     1  0  0  0  0  0999 V2000
   -1.9298    0.2574    3.9747 C   0  0  0  0  0  0  0  0  0  0  0  0
   -0.9825   -0.3573    3.4990 O   0  0  0  0  0  0  0  0  0  0  0  0
   -2.3617   -0.0250    5.3754 C   0  0  0  0  0  0  0  0  0  0  0  0
   -3.1214   -0.8213    5.4288 H   0  0  0  0  0  0  0  0  0  0  0  0
   -1.5305   -0.3726    6.0097 H   0  0  0  0  0  0  0  0  0  0  0  0
   -2.7997    0.8299    5.9150 H   0  0  0  0  0  0  0  0  0  0  0  0
   -2.6795    1.2298    3.3336 N   0  0  0  0  0  0  0  0  0  0  0  0
   -2.4327    1.6559    1.9812 C   0  0  2  0  0  0  0  0  0  0  0  0
   -1.0977    1.0705    1.5400 C   0  0  0  0  0  0  0  0  0  0  0  0
   -0.2256    0.7177    2.3313 O   0  0  0  0  0  0  0  0  0  0  0  0
   -2.4239    3.1726    1.8718 C   0  0  0  0  0  0  0  0  0  0  0  0
   -3.4446    1.6657    3.8454 H   0  0  0  0  0  0  0  0  0  0  0  0
   -3.2368    1.2374    1.3661 H   0  0  0  0  0  0  0  0  0  0  0  0
   -1.6248    3.6099    2.4815 H   0  0  0  0  0  0  0  0  0  0  0  0
   -2.2644    3.4949    0.8375 H   0  0  0  0  0  0  0  0  0  0  0  0
   -3.3741    3.5939    2.2175 H   0  0  0  0  0  0  0  0  0  0  0  0
   -0.9750    1.0274    0.1566 N   0  0  0  0  0  0  0  0  0  0  0  0
    0.2023    0.5266   -0.5070 C   0  0  2  0  0  0  0  0  0  0  0  0
   -0.2474   -0.0636   -1.8388 C   0  0  0  0  0  0  0  0  0  0  0  0
    0.3636    0.1151   -2.8903 O   0  0  0  0  0  0  0  0  0  0  0  0
    0.9302   -0.5338    0.3271 C   0  0  0  0  0  0  0  0  0  0  0  0
    1.5353    0.0307    1.5893 C   0  0  0  0  0  0  0  0  0  0  0  0
    2.7610    0.6946    1.5389 C   0  0  0  0  0  0  0  0  0  0  0  0
    0.8689   -0.1121    2.8063 C   0  0  0  0  0  0  0  0  0  0  0  0
    3.3203    1.2158    2.7056 C   0  0  0  0  0  0  0  0  0  0  0  0
    1.4282    0.4091    3.9730 C   0  0  0  0  0  0  0  0  0  0  0  0
    2.6540    1.0730    3.9227 C   0  0  0  0  0  0  0  0  0  0  0  0
    3.2005    1.5805    5.0612 O   0  0  0  0  0  0  0  0  0  0  0  0
   -1.7582    1.3241   -0.4207 H   0  0  0  0  0  0  0  0  0  0  0  0
    0.8459    1.3934   -0.6977 H   0  0  0  0  0  0  0  0  0  0  0  0
    1.7124   -1.0186   -0.2727 H   0  0  0  0  0  0  0  0  0  0  0  0
    0.2408   -1.3410    0.6076 H   0  0  0  0  0  0  0  0  0  0  0  0
    3.2871    0.8105    0.5952 H   0  0  0  0  0  0  0  0  0  0  0  0
   -0.0867   -0.6278    2.8550 H   0  0  0  0  0  0  0  0  0  0  0  0
    4.2757    1.7317    2.6600 H   0  0  0  0  0  0  0  0  0  0  0  0
    0.9044    0.2943    4.9179 H   0  0  0  0  0  0  0  0  0  0  0  0
    2.6225    1.4024    5.8202 H   0  0  0  0  0  0  0  0  0  0  0  0
   -1.3814   -0.8521   -1.7013 N   0  0  0  0  0  0  0  0  0  0  0  0
   -2.0026   -1.5481   -2.8051 C   0  0  2  0  0  0  0  0  0  0  0  0
   -2.1979   -0.5511   -3.9397 C   0  0  0  0  0  0  0  0  0  0  0  0
   -2.2484    0.6644   -3.7633 O   0  0  0  0  0  0  0  0  0  0  0  0
   -3.3284   -2.1683   -2.3923 C   0  0  0  0  0  0  0  0  0  0  0  0
   -1.7955   -0.9445   -0.7784 H   0  0  0  0  0  0  0  0  0  0  0  0
   -1.3023   -2.3291   -3.1208 H   0  0  0  0  0  0  0  0  0  0  0  0
   -4.0430   -1.4010   -2.0727 H   0  0  0  0  0  0  0  0  0  0  0  0
   -3.7840   -2.7193   -3.2217 H   0  0  0  0  0  0  0  0  0  0  0  0
   -3.1904   -2.8627   -1.5565 H   0  0  0  0  0  0  0  0  0  0  0  0
   -2.3522   -1.1807   -5.1669 N   0  0  0  0  0  0  0  0  0  0  0  0
   -2.5642   -0.4520   -6.3957 C   0  0  0  0  0  0  0  0  0  0  0  0
   -2.2772   -2.1921   -5.2225 H   0  0  0  0  0  0  0  0  0  0  0  0
   -3.6438   -0.3498   -6.5804 H   0  0  0  0  0  0  0  0  0  0  0  0
   -2.1104    0.5466   -6.3127 H   0  0  0  0  0  0  0  0  0  0  0  0
   -2.0996   -0.9977   -7.2302 H   0  0  0  0  0  0  0  0  0  0  0  0
 23 25  2  0  0  0  0
 22 23  1  0  0  0  0
 24 26  1  0  0  0  0
 22 24  2  0  0  0  0
 25 27  1  0  0  0  0
 26 27  2  0  0  0  0
 21 22  1  0  0  0  0
 27 28  1  0  0  0  0
  1  3  1  0  0  0  0
  1  7  1  0  0  0  0
  1  2  2  0  0  0  0
 39 40  1  0  0  0  0
 40 48  1  0  0  0  0
 40 41  2  0  0  0  0
  8  9  1  0  0  0  0
  9 17  1  0  0  0  0
  9 10  2  0  0  0  0
 18 19  1  0  0  0  0
 19 38  1  0  0  0  0
 19 20  2  0  0  0  0
 39 42  1  0  0  0  0
  8 11  1  0  0  0  0
 48 49  1  0  0  0  0
 18 21  1  0  0  0  0
 38 39  1  0  0  0  0
  7  8  1  0  0  0  0
 17 18  1  0  0  0  0
 23 33  1  0  0  0  0
 24 34  1  0  0  0  0
 25 35  1  0  0  0  0
 26 36  1  0  0  0  0
  3  4  1  0  0  0  0
  3  5  1  0  0  0  0
  3  6  1  0  0  0  0
 42 45  1  0  0  0  0
 42 46  1  0  0  0  0
 42 47  1  0  0  0  0
 11 14  1  0  0  0  0
 11 15  1  0  0  0  0
 11 16  1  0  0  0  0
 49 51  1  0  0  0  0
 49 52  1  0  0  0  0
 49 53  1  0  0  0  0
 21 31  1  0  0  0  0
 21 32  1  0  0  0  0
 39 44  1  0  0  0  0
  8 13  1  0  0  0  0
 18 30  1  0  0  0  0
 48 50  1  0  0  0  0
  7 12  1  0  0  0  0
 38 43  1  0  0  0  0
 17 29  1  0  0  0  0
 28 37  1  0  0  0  0
M  END
$$$$

  -OEChem-05262214473D

 53 53  0     1  0  0  0  0  0999 V2000
   -1.9298    0.2574    3.9747 C   0  0  0  0  0  0  0  0  0  0  0  0
   -0.9825   -0.3573    3.4990 O   0  0  0  0  0  0  0  0  0  0  0  0
   -2.3617   -0.0250    5.3754 C   0  0  0  0  0  0  0  0  0  0  0  0
   -3.1214   -0.8213    5.4288 H   0  0  0  0  0  0  0  0  0  0  0  0
   -1.5305   -0.3726    6.0097 H   0  0  0  0  0  0  0  0  0  0  0  0
   -2.7997    0.8299    5.9150 H   0  0  0  0  0  0  0  0  0  0  0  0
   -2.6795    1.2298    3.3336 N   0  0  0  0  0  0  0  0  0  0  0  0
   -2.4327    1.6559    1.9812 C   0  0  2  0  0  0  0  0  0  0  0  0
   -1.0977    1.0705    1.5400 C   0  0  0  0  0  0  0  0  0  0  0  0
   -0.2256    0.7177    2.3313 O   0  0  0  0  0  0  0  0  0  0  0  0
   -2.4239    3.1726    1.8718 C   0  0  0  0  0  0  0  0  0  0  0  0
   -3.4446    1.6657    3.8454 H   0  0  0  0  0  0  0  0  0  0  0  0
   -3.2368    1.2374    1.3661 H   0  0  0  0  0  0  0  0  0  0  0  0
   -1.6248    3.6099    2.4815 H   0  0  0  0  0  0  0  0  0  0  0  0
   -2.2644    3.4949    0.8375 H   0  0  0  0  0  0  0  0  0  0  0  0
   -3.3741    3.5939    2.2175 H   0  0  0  0  0  0  0  0  0  0  0  0
   -0.9750    1.0274    0.1566 N   0  0  0  0  0  0  0  0  0  0  0  0
    0.2023    0.5266   -0.5070 C   0  0  2  0  0  0  0  0  0  0  0  0
   -0.2474   -0.0636   -1.8388 C   0  0  0  0  0  0  0  0  0  0  0  0
    0.4818   -0.1182   -2.8268 O   0  0  0  0  0  0  0  0  0  0  0  0
    0.9302   -0.5338    0.3271 C   0  0  0  0  0  0  0  0  0  0  0  0
    1.5353    0.0307    1.5893 C   0  0  0  0  0  0  0  0  0  0  0  0
    2.7610    0.6946    1.5389 C   0  0  0  0  0  0  0  0  0  0  0  0
    0.8689   -0.1121    2.8063 C   0  0  0  0  0  0  0  0  0  0  0  0
    3.3203    1.2158    2.7056 C   0  0  0  0  0  0  0  0  0  0  0  0
    1.4282    0.4091    3.9730 C   0  0  0  0  0  0  0  0  0  0  0  0
    2.6540    1.0730    3.9227 C   0  0  0  0  0  0  0  0  0  0  0  0
    3.2005    1.5805    5.0612 O   0  0  0  0  0  0  0  0  0  0  0  0
   -1.7582    1.3241   -0.4207 H   0  0  0  0  0  0  0  0  0  0  0  0
    0.8459    1.3934   -0.6977 H   0  0  0  0  0  0  0  0  0  0  0  0
    1.7124   -1.0186   -0.2727 H   0  0  0  0  0  0  0  0  0  0  0  0
    0.2408   -1.3410    0.6076 H   0  0  0  0  0  0  0  0  0  0  0  0
    3.2871    0.8105    0.5952 H   0  0  0  0  0  0  0  0  0  0  0  0
   -0.0867   -0.6278    2.8550 H   0  0  0  0  0  0  0  0  0  0  0  0
    4.2757    1.7317    2.6600 H   0  0  0  0  0  0  0  0  0  0  0  0
    0.9044    0.2943    4.9179 H   0  0  0  0  0  0  0  0  0  0  0  0
    2.6225    1.4024    5.8202 H   0  0  0  0  0  0  0  0  0  0  0  0
   -1.5400   -0.5652   -1.7748 N   0  0  0  0  0  0  0  0  0  0  0  0
   -2.2011   -1.2000   -2.8923 C   0  0  2  0  0  0  0  0  0  0  0  0
   -2.0572   -0.2882   -4.1037 C   0  0  0  0  0  0  0  0  0  0  0  0
   -1.8428    0.9188   -4.0130 O   0  0  0  0  0  0  0  0  0  0  0  0
   -3.6660   -1.4713   -2.5872 C   0  0  0  0  0  0  0  0  0  0  0  0
   -2.0469   -0.4818   -0.8985 H   0  0  0  0  0  0  0  0  0  0  0  0
   -1.6734   -2.1417   -3.0786 H   0  0  0  0  0  0  0  0  0  0  0  0
   -4.2112   -0.5395   -2.3978 H   0  0  0  0  0  0  0  0  0  0  0  0
   -4.1583   -1.9780   -3.4238 H   0  0  0  0  0  0  0  0  0  0  0  0
   -3.7684   -2.1029   -1.6981 H   0  0  0  0  0  0  0  0  0  0  0  0
   -2.2394   -0.9730   -5.2970 N   0  0  0  0  0  0  0  0  0  0  0  0
   -2.1649   -0.3264   -6.5862 C   0  0  0  0  0  0  0  0  0  0  0  0
   -2.3943   -1.9767   -5.2784 H   0  0  0  0  0  0  0  0  0  0  0  0
   -3.1705   -0.0035   -6.8937 H   0  0  0  0  0  0  0  0  0  0  0  0
   -1.5031    0.5498   -6.5192 H   0  0  0  0  0  0  0  0  0  0  0  0
   -1.7639   -1.0328   -7.3280 H   0  0  0  0  0  0  0  0  0  0  0  0
 23 25  2  0  0  0  0
 22 23  1  0  0  0  0
 24 26  1  0  0  0  0
 22 24  2  0  0  0  0
 25 27  1  0  0  0  0
 26 27  2  0  0  0  0
 21 22  1  0  0  0  0
 27 28  1  0  0  0  0
  1  3  1  0  0  0  0
  1  7  1  0  0  0  0
  1  2  2  0  0  0  0
 39 40  1  0  0  0  0
 40 48  1  0  0  0  0
 40 41  2  0  0  0  0
  8  9  1  0  0  0  0
  9 17  1  0  0  0  0
  9 10  2  0  0  0  0
 18 19  1  0  0  0  0
 19 38  1  0  0  0  0
 19 20  2  0  0  0  0
 39 42  1  0  0  0  0
  8 11  1  0  0  0  0
 48 49  1  0  0  0  0
 18 21  1  0  0  0  0
 38 39  1  0  0  0  0
  7  8  1  0  0  0  0
 17 18  1  0  0  0  0
 23 33  1  0  0  0  0
 24 34  1  0  0  0  0
 25 35  1  0  0  0  0
 26 36  1  0  0  0  0
  3  4  1  0  0  0  0
  3  5  1  0  0  0  0
  3  6  1  0  0  0  0
 42 45  1  0  0  0  0
 42 46  1  0  0  0  0
 42 47  1  0  0  0  0
 11 14  1  0  0  0  0
 11 15  1  0  0  0  0
 11 16  1  0  0  0  0
 49 51  1  0  0  0  0
 49 52  1  0  0  0  0
 49 53  1  0  0  0  0
 21 31  1  0  0  0  0
 21 32  1  0  0  0  0
 39 44  1  0  0  0  0
  8 13  1  0  0  0  0
 18 30  1  0  0  0  0
 48 50  1  0  0  0  0
  7 12  1  0  0  0  0
 38 43  1  0  0  0  0
 17 29  1  0  0  0  0
 28 37  1  0  0  0  0
M  END
$$$$

  -OEChem-05262214473D

 53 53  0     1  0  0  0  0  0999 V2000
   -1.9298    0.2574    3.9747 C   0  0  0  0  0  0  0  0  0  0  0  0
   -0.9825   -0.3573    3.4990 O   0  0  0  0  0  0  0  0  0  0  0  0
   -2.3617   -0.0250    5.3754 C   0  0  0  0  0  0  0  0  0  0  0  0
   -3.1214   -0.8213    5.4288 H   0  0  0  0  0  0  0  0  0  0  0  0
   -1.5305   -0.3726    6.0097 H   0  0  0  0  0  0  0  0  0  0  0  0
   -2.7997    0.8299    5.9150 H   0  0  0  0  0  0  0  0  0  0  0  0
   -2.6795    1.2298    3.3336 N   0  0  0  0  0  0  0  0  0  0  0  0
   -2.4327    1.6559    1.9812 C   0  0  2  0  0  0  0  0  0  0  0  0
   -1.0977    1.0705    1.5400 C   0  0  0  0  0  0  0  0  0  0  0  0
   -0.2256    0.7177    2.3313 O   0  0  0  0  0  0  0  0  0  0  0  0
   -2.4239    3.1726    1.8718 C   0  0  0  0  0  0  0  0  0  0  0  0
   -3.4446    1.6657    3.8454 H   0  0  0  0  0  0  0  0  0  0  0  0
   -3.2368    1.2374    1.3661 H   0  0  0  0  0  0  0  0  0  0  0  0
   -1.6248    3.6099    2.4815 H   0  0  0  0  0  0  0  0  0  0  0  0
   -2.2644    3.4949    0.8375 H   0  0  0  0  0  0  0  0  0  0  0  0
   -3.3741    3.5939    2.2175 H   0  0  0  0  0  0  0  0  0  0  0  0
   -0.9750    1.0274    0.1566 N   0  0  0  0  0  0  0  0  0  0  0  0
    0.2023    0.5266   -0.5070 C   0  0  2  0  0  0  0  0  0  0  0  0
   -0.2474   -0.0636   -1.8388 C   0  0  0  0  0  0  0  0  0  0  0  0
    0.5369   -0.3655   -2.7358 O   0  0  0  0  0  0  0  0  0  0  0  0
    0.9302   -0.5338    0.3271 C   0  0  0  0  0  0  0  0  0  0  0  0
    1.5353    0.0307    1.5893 C   0  0  0  0  0  0  0  0  0  0  0  0
    2.7610    0.6946    1.5389 C   0  0  0  0  0  0  0  0  0  0  0  0
    0.8689   -0.1121    2.8063 C   0  0  0  0  0  0  0  0  0  0  0  0
    3.3203    1.2158    2.7056 C   0  0  0  0  0  0  0  0  0  0  0  0
    1.4282    0.4091    3.9730 C   0  0  0  0  0  0  0  0  0  0  0  0
    2.6540    1.0730    3.9227 C   0  0  0  0  0  0  0  0  0  0  0  0
    3.2005    1.5805    5.0612 O   0  0  0  0  0  0  0  0  0  0  0  0
   -1.7582    1.3241   -0.4207 H   0  0  0  0  0  0  0  0  0  0  0  0
    0.8459    1.3934   -0.6977 H   0  0  0  0  0  0  0  0  0  0  0  0
    1.7124   -1.0186   -0.2727 H   0  0  0  0  0  0  0  0  0  0  0  0
    0.2408   -1.3410    0.6076 H   0  0  0  0  0  0  0  0  0  0  0  0
    3.2871    0.8105    0.5952 H   0  0  0  0  0  0  0  0  0  0  0  0
   -0.0867   -0.6278    2.8550 H   0  0  0  0  0  0  0  0  0  0  0  0
    4.2757    1.7317    2.6600 H   0  0  0  0  0  0  0  0  0  0  0  0
    0.9044    0.2943    4.9179 H   0  0  0  0  0  0  0  0  0  0  0  0
    2.6225    1.4024    5.8202 H   0  0  0  0  0  0  0  0  0  0  0  0
   -1.6210   -0.2578   -1.8837 N   0  0  0  0  0  0  0  0  0  0  0  0
   -2.3054   -0.8255   -3.0231 C   0  0  2  0  0  0  0  0  0  0  0  0
   -1.8455   -0.0785   -4.2681 C   0  0  0  0  0  0  0  0  0  0  0  0
   -1.3685    1.0538   -4.2330 O   0  0  0  0  0  0  0  0  0  0  0  0
   -3.8150   -0.7367   -2.8624 C   0  0  0  0  0  0  0  0  0  0  0  0
   -2.1731    0.0127   -1.0751 H   0  0  0  0  0  0  0  0  0  0  0  0
   -1.9936   -1.8736   -3.0893 H   0  0  0  0  0  0  0  0  0  0  0  0
   -4.1462    0.3060   -2.7944 H   0  0  0  0  0  0  0  0  0  0  0  0
   -4.3321   -1.1928   -3.7131 H   0  0  0  0  0  0  0  0  0  0  0  0
   -4.1408   -1.2491   -1.9507 H   0  0  0  0  0  0  0  0  0  0  0  0
   -2.0704   -0.8079   -5.4272 N   0  0  0  0  0  0  0  0  0  0  0  0
   -1.7317   -0.3098   -6.7398 C   0  0  0  0  0  0  0  0  0  0  0  0
   -2.4530   -1.7465   -5.3606 H   0  0  0  0  0  0  0  0  0  0  0  0
   -2.6036    0.2001   -7.1754 H   0  0  0  0  0  0  0  0  0  0  0  0
   -0.8951    0.3998   -6.6580 H   0  0  0  0  0  0  0  0  0  0  0  0
   -1.4378   -1.1501   -7.3861 H   0  0  0  0  0  0  0  0  0  0  0  0
 23 25  2  0  0  0  0
 22 23  1  0  0  0  0
 24 26  1  0  0  0  0
 22 24  2  0  0  0  0
 25 27  1  0  0  0  0
 26 27  2  0  0  0  0
 21 22  1  0  0  0  0
 27 28  1  0  0  0  0
  1  3  1  0  0  0  0
  1  7  1  0  0  0  0
  1  2  2  0  0  0  0
 39 40  1  0  0  0  0
 40 48  1  0  0  0  0
 40 41  2  0  0  0  0
  8  9  1  0  0  0  0
  9 17  1  0  0  0  0
  9 10  2  0  0  0  0
 18 19  1  0  0  0  0
 19 38  1  0  0  0  0
 19 20  2  0  0  0  0
 39 42  1  0  0  0  0
  8 11  1  0  0  0  0
 48 49  1  0  0  0  0
 18 21  1  0  0  0  0
 38 39  1  0  0  0  0
  7  8  1  0  0  0  0
 17 18  1  0  0  0  0
 23 33  1  0  0  0  0
 24 34  1  0  0  0  0
 25 35  1  0  0  0  0
 26 36  1  0  0  0  0
  3  4  1  0  0  0  0
  3  5  1  0  0  0  0
  3  6  1  0  0  0  0
 42 45  1  0  0  0  0
 42 46  1  0  0  0  0
 42 47  1  0  0  0  0
 11 14  1  0  0  0  0
 11 15  1  0  0  0  0
 11 16  1  0  0  0  0
 49 51  1  0  0  0  0
 49 52  1  0  0  0  0
 49 53  1  0  0  0  0
 21 31  1  0  0  0  0
 21 32  1  0  0  0  0
 39 44  1  0  0  0  0
  8 13  1  0  0  0  0
 18 30  1  0  0  0  0
 48 50  1  0  0  0  0
  7 12  1  0  0  0  0
 38 43  1  0  0  0  0
 17 29  1  0  0  0  0
 28 37  1  0  0  0  0
M  END
$$$$

  -OEChem-05262214473D

 53 53  0     1  0  0  0  0  0999 V2000
   -1.9298    0.2574    3.9747 C   0  0  0  0  0  0  0  0  0  0  0  0
   -0.9825   -0.3573    3.4990 O   0  0  0  0  0  0  0  0  0  0  0  0
   -2.3617   -0.0250    5.3754 C   0  0  0  0  0  0  0  0  0  0  0  0
   -3.1214   -0.8213    5.4288 H   0  0  0  0  0  0  0  0  0  0  0  0
   -1.5305   -0.3726    6.0097 H   0  0  0  0  0  0  0  0  0  0  0  0
   -2.7997    0.8299    5.9150 H   0  0  0  0  0  0  0  0  0  0  0  0
   -2.6795    1.2298    3.3336 N   0  0  0  0  0  0  0  0  0  0  0  0
   -2.4327    1.6559    1.9812 C   0  0  2  0  0  0  0  0  0  0  0  0
   -1.0977    1.0705    1.5400 C   0  0  0  0  0  0  0  0  0  0  0  0
   -0.2256    0.7177    2.3313 O   0  0  0  0  0  0  0  0  0  0  0  0
   -2.4239    3.1726    1.8718 C   0  0  0  0  0  0  0  0  0  0  0  0
   -3.4446    1.6657    3.8454 H   0  0  0  0  0  0  0  0  0  0  0  0
   -3.2368    1.2374    1.3661 H   0  0  0  0  0  0  0  0  0  0  0  0
   -1.6248    3.6099    2.4815 H   0  0  0  0  0  0  0  0  0  0  0  0
   -2.2644    3.4949    0.8375 H   0  0  0  0  0  0  0  0  0  0  0  0
   -3.3741    3.5939    2.2175 H   0  0  0  0  0  0  0  0  0  0  0  0
   -0.9750    1.0274    0.1566 N   0  0  0  0  0  0  0  0  0  0  0  0
    0.2023    0.5266   -0.5070 C   0  0  2  0  0  0  0  0  0  0  0  0
   -0.2474   -0.0636   -1.8388 C   0  0  0  0  0  0  0  0  0  0  0  0
    0.5250   -0.6098   -2.6235 O   0  0  0  0  0  0  0  0  0  0  0  0
    0.9302   -0.5338    0.3271 C   0  0  0  0  0  0  0  0  0  0  0  0
    1.5353    0.0307    1.5893 C   0  0  0  0  0  0  0  0  0  0  0  0
    2.7610    0.6946    1.5389 C   0  0  0  0  0  0  0  0  0  0  0  0
    0.8689   -0.1121    2.8063 C   0  0  0  0  0  0  0  0  0  0  0  0
    3.3203    1.2158    2.7056 C   0  0  0  0  0  0  0  0  0  0  0  0
    1.4282    0.4091    3.9730 C   0  0  0  0  0  0  0  0  0  0  0  0
    2.6540    1.0730    3.9227 C   0  0  0  0  0  0  0  0  0  0  0  0
    3.2005    1.5805    5.0612 O   0  0  0  0  0  0  0  0  0  0  0  0
   -1.7582    1.3241   -0.4207 H   0  0  0  0  0  0  0  0  0  0  0  0
    0.8459    1.3934   -0.6977 H   0  0  0  0  0  0  0  0  0  0  0  0
    1.7124   -1.0186   -0.2727 H   0  0  0  0  0  0  0  0  0  0  0  0
    0.2408   -1.3410    0.6076 H   0  0  0  0  0  0  0  0  0  0  0  0
    3.2871    0.8105    0.5952 H   0  0  0  0  0  0  0  0  0  0  0  0
   -0.0867   -0.6278    2.8550 H   0  0  0  0  0  0  0  0  0  0  0  0
    4.2757    1.7317    2.6600 H   0  0  0  0  0  0  0  0  0  0  0  0
    0.9044    0.2943    4.9179 H   0  0  0  0  0  0  0  0  0  0  0  0
    2.6225    1.4024    5.8202 H   0  0  0  0  0  0  0  0  0  0  0  0
   -1.6188    0.0491   -2.0205 N   0  0  0  0  0  0  0  0  0  0  0  0
   -2.3083   -0.4502   -3.1884 C   0  0  2  0  0  0  0  0  0  0  0  0
   -1.5772    0.0636   -4.4216 C   0  0  0  0  0  0  0  0  0  0  0  0
   -0.8577    1.0602   -4.4083 O   0  0  0  0  0  0  0  0  0  0  0  0
   -3.7653   -0.0144   -3.1993 C   0  0  0  0  0  0  0  0  0  0  0  0
   -2.1654    0.5055   -1.2961 H   0  0  0  0  0  0  0  0  0  0  0  0
   -2.2412   -1.5430   -3.1521 H   0  0  0  0  0  0  0  0  0  0  0  0
   -3.8526    1.0776   -3.2355 H   0  0  0  0  0  0  0  0  0  0  0  0
   -4.2934   -0.4172   -4.0699 H   0  0  0  0  0  0  0  0  0  0  0  0
   -4.2821   -0.3594   -2.2973 H   0  0  0  0  0  0  0  0  0  0  0  0
   -1.8569   -0.6966   -5.5486 N   0  0  0  0  0  0  0  0  0  0  0  0
   -1.2941   -0.4035   -6.8461 C   0  0  0  0  0  0  0  0  0  0  0  0
   -2.4495   -1.5171   -5.4635 H   0  0  0  0  0  0  0  0  0  0  0  0
   -1.9818    0.2471   -7.4062 H   0  0  0  0  0  0  0  0  0  0  0  0
   -0.3279    0.1068   -6.7197 H   0  0  0  0  0  0  0  0  0  0  0  0
   -1.1436   -1.3415   -7.4007 H   0  0  0  0  0  0  0  0  0  0  0  0
 23 25  2  0  0  0  0
 22 23  1  0  0  0  0
 24 26  1  0  0  0  0
 22 24  2  0  0  0  0
 25 27  1  0  0  0  0
 26 27  2  0  0  0  0
 21 22  1  0  0  0  0
 27 28  1  0  0  0  0
  1  3  1  0  0  0  0
  1  7  1  0  0  0  0
  1  2  2  0  0  0  0
 39 40  1  0  0  0  0
 40 48  1  0  0  0  0
 40 41  2  0  0  0  0
  8  9  1  0  0  0  0
  9 17  1  0  0  0  0
  9 10  2  0  0  0  0
 18 19  1  0  0  0  0
 19 38  1  0  0  0  0
 19 20  2  0  0  0  0
 39 42  1  0  0  0  0
  8 11  1  0  0  0  0
 48 49  1  0  0  0  0
 18 21  1  0  0  0  0
 38 39  1  0  0  0  0
  7  8  1  0  0  0  0
 17 18  1  0  0  0  0
 23 33  1  0  0  0  0
 24 34  1  0  0  0  0
 25 35  1  0  0  0  0
 26 36  1  0  0  0  0
  3  4  1  0  0  0  0
  3  5  1  0  0  0  0
  3  6  1  0  0  0  0
 42 45  1  0  0  0  0
 42 46  1  0  0  0  0
 42 47  1  0  0  0  0
 11 14  1  0  0  0  0
 11 15  1  0  0  0  0
 11 16  1  0  0  0  0
 49 51  1  0  0  0  0
 49 52  1  0  0  0  0
 49 53  1  0  0  0  0
 21 31  1  0  0  0  0
 21 32  1  0  0  0  0
 39 44  1  0  0  0  0
  8 13  1  0  0  0  0
 18 30  1  0  0  0  0
 48 50  1  0  0  0  0
  7 12  1  0  0  0  0
 38 43  1  0  0  0  0
 17 29  1  0  0  0  0
 28 37  1  0  0  0  0
M  END
$$$$

  -OEChem-05262214473D

 53 53  0     1  0  0  0  0  0999 V2000
   -1.9298    0.2574    3.9747 C   0  0  0  0  0  0  0  0  0  0  0  0
   -0.9825   -0.3573    3.4990 O   0  0  0  0  0  0  0  0  0  0  0  0
   -2.3617   -0.0250    5.3754 C   0  0  0  0  0  0  0  0  0  0  0  0
   -3.1214   -0.8213    5.4288 H   0  0  0  0  0  0  0  0  0  0  0  0
   -1.5305   -0.3726    6.0097 H   0  0  0  0  0  0  0  0  0  0  0  0
   -2.7997    0.8299    5.9150 H   0  0  0  0  0  0  0  0  0  0  0  0
   -2.6795    1.2298    3.3336 N   0  0  0  0  0  0  0  0  0  0  0  0
   -2.4327    1.6559    1.9812 C   0  0  2  0  0  0  0  0  0  0  0  0
   -1.0977    1.0705    1.5400 C   0  0  0  0  0  0  0  0  0  0  0  0
   -0.2256    0.7177    2.3313 O   0  0  0  0  0  0  0  0  0  0  0  0
   -2.4239    3.1726    1.8718 C   0  0  0  0  0  0  0  0  0  0  0  0
   -3.4446    1.6657    3.8454 H   0  0  0  0  0  0  0  0  0  0  0  0
   -3.2368    1.2374    1.3661 H   0  0  0  0  0  0  0  0  0  0  0  0
   -1.6248    3.6099    2.4815 H   0  0  0  0  0  0  0  0  0  0  0  0
   -2.2644    3.4949    0.8375 H   0  0  0  0  0  0  0  0  0  0  0  0
   -3.3741    3.5939    2.2175 H   0  0  0  0  0  0  0  0  0  0  0  0
   -0.9750    1.0274    0.1566 N   0  0  0  0  0  0  0  0  0  0  0  0
    0.2023    0.5266   -0.5070 C   0  0  2  0  0  0  0  0  0  0  0  0
   -0.2474   -0.0636   -1.8388 C   0  0  0  0  0  0  0  0  0  0  0  0
    0.4471   -0.8346   -2.4976 O   0  0  0  0  0  0  0  0  0  0  0  0
    0.9302   -0.5338    0.3271 C   0  0  0  0  0  0  0  0  0  0  0  0
    1.5353    0.0307    1.5893 C   0  0  0  0  0  0  0  0  0  0  0  0
    2.7610    0.6946    1.5389 C   0  0  0  0  0  0  0  0  0  0  0  0
    0.8689   -0.1121    2.8063 C   0  0  0  0  0  0  0  0  0  0  0  0
    3.3203    1.2158    2.7056 C   0  0  0  0  0  0  0  0  0  0  0  0
    1.4282    0.4091    3.9730 C   0  0  0  0  0  0  0  0  0  0  0  0
    2.6540    1.0730    3.9227 C   0  0  0  0  0  0  0  0  0  0  0  0
    3.2005    1.5805    5.0612 O   0  0  0  0  0  0  0  0  0  0  0  0
   -1.7582    1.3241   -0.4207 H   0  0  0  0  0  0  0  0  0  0  0  0
    0.8459    1.3934   -0.6977 H   0  0  0  0  0  0  0  0  0  0  0  0
    1.7124   -1.0186   -0.2727 H   0  0  0  0  0  0  0  0  0  0  0  0
    0.2408   -1.3410    0.6076 H   0  0  0  0  0  0  0  0  0  0  0  0
    3.2871    0.8105    0.5952 H   0  0  0  0  0  0  0  0  0  0  0  0
   -0.0867   -0.6278    2.8550 H   0  0  0  0  0  0  0  0  0  0  0  0
    4.2757    1.7317    2.6600 H   0  0  0  0  0  0  0  0  0  0  0  0
    0.9044    0.2943    4.9179 H   0  0  0  0  0  0  0  0  0  0  0  0
    2.6225    1.4024    5.8202 H   0  0  0  0  0  0  0  0  0  0  0  0
   -1.5337    0.3346   -2.1757 N   0  0  0  0  0  0  0  0  0  0  0  0
   -2.2098   -0.0997   -3.3770 C   0  0  2  0  0  0  0  0  0  0  0  0
   -1.2705    0.1284   -4.5540 C   0  0  0  0  0  0  0  0  0  0  0  0
   -0.3454    0.9375   -4.5269 O   0  0  0  0  0  0  0  0  0  0  0  0
   -3.5201    0.6463   -3.5749 C   0  0  0  0  0  0  0  0  0  0  0  0
   -2.0245    0.9629   -1.5464 H   0  0  0  0  0  0  0  0  0  0  0  0
   -2.3994   -1.1725   -3.2629 H   0  0  0  0  0  0  0  0  0  0  0  0
   -3.3503    1.7229   -3.6911 H   0  0  0  0  0  0  0  0  0  0  0  0
   -4.0448    0.2960   -4.4699 H   0  0  0  0  0  0  0  0  0  0  0  0
   -4.1827    0.5054   -2.7141 H   0  0  0  0  0  0  0  0  0  0  0  0
   -1.6132   -0.6466   -5.6530 N   0  0  0  0  0  0  0  0  0  0  0  0
   -0.8819   -0.6011   -6.8977 C   0  0  0  0  0  0  0  0  0  0  0  0
   -2.3839   -1.3042   -5.5800 H   0  0  0  0  0  0  0  0  0  0  0  0
   -1.3474    0.1343   -7.5704 H   0  0  0  0  0  0  0  0  0  0  0  0
    0.1600   -0.3091   -6.7001 H   0  0  0  0  0  0  0  0  0  0  0  0
   -0.9011   -1.5941   -7.3706 H   0  0  0  0  0  0  0  0  0  0  0  0
 23 25  2  0  0  0  0
 22 23  1  0  0  0  0
 24 26  1  0  0  0  0
 22 24  2  0  0  0  0
 25 27  1  0  0  0  0
 26 27  2  0  0  0  0
 21 22  1  0  0  0  0
 27 28  1  0  0  0  0
  1  3  1  0  0  0  0
  1  7  1  0  0  0  0
  1  2  2  0  0  0  0
 39 40  1  0  0  0  0
 40 48  1  0  0  0  0
 40 41  2  0  0  0  0
  8  9  1  0  0  0  0
  9 17  1  0  0  0  0
  9 10  2  0  0  0  0
 18 19  1  0  0  0  0
 19 38  1  0  0  0  0
 19 20  2  0  0  0  0
 39 42  1  0  0  0  0
  8 11  1  0  0  0  0
 48 49  1  0  0  0  0
 18 21  1  0  0  0  0
 38 39  1  0  0  0  0
  7  8  1  0  0  0  0
 17 18  1  0  0  0  0
 23 33  1  0  0  0  0
 24 34  1  0  0  0  0
 25 35  1  0  0  0  0
 26 36  1  0  0  0  0
  3  4  1  0  0  0  0
  3  5  1  0  0  0  0
  3  6  1  0  0  0  0
 42 45  1  0  0  0  0
 42 46  1  0  0  0  0
 42 47  1  0  0  0  0
 11 14  1  0  0  0  0
 11 15  1  0  0  0  0
 11 16  1  0  0  0  0
 49 51  1  0  0  0  0
 49 52  1  0  0  0  0
 49 53  1  0  0  0  0
 21 31  1  0  0  0  0
 21 32  1  0  0  0  0
 39 44  1  0  0  0  0
  8 13  1  0  0  0  0
 18 30  1  0  0  0  0
 48 50  1  0  0  0  0
  7 12  1  0  0  0  0
 38 43  1  0  0  0  0
 17 29  1  0  0  0  0
 28 37  1  0  0  0  0
M  END
$$$$

  -OEChem-05262214473D

 53 53  0     1  0  0  0  0  0999 V2000
   -1.9298    0.2574    3.9747 C   0  0  0  0  0  0  0  0  0  0  0  0
   -0.9825   -0.3573    3.4990 O   0  0  0  0  0  0  0  0  0  0  0  0
   -2.3617   -0.0250    5.3754 C   0  0  0  0  0  0  0  0  0  0  0  0
   -3.1214   -0.8213    5.4288 H   0  0  0  0  0  0  0  0  0  0  0  0
   -1.5305   -0.3726    6.0097 H   0  0  0  0  0  0  0  0  0  0  0  0
   -2.7997    0.8299    5.9150 H   0  0  0  0  0  0  0  0  0  0  0  0
   -2.6795    1.2298    3.3336 N   0  0  0  0  0  0  0  0  0  0  0  0
   -2.4327    1.6559    1.9812 C   0  0  2  0  0  0  0  0  0  0  0  0
   -1.0977    1.0705    1.5400 C   0  0  0  0  0  0  0  0  0  0  0  0
   -0.2256    0.7177    2.3313 O   0  0  0  0  0  0  0  0  0  0  0  0
   -2.4239    3.1726    1.8718 C   0  0  0  0  0  0  0  0  0  0  0  0
   -3.4446    1.6657    3.8454 H   0  0  0  0  0  0  0  0  0  0  0  0
   -3.2368    1.2374    1.3661 H   0  0  0  0  0  0  0  0  0  0  0  0
   -1.6248    3.6099    2.4815 H   0  0  0  0  0  0  0  0  0  0  0  0
   -2.2644    3.4949    0.8375 H   0  0  0  0  0  0  0  0  0  0  0  0
   -3.3741    3.5939    2.2175 H   0  0  0  0  0  0  0  0  0  0  0  0
   -0.9750    1.0274    0.1566 N   0  0  0  0  0  0  0  0  0  0  0  0
    0.2023    0.5266   -0.5070 C   0  0  2  0  0  0  0  0  0  0  0  0
   -0.2474   -0.0636   -1.8388 C   0  0  0  0  0  0  0  0  0  0  0  0
    0.3084   -1.0245   -2.3666 O   0  0  0  0  0  0  0  0  0  0  0  0
    0.9302   -0.5338    0.3271 C   0  0  0  0  0  0  0  0  0  0  0  0
    1.5353    0.0307    1.5893 C   0  0  0  0  0  0  0  0  0  0  0  0
    2.7610    0.6946    1.5389 C   0  0  0  0  0  0  0  0  0  0  0  0
    0.8689   -0.1121    2.8063 C   0  0  0  0  0  0  0  0  0  0  0  0
    3.3203    1.2158    2.7056 C   0  0  0  0  0  0  0  0  0  0  0  0
    1.4282    0.4091    3.9730 C   0  0  0  0  0  0  0  0  0  0  0  0
    2.6540    1.0730    3.9227 C   0  0  0  0  0  0  0  0  0  0  0  0
    3.2005    1.5805    5.0612 O   0  0  0  0  0  0  0  0  0  0  0  0
   -1.7582    1.3241   -0.4207 H   0  0  0  0  0  0  0  0  0  0  0  0
    0.8459    1.3934   -0.6977 H   0  0  0  0  0  0  0  0  0  0  0  0
    1.7124   -1.0186   -0.2727 H   0  0  0  0  0  0  0  0  0  0  0  0
    0.2408   -1.3410    0.6076 H   0  0  0  0  0  0  0  0  0  0  0  0
    3.2871    0.8105    0.5952 H   0  0  0  0  0  0  0  0  0  0  0  0
   -0.0867   -0.6278    2.8550 H   0  0  0  0  0  0  0  0  0  0  0  0
    4.2757    1.7317    2.6600 H   0  0  0  0  0  0  0  0  0  0  0  0
    0.9044    0.2943    4.9179 H   0  0  0  0  0  0  0  0  0  0  0  0
    2.6225    1.4024    5.8202 H   0  0  0  0  0  0  0  0  0  0  0  0
   -1.3713    0.5793   -2.3390 N   0  0  0  0  0  0  0  0  0  0  0  0
   -2.0164    0.2022   -3.5761 C   0  0  2  0  0  0  0  0  0  0  0  0
   -0.9463    0.1116   -4.6560 C   0  0  0  0  0  0  0  0  0  0  0  0
    0.1336    0.6940   -4.5808 O   0  0  0  0  0  0  0  0  0  0  0  0
   -3.0964    1.2004   -3.9636 C   0  0  0  0  0  0  0  0  0  0  0  0
   -1.7598    1.3537   -1.8089 H   0  0  0  0  0  0  0  0  0  0  0  0
   -2.4573   -0.7874   -3.4141 H   0  0  0  0  0  0  0  0  0  0  0  0
   -2.6735    2.1979   -4.1301 H   0  0  0  0  0  0  0  0  0  0  0  0
   -3.6035    0.8982   -4.8858 H   0  0  0  0  0  0  0  0  0  0  0  0
   -3.8494    1.2864   -3.1728 H   0  0  0  0  0  0  0  0  0  0  0  0
   -1.3561   -0.6614   -5.7333 N   0  0  0  0  0  0  0  0  0  0  0  0
   -0.5234   -0.8891   -6.8912 C   0  0  0  0  0  0  0  0  0  0  0  0
   -2.2608   -1.1223   -5.7022 H   0  0  0  0  0  0  0  0  0  0  0  0
   -0.7437   -0.1306   -7.6568 H   0  0  0  0  0  0  0  0  0  0  0  0
    0.5353   -0.8197   -6.6006 H   0  0  0  0  0  0  0  0  0  0  0  0
   -0.7271   -1.8906   -7.2980 H   0  0  0  0  0  0  0  0  0  0  0  0
 23 25  2  0  0  0  0
 22 23  1  0  0  0  0
 24 26  1  0  0  0  0
 22 24  2  0  0  0  0
 25 27  1  0  0  0  0
 26 27  2  0  0  0  0
 21 22  1  0  0  0  0
 27 28  1  0  0  0  0
  1  3  1  0  0  0  0
  1  7  1  0  0  0  0
  1  2  2  0  0  0  0
 39 40  1  0  0  0  0
 40 48  1  0  0  0  0
 40 41  2  0  0  0  0
  8  9  1  0  0  0  0
  9 17  1  0  0  0  0
  9 10  2  0  0  0  0
 18 19  1  0  0  0  0
 19 38  1  0  0  0  0
 19 20  2  0  0  0  0
 39 42  1  0  0  0  0
  8 11  1  0  0  0  0
 48 49  1  0  0  0  0
 18 21  1  0  0  0  0
 38 39  1  0  0  0  0
  7  8  1  0  0  0  0
 17 18  1  0  0  0  0
 23 33  1  0  0  0  0
 24 34  1  0  0  0  0
 25 35  1  0  0  0  0
 26 36  1  0  0  0  0
  3  4  1  0  0  0  0
  3  5  1  0  0  0  0
  3  6  1  0  0  0  0
 42 45  1  0  0  0  0
 42 46  1  0  0  0  0
 42 47  1  0  0  0  0
 11 14  1  0  0  0  0
 11 15  1  0  0  0  0
 11 16  1  0  0  0  0
 49 51  1  0  0  0  0
 49 52  1  0  0  0  0
 49 53  1  0  0  0  0
 21 31  1  0  0  0  0
 21 32  1  0  0  0  0
 39 44  1  0  0  0  0
  8 13  1  0  0  0  0
 18 30  1  0  0  0  0
 48 50  1  0  0  0  0
  7 12  1  0  0  0  0
 38 43  1  0  0  0  0
 17 29  1  0  0  0  0
 28 37  1  0  0  0  0
M  END
$$$$

  -OEChem-05262214473D

 53 53  0     1  0  0  0  0  0999 V2000
   -1.9298    0.2574    3.9747 C   0  0  0  0  0  0  0  0  0  0  0  0
   -0.9825   -0.3573    3.4990 O   0  0  0  0  0  0  0  0  0  0  0  0
   -2.3617   -0.0250    5.3754 C   0  0  0  0  0  0  0  0  0  0  0  0
   -3.1214   -0.8213    5.4288 H   0  0  0  0  0  0  0  0  0  0  0  0
   -1.5305   -0.3726    6.0097 H   0  0  0  0  0  0  0  0  0  0  0  0
   -2.7997    0.8299    5.9150 H   0  0  0  0  0  0  0  0  0  0  0  0
   -2.6795    1.2298    3.3336 N   0  0  0  0  0  0  0  0  0  0  0  0
   -2.4327    1.6559    1.9812 C   0  0  2  0  0  0  0  0  0  0  0  0
   -1.0977    1.0705    1.5400 C   0  0  0  0  0  0  0  0  0  0  0  0
   -0.2256    0.7177    2.3313 O   0  0  0  0  0  0  0  0  0  0  0  0
   -2.4239    3.1726    1.8718 C   0  0  0  0  0  0  0  0  0  0  0  0
   -3.4446    1.6657    3.8454 H   0  0  0  0  0  0  0  0  0  0  0  0
   -3.2368    1.2374    1.3661 H   0  0  0  0  0  0  0  0  0  0  0  0
   -1.6248    3.6099    2.4815 H   0  0  0  0  0  0  0  0  0  0  0  0
   -2.2644    3.4949    0.8375 H   0  0  0  0  0  0  0  0  0  0  0  0
   -3.3741    3.5939    2.2175 H   0  0  0  0  0  0  0  0  0  0  0  0
   -0.9750    1.0274    0.1566 N   0  0  0  0  0  0  0  0  0  0  0  0
    0.2023    0.5266   -0.5070 C   0  0  2  0  0  0  0  0  0  0  0  0
   -0.2474   -0.0636   -1.8388 C   0  0  0  0  0  0  0  0  0  0  0  0
    0.1184   -1.1666   -2.2395 O   0  0  0  0  0  0  0  0  0  0  0  0
    0.9302   -0.5338    0.3271 C   0  0  0  0  0  0  0  0  0  0  0  0
    1.5353    0.0307    1.5893 C   0  0  0  0  0  0  0  0  0  0  0  0
    2.7610    0.6946    1.5389 C   0  0  0  0  0  0  0  0  0  0  0  0
    0.8689   -0.1121    2.8063 C   0  0  0  0  0  0  0  0  0  0  0  0
    3.3203    1.2158    2.7056 C   0  0  0  0  0  0  0  0  0  0  0  0
    1.4282    0.4091    3.9730 C   0  0  0  0  0  0  0  0  0  0  0  0
    2.6540    1.0730    3.9227 C   0  0  0  0  0  0  0  0  0  0  0  0
    3.2005    1.5805    5.0612 O   0  0  0  0  0  0  0  0  0  0  0  0
   -1.7582    1.3241   -0.4207 H   0  0  0  0  0  0  0  0  0  0  0  0
    0.8459    1.3934   -0.6977 H   0  0  0  0  0  0  0  0  0  0  0  0
    1.7124   -1.0186   -0.2727 H   0  0  0  0  0  0  0  0  0  0  0  0
    0.2408   -1.3410    0.6076 H   0  0  0  0  0  0  0  0  0  0  0  0
    3.2871    0.8105    0.5952 H   0  0  0  0  0  0  0  0  0  0  0  0
   -0.0867   -0.6278    2.8550 H   0  0  0  0  0  0  0  0  0  0  0  0
    4.2757    1.7317    2.6600 H   0  0  0  0  0  0  0  0  0  0  0  0
    0.9044    0.2943    4.9179 H   0  0  0  0  0  0  0  0  0  0  0  0
    2.6225    1.4024    5.8202 H   0  0  0  0  0  0  0  0  0  0  0  0
   -1.1427    0.7664   -2.4991 N   0  0  0  0  0  0  0  0  0  0  0  0
   -1.7414    0.4350   -3.7721 C   0  0  2  0  0  0  0  0  0  0  0  0
   -0.6267    0.0142   -4.7207 C   0  0  0  0  0  0  0  0  0  0  0  0
    0.5467    0.3465   -4.5662 O   0  0  0  0  0  0  0  0  0  0  0  0
   -2.5228    1.6101   -4.3388 C   0  0  0  0  0  0  0  0  0  0  0  0
   -1.3896    1.6514   -2.0659 H   0  0  0  0  0  0  0  0  0  0  0  0
   -2.4110   -0.4138   -3.5953 H   0  0  0  0  0  0  0  0  0  0  0  0
   -1.8685    2.4701   -4.5226 H   0  0  0  0  0  0  0  0  0  0  0  0
   -2.9993    1.3484   -5.2893 H   0  0  0  0  0  0  0  0  0  0  0  0
   -3.3049    1.9304   -3.6420 H   0  0  0  0  0  0  0  0  0  0  0  0
   -1.1031   -0.7399   -5.7839 N   0  0  0  0  0  0  0  0  0  0  0  0
   -0.2427   -1.2478   -6.8269 C   0  0  0  0  0  0  0  0  0  0  0  0
   -2.0885   -0.9837   -5.8218 H   0  0  0  0  0  0  0  0  0  0  0  0
   -0.2118   -0.5296   -7.6596 H   0  0  0  0  0  0  0  0  0  0  0  0
    0.7724   -1.3902   -6.4278 H   0  0  0  0  0  0  0  0  0  0  0  0
   -0.6333   -2.2107   -7.1878 H   0  0  0  0  0  0  0  0  0  0  0  0
 23 25  2  0  0  0  0
 22 23  1  0  0  0  0
 24 26  1  0  0  0  0
 22 24  2  0  0  0  0
 25 27  1  0  0  0  0
 26 27  2  0  0  0  0
 21 22  1  0  0  0  0
 27 28  1  0  0  0  0
  1  3  1  0  0  0  0
  1  7  1  0  0  0  0
  1  2  2  0  0  0  0
 39 40  1  0  0  0  0
 40 48  1  0  0  0  0
 40 41  2  0  0  0  0
  8  9  1  0  0  0  0
  9 17  1  0  0  0  0
  9 10  2  0  0  0  0
 18 19  1  0  0  0  0
 19 38  1  0  0  0  0
 19 20  2  0  0  0  0
 39 42  1  0  0  0  0
  8 11  1  0  0  0  0
 48 49  1  0  0  0  0
 18 21  1  0  0  0  0
 38 39  1  0  0  0  0
  7  8  1  0  0  0  0
 17 18  1  0  0  0  0
 23 33  1  0  0  0  0
 24 34  1  0  0  0  0
 25 35  1  0  0  0  0
 26 36  1  0  0  0  0
  3  4  1  0  0  0  0
  3  5  1  0  0  0  0
  3  6  1  0  0  0  0
 42 45  1  0  0  0  0
 42 46  1  0  0  0  0
 42 47  1  0  0  0  0
 11 14  1  0  0  0  0
 11 15  1  0  0  0  0
 11 16  1  0  0  0  0
 49 51  1  0  0  0  0
 49 52  1  0  0  0  0
 49 53  1  0  0  0  0
 21 31  1  0  0  0  0
 21 32  1  0  0  0  0
 39 44  1  0  0  0  0
  8 13  1  0  0  0  0
 18 30  1  0  0  0  0
 48 50  1  0  0  0  0
  7 12  1  0  0  0  0
 38 43  1  0  0  0  0
 17 29  1  0  0  0  0
 28 37  1  0  0  0  0
M  END
$$$$

  -OEChem-05262214473D

 53 53  0     1  0  0  0  0  0999 V2000
   -1.9298    0.2574    3.9747 C   0  0  0  0  0  0  0  0  0  0  0  0
   -0.9825   -0.3573    3.4990 O   0  0  0  0  0  0  0  0  0  0  0  0
   -2.3617   -0.0250    5.3754 C   0  0  0  0  0  0  0  0  0  0  0  0
   -3.1214   -0.8213    5.4288 H   0  0  0  0  0  0  0  0  0  0  0  0
   -1.5305   -0.3726    6.0097 H   0  0  0  0  0  0  0  0  0  0  0  0
   -2.7997    0.8299    5.9150 H   0  0  0  0  0  0  0  0  0  0  0  0
   -2.6795    1.2298    3.3336 N   0  0  0  0  0  0  0  0  0  0  0  0
   -2.4327    1.6559    1.9812 C   0  0  2  0  0  0  0  0  0  0  0  0
   -1.0977    1.0705    1.5400 C   0  0  0  0  0  0  0  0  0  0  0  0
   -0.2256    0.7177    2.3313 O   0  0  0  0  0  0  0  0  0  0  0  0
   -2.4239    3.1726    1.8718 C   0  0  0  0  0  0  0  0  0  0  0  0
   -3.4446    1.6657    3.8454 H   0  0  0  0  0  0  0  0  0  0  0  0
   -3.2368    1.2374    1.3661 H   0  0  0  0  0  0  0  0  0  0  0  0
   -1.6248    3.6099    2.4815 H   0  0  0  0  0  0  0  0  0  0  0  0
   -2.2644    3.4949    0.8375 H   0  0  0  0  0  0  0  0  0  0  0  0
   -3.3741    3.5939    2.2175 H   0  0  0  0  0  0  0  0  0  0  0  0
   -0.9750    1.0274    0.1566 N   0  0  0  0  0  0  0  0  0  0  0  0
    0.2023    0.5266   -0.5070 C   0  0  2  0  0  0  0  0  0  0  0  0
   -0.2474   -0.0636   -1.8388 C   0  0  0  0  0  0  0  0  0  0  0  0
   -0.1100   -1.2511   -2.1249 O   0  0  0  0  0  0  0  0  0  0  0  0
    0.9302   -0.5338    0.3271 C   0  0  0  0  0  0  0  0  0  0  0  0
    1.5353    0.0307    1.5893 C   0  0  0  0  0  0  0  0  0  0  0  0
    2.7610    0.6946    1.5389 C   0  0  0  0  0  0  0  0  0  0  0  0
    0.8689   -0.1121    2.8063 C   0  0  0  0  0  0  0  0  0  0  0  0
    3.3203    1.2158    2.7056 C   0  0  0  0  0  0  0  0  0  0  0  0
    1.4282    0.4091    3.9730 C   0  0  0  0  0  0  0  0  0  0  0  0
    2.6540    1.0730    3.9227 C   0  0  0  0  0  0  0  0  0  0  0  0
    3.2005    1.5805    5.0612 O   0  0  0  0  0  0  0  0  0  0  0  0
   -1.7582    1.3241   -0.4207 H   0  0  0  0  0  0  0  0  0  0  0  0
    0.8459    1.3934   -0.6977 H   0  0  0  0  0  0  0  0  0  0  0  0
    1.7124   -1.0186   -0.2727 H   0  0  0  0  0  0  0  0  0  0  0  0
    0.2408   -1.3410    0.6076 H   0  0  0  0  0  0  0  0  0  0  0  0
    3.2871    0.8105    0.5952 H   0  0  0  0  0  0  0  0  0  0  0  0
   -0.0867   -0.6278    2.8550 H   0  0  0  0  0  0  0  0  0  0  0  0
    4.2757    1.7317    2.6600 H   0  0  0  0  0  0  0  0  0  0  0  0
    0.9044    0.2943    4.9179 H   0  0  0  0  0  0  0  0  0  0  0  0
    2.6225    1.4024    5.8202 H   0  0  0  0  0  0  0  0  0  0  0  0
   -0.8636    0.8833   -2.6452 N   0  0  0  0  0  0  0  0  0  0  0  0
   -1.4035    0.5826   -3.9516 C   0  0  2  0  0  0  0  0  0  0  0  0
   -0.3335   -0.1570   -4.7439 C   0  0  0  0  0  0  0  0  0  0  0  0
    0.8656   -0.0815   -4.4842 O   0  0  0  0  0  0  0  0  0  0  0  0
   -1.8385    1.8476   -4.6751 C   0  0  0  0  0  0  0  0  0  0  0  0
   -0.9389    1.8355   -2.2997 H   0  0  0  0  0  0  0  0  0  0  0  0
   -2.2637   -0.0772   -3.7942 H   0  0  0  0  0  0  0  0  0  0  0  0
   -0.9900    2.5211   -4.8418 H   0  0  0  0  0  0  0  0  0  0  0  0
   -2.2735    1.6157   -5.6529 H   0  0  0  0  0  0  0  0  0  0  0  0
   -2.5863    2.3936   -4.0899 H   0  0  0  0  0  0  0  0  0  0  0  0
   -0.8714   -0.8769   -5.8015 N   0  0  0  0  0  0  0  0  0  0  0  0
   -0.0592   -1.6528   -6.7094 C   0  0  0  0  0  0  0  0  0  0  0  0
   -1.8787   -0.8979   -5.9306 H   0  0  0  0  0  0  0  0  0  0  0  0
    0.2120   -1.0355   -7.5785 H   0  0  0  0  0  0  0  0  0  0  0  0
    0.8551   -1.9816   -6.1936 H   0  0  0  0  0  0  0  0  0  0  0  0
   -0.6261   -2.5328   -7.0475 H   0  0  0  0  0  0  0  0  0  0  0  0
 23 25  2  0  0  0  0
 22 23  1  0  0  0  0
 24 26  1  0  0  0  0
 22 24  2  0  0  0  0
 25 27  1  0  0  0  0
 26 27  2  0  0  0  0
 21 22  1  0  0  0  0
 27 28  1  0  0  0  0
  1  3  1  0  0  0  0
  1  7  1  0  0  0  0
  1  2  2  0  0  0  0
 39 40  1  0  0  0  0
 40 48  1  0  0  0  0
 40 41  2  0  0  0  0
  8  9  1  0  0  0  0
  9 17  1  0  0  0  0
  9 10  2  0  0  0  0
 18 19  1  0  0  0  0
 19 38  1  0  0  0  0
 19 20  2  0  0  0  0
 39 42  1  0  0  0  0
  8 11  1  0  0  0  0
 48 49  1  0  0  0  0
 18 21  1  0  0  0  0
 38 39  1  0  0  0  0
  7  8  1  0  0  0  0
 17 18  1  0  0  0  0
 23 33  1  0  0  0  0
 24 34  1  0  0  0  0
 25 35  1  0  0  0  0
 26 36  1  0  0  0  0
  3  4  1  0  0  0  0
  3  5  1  0  0  0  0
  3  6  1  0  0  0  0
 42 45  1  0  0  0  0
 42 46  1  0  0  0  0
 42 47  1  0  0  0  0
 11 14  1  0  0  0  0
 11 15  1  0  0  0  0
 11 16  1  0  0  0  0
 49 51  1  0  0  0  0
 49 52  1  0  0  0  0
 49 53  1  0  0  0  0
 21 31  1  0  0  0  0
 21 32  1  0  0  0  0
 39 44  1  0  0  0  0
  8 13  1  0  0  0  0
 18 30  1  0  0  0  0
 48 50  1  0  0  0  0
  7 12  1  0  0  0  0
 38 43  1  0  0  0  0
 17 29  1  0  0  0  0
 28 37  1  0  0  0  0
M  END
$$$$

  -OEChem-05262214473D

 53 53  0     1  0  0  0  0  0999 V2000
   -1.9298    0.2574    3.9747 C   0  0  0  0  0  0  0  0  0  0  0  0
   -0.9825   -0.3573    3.4990 O   0  0  0  0  0  0  0  0  0  0  0  0
   -2.3617   -0.0250    5.3754 C   0  0  0  0  0  0  0  0  0  0  0  0
   -3.1214   -0.8213    5.4288 H   0  0  0  0  0  0  0  0  0  0  0  0
   -1.5305   -0.3726    6.0097 H   0  0  0  0  0  0  0  0  0  0  0  0
   -2.7997    0.8299    5.9150 H   0  0  0  0  0  0  0  0  0  0  0  0
   -2.6795    1.2298    3.3336 N   0  0  0  0  0  0  0  0  0  0  0  0
   -2.4327    1.6559    1.9812 C   0  0  2  0  0  0  0  0  0  0  0  0
   -1.0977    1.0705    1.5400 C   0  0  0  0  0  0  0  0  0  0  0  0
   -0.2256    0.7177    2.3313 O   0  0  0  0  0  0  0  0  0  0  0  0
   -2.4239    3.1726    1.8718 C   0  0  0  0  0  0  0  0  0  0  0  0
   -3.4446    1.6657    3.8454 H   0  0  0  0  0  0  0  0  0  0  0  0
   -3.2368    1.2374    1.3661 H   0  0  0  0  0  0  0  0  0  0  0  0
   -1.6248    3.6099    2.4815 H   0  0  0  0  0  0  0  0  0  0  0  0
   -2.2644    3.4949    0.8375 H   0  0  0  0  0  0  0  0  0  0  0  0
   -3.3741    3.5939    2.2175 H   0  0  0  0  0  0  0  0  0  0  0  0
   -0.9750    1.0274    0.1566 N   0  0  0  0  0  0  0  0  0  0  0  0
    0.2023    0.5266   -0.5070 C   0  0  2  0  0  0  0  0  0  0  0  0
   -0.2474   -0.0636   -1.8388 C   0  0  0  0  0  0  0  0  0  0  0  0
   -0.3613   -1.2724   -2.0306 O   0  0  0  0  0  0  0  0  0  0  0  0
    0.9302   -0.5338    0.3271 C   0  0  0  0  0  0  0  0  0  0  0  0
    1.5353    0.0307    1.5893 C   0  0  0  0  0  0  0  0  0  0  0  0
    2.7610    0.6946    1.5389 C   0  0  0  0  0  0  0  0  0  0  0  0
    0.8689   -0.1121    2.8063 C   0  0  0  0  0  0  0  0  0  0  0  0
    3.3203    1.2158    2.7056 C   0  0  0  0  0  0  0  0  0  0  0  0
    1.4282    0.4091    3.9730 C   0  0  0  0  0  0  0  0  0  0  0  0
    2.6540    1.0730    3.9227 C   0  0  0  0  0  0  0  0  0  0  0  0
    3.2005    1.5805    5.0612 O   0  0  0  0  0  0  0  0  0  0  0  0
   -1.7582    1.3241   -0.4207 H   0  0  0  0  0  0  0  0  0  0  0  0
    0.8459    1.3934   -0.6977 H   0  0  0  0  0  0  0  0  0  0  0  0
    1.7124   -1.0186   -0.2727 H   0  0  0  0  0  0  0  0  0  0  0  0
    0.2408   -1.3410    0.6076 H   0  0  0  0  0  0  0  0  0  0  0  0
    3.2871    0.8105    0.5952 H   0  0  0  0  0  0  0  0  0  0  0  0
   -0.0867   -0.6278    2.8550 H   0  0  0  0  0  0  0  0  0  0  0  0
    4.2757    1.7317    2.6600 H   0  0  0  0  0  0  0  0  0  0  0  0
    0.9044    0.2943    4.9179 H   0  0  0  0  0  0  0  0  0  0  0  0
    2.6225    1.4024    5.8202 H   0  0  0  0  0  0  0  0  0  0  0  0
   -0.5530    0.9219   -2.7672 N   0  0  0  0  0  0  0  0  0  0  0  0
   -1.0258    0.6351   -4.1024 C   0  0  2  0  0  0  0  0  0  0  0  0
   -0.0868   -0.3904   -4.7237 C   0  0  0  0  0  0  0  0  0  0  0  0
    1.0687   -0.5608   -4.3404 O   0  0  0  0  0  0  0  0  0  0  0  0
   -1.0902    1.8965   -4.9495 C   0  0  0  0  0  0  0  0  0  0  0  0
   -0.4384    1.8936   -2.4944 H   0  0  0  0  0  0  0  0  0  0  0  0
   -2.0253    0.1994   -3.9972 H   0  0  0  0  0  0  0  0  0  0  0  0
   -0.0979    2.3474   -5.0660 H   0  0  0  0  0  0  0  0  0  0  0  0
   -1.4756    1.6822   -5.9517 H   0  0  0  0  0  0  0  0  0  0  0  0
   -1.7427    2.6443   -4.4859 H   0  0  0  0  0  0  0  0  0  0  0  0
   -0.6767   -1.0628   -5.7848 N   0  0  0  0  0  0  0  0  0  0  0  0
    0.0147   -2.0766   -6.5466 C   0  0  0  0  0  0  0  0  0  0  0  0
   -1.6457   -0.8708   -6.0213 H   0  0  0  0  0  0  0  0  0  0  0  0
    0.4989   -1.6138   -7.4191 H   0  0  0  0  0  0  0  0  0  0  0  0
    0.7778   -2.5536   -5.9140 H   0  0  0  0  0  0  0  0  0  0  0  0
   -0.7060   -2.8348   -6.8866 H   0  0  0  0  0  0  0  0  0  0  0  0
 23 25  2  0  0  0  0
 22 23  1  0  0  0  0
 24 26  1  0  0  0  0
 22 24  2  0  0  0  0
 25 27  1  0  0  0  0
 26 27  2  0  0  0  0
 21 22  1  0  0  0  0
 27 28  1  0  0  0  0
  1  3  1  0  0  0  0
  1  7  1  0  0  0  0
  1  2  2  0  0  0  0
 39 40  1  0  0  0  0
 40 48  1  0  0  0  0
 40 41  2  0  0  0  0
  8  9  1  0  0  0  0
  9 17  1  0  0  0  0
  9 10  2  0  0  0  0
 18 19  1  0  0  0  0
 19 38  1  0  0  0  0
 19 20  2  0  0  0  0
 39 42  1  0  0  0  0
  8 11  1  0  0  0  0
 48 49  1  0  0  0  0
 18 21  1  0  0  0  0
 38 39  1  0  0  0  0
  7  8  1  0  0  0  0
 17 18  1  0  0  0  0
 23 33  1  0  0  0  0
 24 34  1  0  0  0  0
 25 35  1  0  0  0  0
 26 36  1  0  0  0  0
  3  4  1  0  0  0  0
  3  5  1  0  0  0  0
  3  6  1  0  0  0  0
 42 45  1  0  0  0  0
 42 46  1  0  0  0  0
 42 47  1  0  0  0  0
 11 14  1  0  0  0  0
 11 15  1  0  0  0  0
 11 16  1  0  0  0  0
 49 51  1  0  0  0  0
 49 52  1  0  0  0  0
 49 53  1  0  0  0  0
 21 31  1  0  0  0  0
 21 32  1  0  0  0  0
 39 44  1  0  0  0  0
  8 13  1  0  0  0  0
 18 30  1  0  0  0  0
 48 50  1  0  0  0  0
  7 12  1  0  0  0  0
 38 43  1  0  0  0  0
 17 29  1  0  0  0  0
 28 37  1  0  0  0  0
M  END
$$$$

  -OEChem-05262214473D

 53 53  0     1  0  0  0  0  0999 V2000
   -1.9298    0.2574    3.9747 C   0  0  0  0  0  0  0  0  0  0  0  0
   -0.9825   -0.3573    3.4990 O   0  0  0  0  0  0  0  0  0  0  0  0
   -2.3617   -0.0250    5.3754 C   0  0  0  0  0  0  0  0  0  0  0  0
   -3.1214   -0.8213    5.4288 H   0  0  0  0  0  0  0  0  0  0  0  0
   -1.5305   -0.3726    6.0097 H   0  0  0  0  0  0  0  0  0  0  0  0
   -2.7997    0.8299    5.9150 H   0  0  0  0  0  0  0  0  0  0  0  0
   -2.6795    1.2298    3.3336 N   0  0  0  0  0  0  0  0  0  0  0  0
   -2.4327    1.6559    1.9812 C   0  0  2  0  0  0  0  0  0  0  0  0
   -1.0977    1.0705    1.5400 C   0  0  0  0  0  0  0  0  0  0  0  0
   -0.2256    0.7177    2.3313 O   0  0  0  0  0  0  0  0  0  0  0  0
   -2.4239    3.1726    1.8718 C   0  0  0  0  0  0  0  0  0  0  0  0
   -3.4446    1.6657    3.8454 H   0  0  0  0  0  0  0  0  0  0  0  0
   -3.2368    1.2374    1.3661 H   0  0  0  0  0  0  0  0  0  0  0  0
   -1.6248    3.6099    2.4815 H   0  0  0  0  0  0  0  0  0  0  0  0
   -2.2644    3.4949    0.8375 H   0  0  0  0  0  0  0  0  0  0  0  0
   -3.3741    3.5939    2.2175 H   0  0  0  0  0  0  0  0  0  0  0  0
   -0.9750    1.0274    0.1566 N   0  0  0  0  0  0  0  0  0  0  0  0
    0.2023    0.5266   -0.5070 C   0  0  2  0  0  0  0  0  0  0  0  0
   -0.2474   -0.0636   -1.8388 C   0  0  0  0  0  0  0  0  0  0  0  0
   -0.6182   -1.2289   -1.9631 O   0  0  0  0  0  0  0  0  0  0  0  0
    0.9302   -0.5338    0.3271 C   0  0  0  0  0  0  0  0  0  0  0  0
    1.5353    0.0307    1.5893 C   0  0  0  0  0  0  0  0  0  0  0  0
    2.7610    0.6946    1.5389 C   0  0  0  0  0  0  0  0  0  0  0  0
    0.8689   -0.1121    2.8063 C   0  0  0  0  0  0  0  0  0  0  0  0
    3.3203    1.2158    2.7056 C   0  0  0  0  0  0  0  0  0  0  0  0
    1.4282    0.4091    3.9730 C   0  0  0  0  0  0  0  0  0  0  0  0
    2.6540    1.0730    3.9227 C   0  0  0  0  0  0  0  0  0  0  0  0
    3.2005    1.5805    5.0612 O   0  0  0  0  0  0  0  0  0  0  0  0
   -1.7582    1.3241   -0.4207 H   0  0  0  0  0  0  0  0  0  0  0  0
    0.8459    1.3934   -0.6977 H   0  0  0  0  0  0  0  0  0  0  0  0
    1.7124   -1.0186   -0.2727 H   0  0  0  0  0  0  0  0  0  0  0  0
    0.2408   -1.3410    0.6076 H   0  0  0  0  0  0  0  0  0  0  0  0
    3.2871    0.8105    0.5952 H   0  0  0  0  0  0  0  0  0  0  0  0
   -0.0867   -0.6278    2.8550 H   0  0  0  0  0  0  0  0  0  0  0  0
    4.2757    1.7317    2.6600 H   0  0  0  0  0  0  0  0  0  0  0  0
    0.9044    0.2943    4.9179 H   0  0  0  0  0  0  0  0  0  0  0  0
    2.6225    1.4024    5.8202 H   0  0  0  0  0  0  0  0  0  0  0  0
   -0.2319    0.8797   -2.8569 N   0  0  0  0  0  0  0  0  0  0  0  0
   -0.6339    0.5889   -4.2143 C   0  0  2  0  0  0  0  0  0  0  0  0
    0.0968   -0.6701   -4.6618 C   0  0  0  0  0  0  0  0  0  0  0  0
    1.1421   -1.0586   -4.1446 O   0  0  0  0  0  0  0  0  0  0  0  0
   -0.3288    1.7537   -5.1433 C   0  0  0  0  0  0  0  0  0  0  0  0
    0.0776    1.8218   -2.6368 H   0  0  0  0  0  0  0  0  0  0  0  0
   -1.7122    0.3971   -4.1906 H   0  0  0  0  0  0  0  0  0  0  0  0
    0.7470    1.9607   -5.1800 H   0  0  0  0  0  0  0  0  0  0  0  0
   -0.6599    1.5431   -6.1655 H   0  0  0  0  0  0  0  0  0  0  0  0
   -0.8314    2.6655   -4.8030 H   0  0  0  0  0  0  0  0  0  0  0  0
   -0.5325   -1.2852   -5.7350 N   0  0  0  0  0  0  0  0  0  0  0  0
   -0.0261   -2.4902   -6.3495 C   0  0  0  0  0  0  0  0  0  0  0  0
   -1.4055   -0.9042   -6.0876 H   0  0  0  0  0  0  0  0  0  0  0  0
    0.6293   -2.2250   -7.1922 H   0  0  0  0  0  0  0  0  0  0  0  0
    0.5457   -3.0674   -5.6080 H   0  0  0  0  0  0  0  0  0  0  0  0
   -0.8676   -3.0962   -6.7162 H   0  0  0  0  0  0  0  0  0  0  0  0
 23 25  2  0  0  0  0
 22 23  1  0  0  0  0
 24 26  1  0  0  0  0
 22 24  2  0  0  0  0
 25 27  1  0  0  0  0
 26 27  2  0  0  0  0
 21 22  1  0  0  0  0
 27 28  1  0  0  0  0
  1  3  1  0  0  0  0
  1  7  1  0  0  0  0
  1  2  2  0  0  0  0
 39 40  1  0  0  0  0
 40 48  1  0  0  0  0
 40 41  2  0  0  0  0
  8  9  1  0  0  0  0
  9 17  1  0  0  0  0
  9 10  2  0  0  0  0
 18 19  1  0  0  0  0
 19 38  1  0  0  0  0
 19 20  2  0  0  0  0
 39 42  1  0  0  0  0
  8 11  1  0  0  0  0
 48 49  1  0  0  0  0
 18 21  1  0  0  0  0
 38 39  1  0  0  0  0
  7  8  1  0  0  0  0
 17 18  1  0  0  0  0
 23 33  1  0  0  0  0
 24 34  1  0  0  0  0
 25 35  1  0  0  0  0
 26 36  1  0  0  0  0
  3  4  1  0  0  0  0
  3  5  1  0  0  0  0
  3  6  1  0  0  0  0
 42 45  1  0  0  0  0
 42 46  1  0  0  0  0
 42 47  1  0  0  0  0
 11 14  1  0  0  0  0
 11 15  1  0  0  0  0
 11 16  1  0  0  0  0
 49 51  1  0  0  0  0
 49 52  1  0  0  0  0
 49 53  1  0  0  0  0
 21 31  1  0  0  0  0
 21 32  1  0  0  0  0
 39 44  1  0  0  0  0
  8 13  1  0  0  0  0
 18 30  1  0  0  0  0
 48 50  1  0  0  0  0
  7 12  1  0  0  0  0
 38 43  1  0  0  0  0
 17 29  1  0  0  0  0
 28 37  1  0  0  0  0
M  END
$$$$

  -OEChem-05262214473D

 53 53  0     1  0  0  0  0  0999 V2000
   -1.9298    0.2574    3.9747 C   0  0  0  0  0  0  0  0  0  0  0  0
   -0.9825   -0.3573    3.4990 O   0  0  0  0  0  0  0  0  0  0  0  0
   -2.3617   -0.0250    5.3754 C   0  0  0  0  0  0  0  0  0  0  0  0
   -3.1214   -0.8213    5.4288 H   0  0  0  0  0  0  0  0  0  0  0  0
   -1.5305   -0.3726    6.0097 H   0  0  0  0  0  0  0  0  0  0  0  0
   -2.7997    0.8299    5.9150 H   0  0  0  0  0  0  0  0  0  0  0  0
   -2.6795    1.2298    3.3336 N   0  0  0  0  0  0  0  0  0  0  0  0
   -2.4327    1.6559    1.9812 C   0  0  2  0  0  0  0  0  0  0  0  0
   -1.0977    1.0705    1.5400 C   0  0  0  0  0  0  0  0  0  0  0  0
   -0.2256    0.7177    2.3313 O   0  0  0  0  0  0  0  0  0  0  0  0
   -2.4239    3.1726    1.8718 C   0  0  0  0  0  0  0  0  0  0  0  0
   -3.4446    1.6657    3.8454 H   0  0  0  0  0  0  0  0  0  0  0  0
   -3.2368    1.2374    1.3661 H   0  0  0  0  0  0  0  0  0  0  0  0
   -1.6248    3.6099    2.4815 H   0  0  0  0  0  0  0  0  0  0  0  0
   -2.2644    3.4949    0.8375 H   0  0  0  0  0  0  0  0  0  0  0  0
   -3.3741    3.5939    2.2175 H   0  0  0  0  0  0  0  0  0  0  0  0
   -0.9750    1.0274    0.1566 N   0  0  0  0  0  0  0  0  0  0  0  0
    0.2023    0.5266   -0.5070 C   0  0  2  0  0  0  0  0  0  0  0  0
   -0.2474   -0.0636   -1.8388 C   0  0  0  0  0  0  0  0  0  0  0  0
   -0.8633   -1.1237   -1.9270 O   0  0  0  0  0  0  0  0  0  0  0  0
    0.9302   -0.5338    0.3271 C   0  0  0  0  0  0  0  0  0  0  0  0
    1.5353    0.0307    1.5893 C   0  0  0  0  0  0  0  0  0  0  0  0
    2.7610    0.6946    1.5389 C   0  0  0  0  0  0  0  0  0  0  0  0
    0.8689   -0.1121    2.8063 C   0  0  0  0  0  0  0  0  0  0  0  0
    3.3203    1.2158    2.7056 C   0  0  0  0  0  0  0  0  0  0  0  0
    1.4282    0.4091    3.9730 C   0  0  0  0  0  0  0  0  0  0  0  0
    2.6540    1.0730    3.9227 C   0  0  0  0  0  0  0  0  0  0  0  0
    3.2005    1.5805    5.0612 O   0  0  0  0  0  0  0  0  0  0  0  0
   -1.7582    1.3241   -0.4207 H   0  0  0  0  0  0  0  0  0  0  0  0
    0.8459    1.3934   -0.6977 H   0  0  0  0  0  0  0  0  0  0  0  0
    1.7124   -1.0186   -0.2727 H   0  0  0  0  0  0  0  0  0  0  0  0
    0.2408   -1.3410    0.6076 H   0  0  0  0  0  0  0  0  0  0  0  0
    3.2871    0.8105    0.5952 H   0  0  0  0  0  0  0  0  0  0  0  0
   -0.0867   -0.6278    2.8550 H   0  0  0  0  0  0  0  0  0  0  0  0
    4.2757    1.7317    2.6600 H   0  0  0  0  0  0  0  0  0  0  0  0
    0.9044    0.2943    4.9179 H   0  0  0  0  0  0  0  0  0  0  0  0
    2.6225    1.4024    5.8202 H   0  0  0  0  0  0  0  0  0  0  0  0
    0.0776    0.7595   -2.9081 N   0  0  0  0  0  0  0  0  0  0  0  0
   -0.2547    0.4472   -4.2795 C   0  0  2  0  0  0  0  0  0  0  0  0
    0.2047   -0.9771   -4.5621 C   0  0  0  0  0  0  0  0  0  0  0  0
    1.0808   -1.5412   -3.9100 O   0  0  0  0  0  0  0  0  0  0  0  0
    0.3938    1.4288   -5.2432 C   0  0  0  0  0  0  0  0  0  0  0  0
    0.5740    1.6248   -2.7171 H   0  0  0  0  0  0  0  0  0  0  0  0
   -1.3457    0.5026   -4.3611 H   0  0  0  0  0  0  0  0  0  0  0  0
    1.4870    1.3876   -5.1758 H   0  0  0  0  0  0  0  0  0  0  0  0
    0.1180    1.2080   -6.2797 H   0  0  0  0  0  0  0  0  0  0  0  0
    0.0855    2.4558   -5.0196 H   0  0  0  0  0  0  0  0  0  0  0  0
   -0.4484   -1.5289   -5.6554 N   0  0  0  0  0  0  0  0  0  0  0  0
   -0.1787   -2.8654   -6.1317 C   0  0  0  0  0  0  0  0  0  0  0  0
   -1.1744   -0.9959   -6.1250 H   0  0  0  0  0  0  0  0  0  0  0  0
    0.5943   -2.8277   -6.9134 H   0  0  0  0  0  0  0  0  0  0  0  0
    0.1748   -3.4878   -5.2964 H   0  0  0  0  0  0  0  0  0  0  0  0
   -1.0999   -3.2991   -6.5479 H   0  0  0  0  0  0  0  0  0  0  0  0
 23 25  2  0  0  0  0
 22 23  1  0  0  0  0
 24 26  1  0  0  0  0
 22 24  2  0  0  0  0
 25 27  1  0  0  0  0
 26 27  2  0  0  0  0
 21 22  1  0  0  0  0
 27 28  1  0  0  0  0
  1  3  1  0  0  0  0
  1  7  1  0  0  0  0
  1  2  2  0  0  0  0
 39 40  1  0  0  0  0
 40 48  1  0  0  0  0
 40 41  2  0  0  0  0
  8  9  1  0  0  0  0
  9 17  1  0  0  0  0
  9 10  2  0  0  0  0
 18 19  1  0  0  0  0
 19 38  1  0  0  0  0
 19 20  2  0  0  0  0
 39 42  1  0  0  0  0
  8 11  1  0  0  0  0
 48 49  1  0  0  0  0
 18 21  1  0  0  0  0
 38 39  1  0  0  0  0
  7  8  1  0  0  0  0
 17 18  1  0  0  0  0
 23 33  1  0  0  0  0
 24 34  1  0  0  0  0
 25 35  1  0  0  0  0
 26 36  1  0  0  0  0
  3  4  1  0  0  0  0
  3  5  1  0  0  0  0
  3  6  1  0  0  0  0
 42 45  1  0  0  0  0
 42 46  1  0  0  0  0
 42 47  1  0  0  0  0
 11 14  1  0  0  0  0
 11 15  1  0  0  0  0
 11 16  1  0  0  0  0
 49 51  1  0  0  0  0
 49 52  1  0  0  0  0
 49 53  1  0  0  0  0
 21 31  1  0  0  0  0
 21 32  1  0  0  0  0
 39 44  1  0  0  0  0
  8 13  1  0  0  0  0
 18 30  1  0  0  0  0
 48 50  1  0  0  0  0
  7 12  1  0  0  0  0
 38 43  1  0  0  0  0
 17 29  1  0  0  0  0
 28 37  1  0  0  0  0
M  END
$$$$

  -OEChem-05262214473D

 53 53  0     1  0  0  0  0  0999 V2000
   -1.9298    0.2574    3.9747 C   0  0  0  0  0  0  0  0  0  0  0  0
   -0.9825   -0.3573    3.4990 O   0  0  0  0  0  0  0  0  0  0  0  0
   -2.3617   -0.0250    5.3754 C   0  0  0  0  0  0  0  0  0  0  0  0
   -3.1214   -0.8213    5.4288 H   0  0  0  0  0  0  0  0  0  0  0  0
   -1.5305   -0.3726    6.0097 H   0  0  0  0  0  0  0  0  0  0  0  0
   -2.7997    0.8299    5.9150 H   0  0  0  0  0  0  0  0  0  0  0  0
   -2.6795    1.2298    3.3336 N   0  0  0  0  0  0  0  0  0  0  0  0
   -2.4327    1.6559    1.9812 C   0  0  2  0  0  0  0  0  0  0  0  0
   -1.0977    1.0705    1.5400 C   0  0  0  0  0  0  0  0  0  0  0  0
   -0.2256    0.7177    2.3313 O   0  0  0  0  0  0  0  0  0  0  0  0
   -2.4239    3.1726    1.8718 C   0  0  0  0  0  0  0  0  0  0  0  0
   -3.4446    1.6657    3.8454 H   0  0  0  0  0  0  0  0  0  0  0  0
   -3.2368    1.2374    1.3661 H   0  0  0  0  0  0  0  0  0  0  0  0
   -1.6248    3.6099    2.4815 H   0  0  0  0  0  0  0  0  0  0  0  0
   -2.2644    3.4949    0.8375 H   0  0  0  0  0  0  0  0  0  0  0  0
   -3.3741    3.5939    2.2175 H   0  0  0  0  0  0  0  0  0  0  0  0
   -0.9750    1.0274    0.1566 N   0  0  0  0  0  0  0  0  0  0  0  0
    0.2023    0.5266   -0.5070 C   0  0  2  0  0  0  0  0  0  0  0  0
   -0.2474   -0.0636   -1.8388 C   0  0  0  0  0  0  0  0  0  0  0  0
   -1.0799   -0.9639   -1.9247 O   0  0  0  0  0  0  0  0  0  0  0  0
    0.9302   -0.5338    0.3271 C   0  0  0  0  0  0  0  0  0  0  0  0
    1.5353    0.0307    1.5893 C   0  0  0  0  0  0  0  0  0  0  0  0
    2.7610    0.6946    1.5389 C   0  0  0  0  0  0  0  0  0  0  0  0
    0.8689   -0.1121    2.8063 C   0  0  0  0  0  0  0  0  0  0  0  0
    3.3203    1.2158    2.7056 C   0  0  0  0  0  0  0  0  0  0  0  0
    1.4282    0.4091    3.9730 C   0  0  0  0  0  0  0  0  0  0  0  0
    2.6540    1.0730    3.9227 C   0  0  0  0  0  0  0  0  0  0  0  0
    3.2005    1.5805    5.0612 O   0  0  0  0  0  0  0  0  0  0  0  0
   -1.7582    1.3241   -0.4207 H   0  0  0  0  0  0  0  0  0  0  0  0
    0.8459    1.3934   -0.6977 H   0  0  0  0  0  0  0  0  0  0  0  0
    1.7124   -1.0186   -0.2727 H   0  0  0  0  0  0  0  0  0  0  0  0
    0.2408   -1.3410    0.6076 H   0  0  0  0  0  0  0  0  0  0  0  0
    3.2871    0.8105    0.5952 H   0  0  0  0  0  0  0  0  0  0  0  0
   -0.0867   -0.6278    2.8550 H   0  0  0  0  0  0  0  0  0  0  0  0
    4.2757    1.7317    2.6600 H   0  0  0  0  0  0  0  0  0  0  0  0
    0.9044    0.2943    4.9179 H   0  0  0  0  0  0  0  0  0  0  0  0
    2.6225    1.4024    5.8202 H   0  0  0  0  0  0  0  0  0  0  0  0
    0.3545    0.5694   -2.9174 N   0  0  0  0  0  0  0  0  0  0  0  0
    0.0861    0.2195   -4.2937 C   0  0  2  0  0  0  0  0  0  0  0  0
    0.2295   -1.2904   -4.4317 C   0  0  0  0  0  0  0  0  0  0  0  0
    0.8890   -1.9755   -3.6528 O   0  0  0  0  0  0  0  0  0  0  0  0
    1.0283    0.9439   -5.2426 C   0  0  0  0  0  0  0  0  0  0  0  0
    1.0171    1.3162   -2.7300 H   0  0  0  0  0  0  0  0  0  0  0  0
   -0.9507    0.5086   -4.4971 H   0  0  0  0  0  0  0  0  0  0  0  0
    2.0719    0.6669   -5.0540 H   0  0  0  0  0  0  0  0  0  0  0  0
    0.8051    0.6998   -6.2865 H   0  0  0  0  0  0  0  0  0  0  0  0
    0.9453    2.0293   -5.1210 H   0  0  0  0  0  0  0  0  0  0  0  0
   -0.4302   -1.7771   -5.5515 N   0  0  0  0  0  0  0  0  0  0  0  0
   -0.4327   -3.1767   -5.9079 C   0  0  0  0  0  0  0  0  0  0  0  0
   -0.9682   -1.1395   -6.1310 H   0  0  0  0  0  0  0  0  0  0  0  0
    0.3964   -3.3805   -6.6015 H   0  0  0  0  0  0  0  0  0  0  0  0
   -0.3098   -3.7863   -5.0005 H   0  0  0  0  0  0  0  0  0  0  0  0
   -1.3870   -3.4297   -6.3930 H   0  0  0  0  0  0  0  0  0  0  0  0
 23 25  2  0  0  0  0
 22 23  1  0  0  0  0
 24 26  1  0  0  0  0
 22 24  2  0  0  0  0
 25 27  1  0  0  0  0
 26 27  2  0  0  0  0
 21 22  1  0  0  0  0
 27 28  1  0  0  0  0
  1  3  1  0  0  0  0
  1  7  1  0  0  0  0
  1  2  2  0  0  0  0
 39 40  1  0  0  0  0
 40 48  1  0  0  0  0
 40 41  2  0  0  0  0
  8  9  1  0  0  0  0
  9 17  1  0  0  0  0
  9 10  2  0  0  0  0
 18 19  1  0  0  0  0
 19 38  1  0  0  0  0
 19 20  2  0  0  0  0
 39 42  1  0  0  0  0
  8 11  1  0  0  0  0
 48 49  1  0  0  0  0
 18 21  1  0  0  0  0
 38 39  1  0  0  0  0
  7  8  1  0  0  0  0
 17 18  1  0  0  0  0
 23 33  1  0  0  0  0
 24 34  1  0  0  0  0
 25 35  1  0  0  0  0
 26 36  1  0  0  0  0
  3  4  1  0  0  0  0
  3  5  1  0  0  0  0
  3  6  1  0  0  0  0
 42 45  1  0  0  0  0
 42 46  1  0  0  0  0
 42 47  1  0  0  0  0
 11 14  1  0  0  0  0
 11 15  1  0  0  0  0
 11 16  1  0  0  0  0
 49 51  1  0  0  0  0
 49 52  1  0  0  0  0
 49 53  1  0  0  0  0
 21 31  1  0  0  0  0
 21 32  1  0  0  0  0
 39 44  1  0  0  0  0
  8 13  1  0  0  0  0
 18 30  1  0  0  0  0
 48 50  1  0  0  0  0
  7 12  1  0  0  0  0
 38 43  1  0  0  0  0
 17 29  1  0  0  0  0
 28 37  1  0  0  0  0
M  END
$$$$

  -OEChem-05262214473D

 53 53  0     1  0  0  0  0  0999 V2000
   -1.9298    0.2574    3.9747 C   0  0  0  0  0  0  0  0  0  0  0  0
   -0.9825   -0.3573    3.4990 O   0  0  0  0  0  0  0  0  0  0  0  0
   -2.3617   -0.0250    5.3754 C   0  0  0  0  0  0  0  0  0  0  0  0
   -3.1214   -0.8213    5.4288 H   0  0  0  0  0  0  0  0  0  0  0  0
   -1.5305   -0.3726    6.0097 H   0  0  0  0  0  0  0  0  0  0  0  0
   -2.7997    0.8299    5.9150 H   0  0  0  0  0  0  0  0  0  0  0  0
   -2.6795    1.2298    3.3336 N   0  0  0  0  0  0  0  0  0  0  0  0
   -2.4327    1.6559    1.9812 C   0  0  2  0  0  0  0  0  0  0  0  0
   -1.0977    1.0705    1.5400 C   0  0  0  0  0  0  0  0  0  0  0  0
   -0.2256    0.7177    2.3313 O   0  0  0  0  0  0  0  0  0  0  0  0
   -2.4239    3.1726    1.8718 C   0  0  0  0  0  0  0  0  0  0  0  0
   -3.4446    1.6657    3.8454 H   0  0  0  0  0  0  0  0  0  0  0  0
   -3.2368    1.2374    1.3661 H   0  0  0  0  0  0  0  0  0  0  0  0
   -1.6248    3.6099    2.4815 H   0  0  0  0  0  0  0  0  0  0  0  0
   -2.2644    3.4949    0.8375 H   0  0  0  0  0  0  0  0  0  0  0  0
   -3.3741    3.5939    2.2175 H   0  0  0  0  0  0  0  0  0  0  0  0
   -0.9750    1.0274    0.1566 N   0  0  0  0  0  0  0  0  0  0  0  0
    0.2023    0.5266   -0.5070 C   0  0  2  0  0  0  0  0  0  0  0  0
   -0.2474   -0.0636   -1.8388 C   0  0  0  0  0  0  0  0  0  0  0  0
   -1.2532   -0.7604   -1.9564 O   0  0  0  0  0  0  0  0  0  0  0  0
    0.9302   -0.5338    0.3271 C   0  0  0  0  0  0  0  0  0  0  0  0
    1.5353    0.0307    1.5893 C   0  0  0  0  0  0  0  0  0  0  0  0
    2.7610    0.6946    1.5389 C   0  0  0  0  0  0  0  0  0  0  0  0
    0.8689   -0.1121    2.8063 C   0  0  0  0  0  0  0  0  0  0  0  0
    3.3203    1.2158    2.7056 C   0  0  0  0  0  0  0  0  0  0  0  0
    1.4282    0.4091    3.9730 C   0  0  0  0  0  0  0  0  0  0  0  0
    2.6540    1.0730    3.9227 C   0  0  0  0  0  0  0  0  0  0  0  0
    3.2005    1.5805    5.0612 O   0  0  0  0  0  0  0  0  0  0  0  0
   -1.7582    1.3241   -0.4207 H   0  0  0  0  0  0  0  0  0  0  0  0
    0.8459    1.3934   -0.6977 H   0  0  0  0  0  0  0  0  0  0  0  0
    1.7124   -1.0186   -0.2727 H   0  0  0  0  0  0  0  0  0  0  0  0
    0.2408   -1.3410    0.6076 H   0  0  0  0  0  0  0  0  0  0  0  0
    3.2871    0.8105    0.5952 H   0  0  0  0  0  0  0  0  0  0  0  0
   -0.0867   -0.6278    2.8550 H   0  0  0  0  0  0  0  0  0  0  0  0
    4.2757    1.7317    2.6600 H   0  0  0  0  0  0  0  0  0  0  0  0
    0.9044    0.2943    4.9179 H   0  0  0  0  0  0  0  0  0  0  0  0
    2.6225    1.4024    5.8202 H   0  0  0  0  0  0  0  0  0  0  0  0
    0.5800    0.3226   -2.8841 N   0  0  0  0  0  0  0  0  0  0  0  0
    0.3653   -0.0785   -4.2559 C   0  0  2  0  0  0  0  0  0  0  0  0
    0.1695   -1.5887   -4.2792 C   0  0  0  0  0  0  0  0  0  0  0  0
    0.5798   -2.3321   -3.3903 O   0  0  0  0  0  0  0  0  0  0  0  0
    1.5315    0.3322   -5.1414 C   0  0  0  0  0  0  0  0  0  0  0  0
    1.3765    0.9170   -2.6744 H   0  0  0  0  0  0  0  0  0  0  0  0
   -0.5542    0.4147   -4.5894 H   0  0  0  0  0  0  0  0  0  0  0  0
    2.4617   -0.1521   -4.8226 H   0  0  0  0  0  0  0  0  0  0  0  0
    1.3545    0.0530   -6.1854 H   0  0  0  0  0  0  0  0  0  0  0  0
    1.6896    1.4153   -5.1002 H   0  0  0  0  0  0  0  0  0  0  0  0
   -0.4792   -2.0131   -5.4304 N   0  0  0  0  0  0  0  0  0  0  0  0
   -0.7710   -3.4029   -5.6935 C   0  0  0  0  0  0  0  0  0  0  0  0
   -0.8008   -1.3253   -6.1052 H   0  0  0  0  0  0  0  0  0  0  0  0
    0.0489   -3.8460   -6.2779 H   0  0  0  0  0  0  0  0  0  0  0  0
   -0.8750   -3.9424   -4.7405 H   0  0  0  0  0  0  0  0  0  0  0  0
   -1.7094   -3.4792   -6.2623 H   0  0  0  0  0  0  0  0  0  0  0  0
 23 25  2  0  0  0  0
 22 23  1  0  0  0  0
 24 26  1  0  0  0  0
 22 24  2  0  0  0  0
 25 27  1  0  0  0  0
 26 27  2  0  0  0  0
 21 22  1  0  0  0  0
 27 28  1  0  0  0  0
  1  3  1  0  0  0  0
  1  7  1  0  0  0  0
  1  2  2  0  0  0  0
 39 40  1  0  0  0  0
 40 48  1  0  0  0  0
 40 41  2  0  0  0  0
  8  9  1  0  0  0  0
  9 17  1  0  0  0  0
  9 10  2  0  0  0  0
 18 19  1  0  0  0  0
 19 38  1  0  0  0  0
 19 20  2  0  0  0  0
 39 42  1  0  0  0  0
  8 11  1  0  0  0  0
 48 49  1  0  0  0  0
 18 21  1  0  0  0  0
 38 39  1  0  0  0  0
  7  8  1  0  0  0  0
 17 18  1  0  0  0  0
 23 33  1  0  0  0  0
 24 34  1  0  0  0  0
 25 35  1  0  0  0  0
 26 36  1  0  0  0  0
  3  4  1  0  0  0  0
  3  5  1  0  0  0  0
  3  6  1  0  0  0  0
 42 45  1  0  0  0  0
 42 46  1  0  0  0  0
 42 47  1  0  0  0  0
 11 14  1  0  0  0  0
 11 15  1  0  0  0  0
 11 16  1  0  0  0  0
 49 51  1  0  0  0  0
 49 52  1  0  0  0  0
 49 53  1  0  0  0  0
 21 31  1  0  0  0  0
 21 32  1  0  0  0  0
 39 44  1  0  0  0  0
  8 13  1  0  0  0  0
 18 30  1  0  0  0  0
 48 50  1  0  0  0  0
  7 12  1  0  0  0  0
 38 43  1  0  0  0  0
 17 29  1  0  0  0  0
 28 37  1  0  0  0  0
M  END
$$$$

  -OEChem-05262214473D

 53 53  0     1  0  0  0  0  0999 V2000
   -1.9298    0.2574    3.9747 C   0  0  0  0  0  0  0  0  0  0  0  0
   -0.9825   -0.3573    3.4990 O   0  0  0  0  0  0  0  0  0  0  0  0
   -2.3617   -0.0250    5.3754 C   0  0  0  0  0  0  0  0  0  0  0  0
   -3.1214   -0.8213    5.4288 H   0  0  0  0  0  0  0  0  0  0  0  0
   -1.5305   -0.3726    6.0097 H   0  0  0  0  0  0  0  0  0  0  0  0
   -2.7997    0.8299    5.9150 H   0  0  0  0  0  0  0  0  0  0  0  0
   -2.6795    1.2298    3.3336 N   0  0  0  0  0  0  0  0  0  0  0  0
   -2.4327    1.6559    1.9812 C   0  0  2  0  0  0  0  0  0  0  0  0
   -1.0977    1.0705    1.5400 C   0  0  0  0  0  0  0  0  0  0  0  0
   -0.2256    0.7177    2.3313 O   0  0  0  0  0  0  0  0  0  0  0  0
   -2.4239    3.1726    1.8718 C   0  0  0  0  0  0  0  0  0  0  0  0
   -3.4446    1.6657    3.8454 H   0  0  0  0  0  0  0  0  0  0  0  0
   -3.2368    1.2374    1.3661 H   0  0  0  0  0  0  0  0  0  0  0  0
   -1.6248    3.6099    2.4815 H   0  0  0  0  0  0  0  0  0  0  0  0
   -2.2644    3.4949    0.8375 H   0  0  0  0  0  0  0  0  0  0  0  0
   -3.3741    3.5939    2.2175 H   0  0  0  0  0  0  0  0  0  0  0  0
   -0.9750    1.0274    0.1566 N   0  0  0  0  0  0  0  0  0  0  0  0
    0.2023    0.5266   -0.5070 C   0  0  2  0  0  0  0  0  0  0  0  0
   -0.2474   -0.0636   -1.8388 C   0  0  0  0  0  0  0  0  0  0  0  0
   -1.3714   -0.5271   -2.0198 O   0  0  0  0  0  0  0  0  0  0  0  0
    0.9302   -0.5338    0.3271 C   0  0  0  0  0  0  0  0  0  0  0  0
    1.5353    0.0307    1.5893 C   0  0  0  0  0  0  0  0  0  0  0  0
    2.7610    0.6946    1.5389 C   0  0  0  0  0  0  0  0  0  0  0  0
    0.8689   -0.1121    2.8063 C   0  0  0  0  0  0  0  0  0  0  0  0
    3.3203    1.2158    2.7056 C   0  0  0  0  0  0  0  0  0  0  0  0
    1.4282    0.4091    3.9730 C   0  0  0  0  0  0  0  0  0  0  0  0
    2.6540    1.0730    3.9227 C   0  0  0  0  0  0  0  0  0  0  0  0
    3.2005    1.5805    5.0612 O   0  0  0  0  0  0  0  0  0  0  0  0
   -1.7582    1.3241   -0.4207 H   0  0  0  0  0  0  0  0  0  0  0  0
    0.8459    1.3934   -0.6977 H   0  0  0  0  0  0  0  0  0  0  0  0
    1.7124   -1.0186   -0.2727 H   0  0  0  0  0  0  0  0  0  0  0  0
    0.2408   -1.3410    0.6076 H   0  0  0  0  0  0  0  0  0  0  0  0
    3.2871    0.8105    0.5952 H   0  0  0  0  0  0  0  0  0  0  0  0
   -0.0867   -0.6278    2.8550 H   0  0  0  0  0  0  0  0  0  0  0  0
    4.2757    1.7317    2.6600 H   0  0  0  0  0  0  0  0  0  0  0  0
    0.9044    0.2943    4.9179 H   0  0  0  0  0  0  0  0  0  0  0  0
    2.6225    1.4024    5.8202 H   0  0  0  0  0  0  0  0  0  0  0  0
    0.7386    0.0357   -2.8105 N   0  0  0  0  0  0  0  0  0  0  0  0
    0.5638   -0.4266   -4.1687 C   0  0  2  0  0  0  0  0  0  0  0  0
    0.0289   -1.8516   -4.1152 C   0  0  0  0  0  0  0  0  0  0  0  0
    0.1742   -2.5865   -3.1406 O   0  0  0  0  0  0  0  0  0  0  0  0
    1.8691   -0.3648   -4.9466 C   0  0  0  0  0  0  0  0  0  0  0  0
    1.6279    0.4543   -2.5543 H   0  0  0  0  0  0  0  0  0  0  0  0
   -0.1832    0.2274   -4.6316 H   0  0  0  0  0  0  0  0  0  0  0  0
    2.6298   -1.0137   -4.4975 H   0  0  0  0  0  0  0  0  0  0  0  0
    1.7288   -0.6883   -5.9833 H   0  0  0  0  0  0  0  0  0  0  0  0
    2.2676    0.6554   -4.9586 H   0  0  0  0  0  0  0  0  0  0  0  0
   -0.5920   -2.2207   -5.3003 N   0  0  0  0  0  0  0  0  0  0  0  0
   -1.1703   -3.5286   -5.5030 C   0  0  0  0  0  0  0  0  0  0  0  0
   -0.6838   -1.5407   -6.0492 H   0  0  0  0  0  0  0  0  0  0  0  0
   -0.4244   -4.1923   -5.9646 H   0  0  0  0  0  0  0  0  0  0  0  0
   -1.4822   -3.9456   -4.5340 H   0  0  0  0  0  0  0  0  0  0  0  0
   -2.0451   -3.4441   -6.1645 H   0  0  0  0  0  0  0  0  0  0  0  0
 23 25  2  0  0  0  0
 22 23  1  0  0  0  0
 24 26  1  0  0  0  0
 22 24  2  0  0  0  0
 25 27  1  0  0  0  0
 26 27  2  0  0  0  0
 21 22  1  0  0  0  0
 27 28  1  0  0  0  0
  1  3  1  0  0  0  0
  1  7  1  0  0  0  0
  1  2  2  0  0  0  0
 39 40  1  0  0  0  0
 40 48  1  0  0  0  0
 40 41  2  0  0  0  0
  8  9  1  0  0  0  0
  9 17  1  0  0  0  0
  9 10  2  0  0  0  0
 18 19  1  0  0  0  0
 19 38  1  0  0  0  0
 19 20  2  0  0  0  0
 39 42  1  0  0  0  0
  8 11  1  0  0  0  0
 48 49  1  0  0  0  0
 18 21  1  0  0  0  0
 38 39  1  0  0  0  0
  7  8  1  0  0  0  0
 17 18  1  0  0  0  0
 23 33  1  0  0  0  0
 24 34  1  0  0  0  0
 25 35  1  0  0  0  0
 26 36  1  0  0  0  0
  3  4  1  0  0  0  0
  3  5  1  0  0  0  0
  3  6  1  0  0  0  0
 42 45  1  0  0  0  0
 42 46  1  0  0  0  0
 42 47  1  0  0  0  0
 11 14  1  0  0  0  0
 11 15  1  0  0  0  0
 11 16  1  0  0  0  0
 49 51  1  0  0  0  0
 49 52  1  0  0  0  0
 49 53  1  0  0  0  0
 21 31  1  0  0  0  0
 21 32  1  0  0  0  0
 39 44  1  0  0  0  0
  8 13  1  0  0  0  0
 18 30  1  0  0  0  0
 48 50  1  0  0  0  0
  7 12  1  0  0  0  0
 38 43  1  0  0  0  0
 17 29  1  0  0  0  0
 28 37  1  0  0  0  0
M  END
$$$$

  -OEChem-05262214473D

 53 53  0     1  0  0  0  0  0999 V2000
   -1.9298    0.2574    3.9747 C   0  0  0  0  0  0  0  0  0  0  0  0
   -0.9825   -0.3573    3.4990 O   0  0  0  0  0  0  0  0  0  0  0  0
   -2.3617   -0.0250    5.3754 C   0  0  0  0  0  0  0  0  0  0  0  0
   -3.1214   -0.8213    5.4288 H   0  0  0  0  0  0  0  0  0  0  0  0
   -1.5305   -0.3726    6.0097 H   0  0  0  0  0  0  0  0  0  0  0  0
   -2.7997    0.8299    5.9150 H   0  0  0  0  0  0  0  0  0  0  0  0
   -2.6795    1.2298    3.3336 N   0  0  0  0  0  0  0  0  0  0  0  0
   -2.4327    1.6559    1.9812 C   0  0  2  0  0  0  0  0  0  0  0  0
   -1.0977    1.0705    1.5400 C   0  0  0  0  0  0  0  0  0  0  0  0
   -0.2256    0.7177    2.3313 O   0  0  0  0  0  0  0  0  0  0  0  0
   -2.4239    3.1726    1.8718 C   0  0  0  0  0  0  0  0  0  0  0  0
   -3.4446    1.6657    3.8454 H   0  0  0  0  0  0  0  0  0  0  0  0
   -3.2368    1.2374    1.3661 H   0  0  0  0  0  0  0  0  0  0  0  0
   -1.6248    3.6099    2.4815 H   0  0  0  0  0  0  0  0  0  0  0  0
   -2.2644    3.4949    0.8375 H   0  0  0  0  0  0  0  0  0  0  0  0
   -3.3741    3.5939    2.2175 H   0  0  0  0  0  0  0  0  0  0  0  0
   -0.9750    1.0274    0.1566 N   0  0  0  0  0  0  0  0  0  0  0  0
    0.2023    0.5266   -0.5070 C   0  0  2  0  0  0  0  0  0  0  0  0
   -0.2474   -0.0636   -1.8388 C   0  0  0  0  0  0  0  0  0  0  0  0
   -1.4265   -0.2798   -2.1108 O   0  0  0  0  0  0  0  0  0  0  0  0
    0.9302   -0.5338    0.3271 C   0  0  0  0  0  0  0  0  0  0  0  0
    1.5353    0.0307    1.5893 C   0  0  0  0  0  0  0  0  0  0  0  0
    2.7610    0.6946    1.5389 C   0  0  0  0  0  0  0  0  0  0  0  0
    0.8689   -0.1121    2.8063 C   0  0  0  0  0  0  0  0  0  0  0  0
    3.3203    1.2158    2.7056 C   0  0  0  0  0  0  0  0  0  0  0  0
    1.4282    0.4091    3.9730 C   0  0  0  0  0  0  0  0  0  0  0  0
    2.6540    1.0730    3.9227 C   0  0  0  0  0  0  0  0  0  0  0  0
    3.2005    1.5805    5.0612 O   0  0  0  0  0  0  0  0  0  0  0  0
   -1.7582    1.3241   -0.4207 H   0  0  0  0  0  0  0  0  0  0  0  0
    0.8459    1.3934   -0.6977 H   0  0  0  0  0  0  0  0  0  0  0  0
    1.7124   -1.0186   -0.2727 H   0  0  0  0  0  0  0  0  0  0  0  0
    0.2408   -1.3410    0.6076 H   0  0  0  0  0  0  0  0  0  0  0  0
    3.2871    0.8105    0.5952 H   0  0  0  0  0  0  0  0  0  0  0  0
   -0.0867   -0.6278    2.8550 H   0  0  0  0  0  0  0  0  0  0  0  0
    4.2757    1.7317    2.6600 H   0  0  0  0  0  0  0  0  0  0  0  0
    0.9044    0.2943    4.9179 H   0  0  0  0  0  0  0  0  0  0  0  0
    2.6225    1.4024    5.8202 H   0  0  0  0  0  0  0  0  0  0  0  0
    0.8196   -0.2717   -2.7017 N   0  0  0  0  0  0  0  0  0  0  0  0
    0.6681   -0.8011   -4.0379 C   0  0  2  0  0  0  0  0  0  0  0  0
   -0.1828   -2.0612   -3.9509 C   0  0  0  0  0  0  0  0  0  0  0  0
   -0.3002   -2.7215   -2.9206 O   0  0  0  0  0  0  0  0  0  0  0  0
    2.0181   -1.0994   -4.6713 C   0  0  0  0  0  0  0  0  0  0  0  0
    1.7541   -0.0403   -2.3777 H   0  0  0  0  0  0  0  0  0  0  0  0
    0.1370   -0.0407   -4.6210 H   0  0  0  0  0  0  0  0  0  0  0  0
    2.5648   -1.8591   -4.1009 H   0  0  0  0  0  0  0  0  0  0  0  0
    1.9026   -1.4735   -5.6939 H   0  0  0  0  0  0  0  0  0  0  0  0
    2.6399   -0.1984   -4.7060 H   0  0  0  0  0  0  0  0  0  0  0  0
   -0.7610   -2.3858   -5.1701 N   0  0  0  0  0  0  0  0  0  0  0  0
   -1.6035   -3.5451   -5.3494 C   0  0  0  0  0  0  0  0  0  0  0  0
   -0.6250   -1.7709   -5.9671 H   0  0  0  0  0  0  0  0  0  0  0  0
   -0.9913   -4.3959   -5.6830 H   0  0  0  0  0  0  0  0  0  0  0  0
   -2.0902   -3.7956   -4.3952 H   0  0  0  0  0  0  0  0  0  0  0  0
   -2.3712   -3.3268   -6.1063 H   0  0  0  0  0  0  0  0  0  0  0  0
 23 25  2  0  0  0  0
 22 23  1  0  0  0  0
 24 26  1  0  0  0  0
 22 24  2  0  0  0  0
 25 27  1  0  0  0  0
 26 27  2  0  0  0  0
 21 22  1  0  0  0  0
 27 28  1  0  0  0  0
  1  3  1  0  0  0  0
  1  7  1  0  0  0  0
  1  2  2  0  0  0  0
 39 40  1  0  0  0  0
 40 48  1  0  0  0  0
 40 41  2  0  0  0  0
  8  9  1  0  0  0  0
  9 17  1  0  0  0  0
  9 10  2  0  0  0  0
 18 19  1  0  0  0  0
 19 38  1  0  0  0  0
 19 20  2  0  0  0  0
 39 42  1  0  0  0  0
  8 11  1  0  0  0  0
 48 49  1  0  0  0  0
 18 21  1  0  0  0  0
 38 39  1  0  0  0  0
  7  8  1  0  0  0  0
 17 18  1  0  0  0  0
 23 33  1  0  0  0  0
 24 34  1  0  0  0  0
 25 35  1  0  0  0  0
 26 36  1  0  0  0  0
  3  4  1  0  0  0  0
  3  5  1  0  0  0  0
  3  6  1  0  0  0  0
 42 45  1  0  0  0  0
 42 46  1  0  0  0  0
 42 47  1  0  0  0  0
 11 14  1  0  0  0  0
 11 15  1  0  0  0  0
 11 16  1  0  0  0  0
 49 51  1  0  0  0  0
 49 52  1  0  0  0  0
 49 53  1  0  0  0  0
 21 31  1  0  0  0  0
 21 32  1  0  0  0  0
 39 44  1  0  0  0  0
  8 13  1  0  0  0  0
 18 30  1  0  0  0  0
 48 50  1  0  0  0  0
  7 12  1  0  0  0  0
 38 43  1  0  0  0  0
 17 29  1  0  0  0  0
 28 37  1  0  0  0  0
M  END
$$$$

  -OEChem-05262214473D

 53 53  0     1  0  0  0  0  0999 V2000
   -1.9298    0.2574    3.9747 C   0  0  0  0  0  0  0  0  0  0  0  0
   -0.9825   -0.3573    3.4990 O   0  0  0  0  0  0  0  0  0  0  0  0
   -2.3617   -0.0250    5.3754 C   0  0  0  0  0  0  0  0  0  0  0  0
   -3.1214   -0.8213    5.4288 H   0  0  0  0  0  0  0  0  0  0  0  0
   -1.5305   -0.3726    6.0097 H   0  0  0  0  0  0  0  0  0  0  0  0
   -2.7997    0.8299    5.9150 H   0  0  0  0  0  0  0  0  0  0  0  0
   -2.6795    1.2298    3.3336 N   0  0  0  0  0  0  0  0  0  0  0  0
   -2.4327    1.6559    1.9812 C   0  0  2  0  0  0  0  0  0  0  0  0
   -1.0977    1.0705    1.5400 C   0  0  0  0  0  0  0  0  0  0  0  0
   -0.2256    0.7177    2.3313 O   0  0  0  0  0  0  0  0  0  0  0  0
   -2.4239    3.1726    1.8718 C   0  0  0  0  0  0  0  0  0  0  0  0
   -3.4446    1.6657    3.8454 H   0  0  0  0  0  0  0  0  0  0  0  0
   -3.2368    1.2374    1.3661 H   0  0  0  0  0  0  0  0  0  0  0  0
   -1.6248    3.6099    2.4815 H   0  0  0  0  0  0  0  0  0  0  0  0
   -2.2644    3.4949    0.8375 H   0  0  0  0  0  0  0  0  0  0  0  0
   -3.3741    3.5939    2.2175 H   0  0  0  0  0  0  0  0  0  0  0  0
   -0.9750    1.0274    0.1566 N   0  0  0  0  0  0  0  0  0  0  0  0
    0.2023    0.5266   -0.5070 C   0  0  2  0  0  0  0  0  0  0  0  0
   -0.1701    0.2863   -1.9657 C   0  0  0  0  0  0  0  0  0  0  0  0
   -1.2816    0.5432   -2.4236 O   0  0  0  0  0  0  0  0  0  0  0  0
    0.7202   -0.7676    0.1309 C   0  0  0  0  0  0  0  0  0  0  0  0
    1.2505   -0.5579    1.5282 C   0  0  0  0  0  0  0  0  0  0  0  0
    2.5402   -0.0615    1.7178 C   0  0  0  0  0  0  0  0  0  0  0  0
    0.4510   -0.8613    2.6303 C   0  0  0  0  0  0  0  0  0  0  0  0
    3.0303    0.1317    3.0093 C   0  0  0  0  0  0  0  0  0  0  0  0
    0.9411   -0.6681    3.9218 C   0  0  0  0  0  0  0  0  0  0  0  0
    2.2309   -0.1716    4.1113 C   0  0  0  0  0  0  0  0  0  0  0  0
    2.7098    0.0157    5.3715 O   0  0  0  0  0  0  0  0  0  0  0  0
   -1.7582    1.3241   -0.4207 H   0  0  0  0  0  0  0  0  0  0  0  0
    0.9531    1.3238   -0.4550 H   0  0  0  0  0  0  0  0  0  0  0  0
    1.5020   -1.2151   -0.4976 H   0  0  0  0  0  0  0  0  0  0  0  0
   -0.0787   -1.5196    0.1756 H   0  0  0  0  0  0  0  0  0  0  0  0
    3.1699    0.1775    0.8650 H   0  0  0  0  0  0  0  0  0  0  0  0
   -0.5553   -1.2484    2.4921 H   0  0  0  0  0  0  0  0  0  0  0  0
    4.0361    0.5185    3.1504 H   0  0  0  0  0  0  0  0  0  0  0  0
    0.3137   -0.9066    4.7760 H   0  0  0  0  0  0  0  0  0  0  0  0
    2.0408   -0.2389    6.0268 H   0  0  0  0  0  0  0  0  0  0  0  0
    0.9009   -0.2009   -2.7019 N   0  0  0  0  0  0  0  0  0  0  0  0
    0.8250   -0.4926   -4.1154 C   0  0  2  0  0  0  0  0  0  0  0  0
   -0.4046   -1.3597   -4.3513 C   0  0  0  0  0  0  0  0  0  0  0  0
   -0.9258   -2.0388   -3.4692 O   0  0  0  0  0  0  0  0  0  0  0  0
    2.0844   -1.1906   -4.6047 C   0  0  0  0  0  0  0  0  0  0  0  0
    1.7824   -0.3605   -2.2232 H   0  0  0  0  0  0  0  0  0  0  0  0
    0.7005    0.4665   -4.6300 H   0  0  0  0  0  0  0  0  0  0  0  0
    2.2259   -2.1534   -4.1004 H   0  0  0  0  0  0  0  0  0  0  0  0
    2.0373   -1.3852   -5.6813 H   0  0  0  0  0  0  0  0  0  0  0  0
    2.9710   -0.5785   -4.4073 H   0  0  0  0  0  0  0  0  0  0  0  0
   -0.8257   -1.3195   -5.6732 N   0  0  0  0  0  0  0  0  0  0  0  0
   -1.9647   -2.0677   -6.1517 C   0  0  0  0  0  0  0  0  0  0  0  0
   -0.3454   -0.7142   -6.3324 H   0  0  0  0  0  0  0  0  0  0  0  0
   -1.6286   -3.0416   -6.5371 H   0  0  0  0  0  0  0  0  0  0  0  0
   -2.6732   -2.2253   -5.3251 H   0  0  0  0  0  0  0  0  0  0  0  0
   -2.4601   -1.5058   -6.9572 H   0  0  0  0  0  0  0  0  0  0  0  0
 23 25  2  0  0  0  0
 22 23  1  0  0  0  0
 24 26  1  0  0  0  0
 22 24  2  0  0  0  0
 25 27  1  0  0  0  0
 26 27  2  0  0  0  0
 21 22  1  0  0  0  0
 27 28  1  0  0  0  0
  1  3  1  0  0  0  0
  1  7  1  0  0  0  0
  1  2  2  0  0  0  0
 39 40  1  0  0  0  0
 40 48  1  0  0  0  0
 40 41  2  0  0  0  0
  8  9  1  0  0  0  0
  9 17  1  0  0  0  0
  9 10  2  0  0  0  0
 18 19  1  0  0  0  0
 19 38  1  0  0  0  0
 19 20  2  0  0  0  0
 39 42  1  0  0  0  0
  8 11  1  0  0  0  0
 48 49  1  0  0  0  0
 18 21  1  0  0  0  0
 38 39  1  0  0  0  0
  7  8  1  0  0  0  0
 17 18  1  0  0  0  0
 23 33  1  0  0  0  0
 24 34  1  0  0  0  0
 25 35  1  0  0  0  0
 26 36  1  0  0  0  0
  3  4  1  0  0  0  0
  3  5  1  0  0  0  0
  3  6  1  0  0  0  0
 42 45  1  0  0  0  0
 42 46  1  0  0  0  0
 42 47  1  0  0  0  0
 11 14  1  0  0  0  0
 11 15  1  0  0  0  0
 11 16  1  0  0  0  0
 49 51  1  0  0  0  0
 49 52  1  0  0  0  0
 49 53  1  0  0  0  0
 21 31  1  0  0  0  0
 21 32  1  0  0  0  0
 39 44  1  0  0  0  0
  8 13  1  0  0  0  0
 18 30  1  0  0  0  0
 48 50  1  0  0  0  0
  7 12  1  0  0  0  0
 38 43  1  0  0  0  0
 17 29  1  0  0  0  0
 28 37  1  0  0  0  0
M  END
$$$$

  -OEChem-05262214473D

 53 53  0     1  0  0  0  0  0999 V2000
   -1.9298    0.2574    3.9747 C   0  0  0  0  0  0  0  0  0  0  0  0
   -0.9825   -0.3573    3.4990 O   0  0  0  0  0  0  0  0  0  0  0  0
   -2.3617   -0.0250    5.3754 C   0  0  0  0  0  0  0  0  0  0  0  0
   -3.1214   -0.8213    5.4288 H   0  0  0  0  0  0  0  0  0  0  0  0
   -1.5305   -0.3726    6.0097 H   0  0  0  0  0  0  0  0  0  0  0  0
   -2.7997    0.8299    5.9150 H   0  0  0  0  0  0  0  0  0  0  0  0
   -2.6795    1.2298    3.3336 N   0  0  0  0  0  0  0  0  0  0  0  0
   -2.4327    1.6559    1.9812 C   0  0  2  0  0  0  0  0  0  0  0  0
   -1.0977    1.0705    1.5400 C   0  0  0  0  0  0  0  0  0  0  0  0
   -0.2256    0.7177    2.3313 O   0  0  0  0  0  0  0  0  0  0  0  0
   -2.4239    3.1726    1.8718 C   0  0  0  0  0  0  0  0  0  0  0  0
   -3.4446    1.6657    3.8454 H   0  0  0  0  0  0  0  0  0  0  0  0
   -3.2368    1.2374    1.3661 H   0  0  0  0  0  0  0  0  0  0  0  0
   -1.6248    3.6099    2.4815 H   0  0  0  0  0  0  0  0  0  0  0  0
   -2.2644    3.4949    0.8375 H   0  0  0  0  0  0  0  0  0  0  0  0
   -3.3741    3.5939    2.2175 H   0  0  0  0  0  0  0  0  0  0  0  0
   -0.9750    1.0274    0.1566 N   0  0  0  0  0  0  0  0  0  0  0  0
    0.2023    0.5266   -0.5070 C   0  0  2  0  0  0  0  0  0  0  0  0
   -0.1701    0.2863   -1.9657 C   0  0  0  0  0  0  0  0  0  0  0  0
   -1.1670    0.7771   -2.4914 O   0  0  0  0  0  0  0  0  0  0  0  0
    0.7202   -0.7676    0.1309 C   0  0  0  0  0  0  0  0  0  0  0  0
    1.2505   -0.5579    1.5282 C   0  0  0  0  0  0  0  0  0  0  0  0
    2.5402   -0.0615    1.7178 C   0  0  0  0  0  0  0  0  0  0  0  0
    0.4510   -0.8613    2.6303 C   0  0  0  0  0  0  0  0  0  0  0  0
    3.0303    0.1317    3.0093 C   0  0  0  0  0  0  0  0  0  0  0  0
    0.9411   -0.6681    3.9218 C   0  0  0  0  0  0  0  0  0  0  0  0
    2.2309   -0.1716    4.1113 C   0  0  0  0  0  0  0  0  0  0  0  0
    2.7098    0.0157    5.3715 O   0  0  0  0  0  0  0  0  0  0  0  0
   -1.7582    1.3241   -0.4207 H   0  0  0  0  0  0  0  0  0  0  0  0
    0.9531    1.3238   -0.4550 H   0  0  0  0  0  0  0  0  0  0  0  0
    1.5020   -1.2151   -0.4976 H   0  0  0  0  0  0  0  0  0  0  0  0
   -0.0787   -1.5196    0.1756 H   0  0  0  0  0  0  0  0  0  0  0  0
    3.1699    0.1775    0.8650 H   0  0  0  0  0  0  0  0  0  0  0  0
   -0.5553   -1.2484    2.4921 H   0  0  0  0  0  0  0  0  0  0  0  0
    4.0361    0.5185    3.1504 H   0  0  0  0  0  0  0  0  0  0  0  0
    0.3137   -0.9066    4.7760 H   0  0  0  0  0  0  0  0  0  0  0  0
    2.0408   -0.2389    6.0268 H   0  0  0  0  0  0  0  0  0  0  0  0
    0.7694   -0.4989   -2.6193 N   0  0  0  0  0  0  0  0  0  0  0  0
    0.6698   -0.8588   -4.0155 C   0  0  2  0  0  0  0  0  0  0  0  0
   -0.7286   -1.4103   -4.2603 C   0  0  0  0  0  0  0  0  0  0  0  0
   -1.4311   -1.8781   -3.3666 O   0  0  0  0  0  0  0  0  0  0  0  0
    1.7311   -1.8773   -4.4014 C   0  0  0  0  0  0  0  0  0  0  0  0
    1.5673   -0.8376   -2.0896 H   0  0  0  0  0  0  0  0  0  0  0  0
    0.8049    0.0639   -4.5903 H   0  0  0  0  0  0  0  0  0  0  0  0
    1.6118   -2.8085   -3.8357 H   0  0  0  0  0  0  0  0  0  0  0  0
    1.6724   -2.1274   -5.4659 H   0  0  0  0  0  0  0  0  0  0  0  0
    2.7352   -1.4904   -4.1969 H   0  0  0  0  0  0  0  0  0  0  0  0
   -1.0828   -1.3581   -5.6012 N   0  0  0  0  0  0  0  0  0  0  0  0
   -2.3558   -1.8336   -6.0904 C   0  0  0  0  0  0  0  0  0  0  0  0
   -0.4455   -0.9363   -6.2703 H   0  0  0  0  0  0  0  0  0  0  0  0
   -2.2603   -2.8842   -6.4018 H   0  0  0  0  0  0  0  0  0  0  0  0
   -3.1080   -1.7549   -5.2916 H   0  0  0  0  0  0  0  0  0  0  0  0
   -2.6691   -1.2234   -6.9503 H   0  0  0  0  0  0  0  0  0  0  0  0
 23 25  2  0  0  0  0
 22 23  1  0  0  0  0
 24 26  1  0  0  0  0
 22 24  2  0  0  0  0
 25 27  1  0  0  0  0
 26 27  2  0  0  0  0
 21 22  1  0  0  0  0
 27 28  1  0  0  0  0
  1  3  1  0  0  0  0
  1  7  1  0  0  0  0
  1  2  2  0  0  0  0
 39 40  1  0  0  0  0
 40 48  1  0  0  0  0
 40 41  2  0  0  0  0
  8  9  1  0  0  0  0
  9 17  1  0  0  0  0
  9 10  2  0  0  0  0
 18 19  1  0  0  0  0
 19 38  1  0  0  0  0
 19 20  2  0  0  0  0
 39 42  1  0  0  0  0
  8 11  1  0  0  0  0
 48 49  1  0  0  0  0
 18 21  1  0  0  0  0
 38 39  1  0  0  0  0
  7  8  1  0  0  0  0
 17 18  1  0  0  0  0
 23 33  1  0  0  0  0
 24 34  1  0  0  0  0
 25 35  1  0  0  0  0
 26 36  1  0  0  0  0
  3  4  1  0  0  0  0
  3  5  1  0  0  0  0
  3  6  1  0  0  0  0
 42 45  1  0  0  0  0
 42 46  1  0  0  0  0
 42 47  1  0  0  0  0
 11 14  1  0  0  0  0
 11 15  1  0  0  0  0
 11 16  1  0  0  0  0
 49 51  1  0  0  0  0
 49 52  1  0  0  0  0
 49 53  1  0  0  0  0
 21 31  1  0  0  0  0
 21 32  1  0  0  0  0
 39 44  1  0  0  0  0
  8 13  1  0  0  0  0
 18 30  1  0  0  0  0
 48 50  1  0  0  0  0
  7 12  1  0  0  0  0
 38 43  1  0  0  0  0
 17 29  1  0  0  0  0
 28 37  1  0  0  0  0
M  END
$$$$

  -OEChem-05262214473D

 53 53  0     1  0  0  0  0  0999 V2000
   -1.9298    0.2574    3.9747 C   0  0  0  0  0  0  0  0  0  0  0  0
   -0.9825   -0.3573    3.4990 O   0  0  0  0  0  0  0  0  0  0  0  0
   -2.3617   -0.0250    5.3754 C   0  0  0  0  0  0  0  0  0  0  0  0
   -3.1214   -0.8213    5.4288 H   0  0  0  0  0  0  0  0  0  0  0  0
   -1.5305   -0.3726    6.0097 H   0  0  0  0  0  0  0  0  0  0  0  0
   -2.7997    0.8299    5.9150 H   0  0  0  0  0  0  0  0  0  0  0  0
   -2.6795    1.2298    3.3336 N   0  0  0  0  0  0  0  0  0  0  0  0
   -2.4327    1.6559    1.9812 C   0  0  2  0  0  0  0  0  0  0  0  0
   -1.0977    1.0705    1.5400 C   0  0  0  0  0  0  0  0  0  0  0  0
   -0.2256    0.7177    2.3313 O   0  0  0  0  0  0  0  0  0  0  0  0
   -2.4239    3.1726    1.8718 C   0  0  0  0  0  0  0  0  0  0  0  0
   -3.4446    1.6657    3.8454 H   0  0  0  0  0  0  0  0  0  0  0  0
   -3.2368    1.2374    1.3661 H   0  0  0  0  0  0  0  0  0  0  0  0
   -1.6248    3.6099    2.4815 H   0  0  0  0  0  0  0  0  0  0  0  0
   -2.2644    3.4949    0.8375 H   0  0  0  0  0  0  0  0  0  0  0  0
   -3.3741    3.5939    2.2175 H   0  0  0  0  0  0  0  0  0  0  0  0
   -0.9750    1.0274    0.1566 N   0  0  0  0  0  0  0  0  0  0  0  0
    0.2023    0.5266   -0.5070 C   0  0  2  0  0  0  0  0  0  0  0  0
   -0.1701    0.2863   -1.9657 C   0  0  0  0  0  0  0  0  0  0  0  0
   -0.9956    0.9704   -2.5670 O   0  0  0  0  0  0  0  0  0  0  0  0
    0.7202   -0.7676    0.1309 C   0  0  0  0  0  0  0  0  0  0  0  0
    1.2505   -0.5579    1.5282 C   0  0  0  0  0  0  0  0  0  0  0  0
    2.5402   -0.0615    1.7178 C   0  0  0  0  0  0  0  0  0  0  0  0
    0.4510   -0.8613    2.6303 C   0  0  0  0  0  0  0  0  0  0  0  0
    3.0303    0.1317    3.0093 C   0  0  0  0  0  0  0  0  0  0  0  0
    0.9411   -0.6681    3.9218 C   0  0  0  0  0  0  0  0  0  0  0  0
    2.2309   -0.1716    4.1113 C   0  0  0  0  0  0  0  0  0  0  0  0
    2.7098    0.0157    5.3715 O   0  0  0  0  0  0  0  0  0  0  0  0
   -1.7582    1.3241   -0.4207 H   0  0  0  0  0  0  0  0  0  0  0  0
    0.9531    1.3238   -0.4550 H   0  0  0  0  0  0  0  0  0  0  0  0
    1.5020   -1.2151   -0.4976 H   0  0  0  0  0  0  0  0  0  0  0  0
   -0.0787   -1.5196    0.1756 H   0  0  0  0  0  0  0  0  0  0  0  0
    3.1699    0.1775    0.8650 H   0  0  0  0  0  0  0  0  0  0  0  0
   -0.5553   -1.2484    2.4921 H   0  0  0  0  0  0  0  0  0  0  0  0
    4.0361    0.5185    3.1504 H   0  0  0  0  0  0  0  0  0  0  0  0
    0.3137   -0.9066    4.7760 H   0  0  0  0  0  0  0  0  0  0  0  0
    2.0408   -0.2389    6.0268 H   0  0  0  0  0  0  0  0  0  0  0  0
    0.5653   -0.7489   -2.5260 N   0  0  0  0  0  0  0  0  0  0  0  0
    0.4251   -1.1677   -3.9021 C   0  0  2  0  0  0  0  0  0  0  0  0
   -1.0577   -1.3732   -4.1824 C   0  0  0  0  0  0  0  0  0  0  0  0
   -1.8835   -1.5914   -3.2984 O   0  0  0  0  0  0  0  0  0  0  0  0
    1.2115   -2.4402   -4.1761 C   0  0  0  0  0  0  0  0  0  0  0  0
    1.2359   -1.2367   -1.9393 H   0  0  0  0  0  0  0  0  0  0  0  0
    0.8045   -0.3483   -4.5223 H   0  0  0  0  0  0  0  0  0  0  0  0
    0.8456   -3.2724   -3.5637 H   0  0  0  0  0  0  0  0  0  0  0  0
    1.1274   -2.7404   -5.2258 H   0  0  0  0  0  0  0  0  0  0  0  0
    2.2730   -2.2996   -3.9456 H   0  0  0  0  0  0  0  0  0  0  0  0
   -1.3436   -1.3272   -5.5397 N   0  0  0  0  0  0  0  0  0  0  0  0
   -2.6781   -1.5067   -6.0619 C   0  0  0  0  0  0  0  0  0  0  0  0
   -0.5997   -1.1221   -6.2003 H   0  0  0  0  0  0  0  0  0  0  0  0
   -2.8371   -2.5673   -6.3067 H   0  0  0  0  0  0  0  0  0  0  0  0
   -3.4128   -1.1908   -5.3067 H   0  0  0  0  0  0  0  0  0  0  0  0
   -2.8012   -0.8984   -6.9701 H   0  0  0  0  0  0  0  0  0  0  0  0
 23 25  2  0  0  0  0
 22 23  1  0  0  0  0
 24 26  1  0  0  0  0
 22 24  2  0  0  0  0
 25 27  1  0  0  0  0
 26 27  2  0  0  0  0
 21 22  1  0  0  0  0
 27 28  1  0  0  0  0
  1  3  1  0  0  0  0
  1  7  1  0  0  0  0
  1  2  2  0  0  0  0
 39 40  1  0  0  0  0
 40 48  1  0  0  0  0
 40 41  2  0  0  0  0
  8  9  1  0  0  0  0
  9 17  1  0  0  0  0
  9 10  2  0  0  0  0
 18 19  1  0  0  0  0
 19 38  1  0  0  0  0
 19 20  2  0  0  0  0
 39 42  1  0  0  0  0
  8 11  1  0  0  0  0
 48 49  1  0  0  0  0
 18 21  1  0  0  0  0
 38 39  1  0  0  0  0
  7  8  1  0  0  0  0
 17 18  1  0  0  0  0
 23 33  1  0  0  0  0
 24 34  1  0  0  0  0
 25 35  1  0  0  0  0
 26 36  1  0  0  0  0
  3  4  1  0  0  0  0
  3  5  1  0  0  0  0
  3  6  1  0  0  0  0
 42 45  1  0  0  0  0
 42 46  1  0  0  0  0
 42 47  1  0  0  0  0
 11 14  1  0  0  0  0
 11 15  1  0  0  0  0
 11 16  1  0  0  0  0
 49 51  1  0  0  0  0
 49 52  1  0  0  0  0
 49 53  1  0  0  0  0
 21 31  1  0  0  0  0
 21 32  1  0  0  0  0
 39 44  1  0  0  0  0
  8 13  1  0  0  0  0
 18 30  1  0  0  0  0
 48 50  1  0  0  0  0
  7 12  1  0  0  0  0
 38 43  1  0  0  0  0
 17 29  1  0  0  0  0
 28 37  1  0  0  0  0
M  END
$$$$

  -OEChem-05262214473D

 53 53  0     1  0  0  0  0  0999 V2000
   -1.9298    0.2574    3.9747 C   0  0  0  0  0  0  0  0  0  0  0  0
   -0.9825   -0.3573    3.4990 O   0  0  0  0  0  0  0  0  0  0  0  0
   -2.3617   -0.0250    5.3754 C   0  0  0  0  0  0  0  0  0  0  0  0
   -3.1214   -0.8213    5.4288 H   0  0  0  0  0  0  0  0  0  0  0  0
   -1.5305   -0.3726    6.0097 H   0  0  0  0  0  0  0  0  0  0  0  0
   -2.7997    0.8299    5.9150 H   0  0  0  0  0  0  0  0  0  0  0  0
   -2.6795    1.2298    3.3336 N   0  0  0  0  0  0  0  0  0  0  0  0
   -2.4327    1.6559    1.9812 C   0  0  2  0  0  0  0  0  0  0  0  0
   -1.0977    1.0705    1.5400 C   0  0  0  0  0  0  0  0  0  0  0  0
   -0.2256    0.7177    2.3313 O   0  0  0  0  0  0  0  0  0  0  0  0
   -2.4239    3.1726    1.8718 C   0  0  0  0  0  0  0  0  0  0  0  0
   -3.4446    1.6657    3.8454 H   0  0  0  0  0  0  0  0  0  0  0  0
   -3.2368    1.2374    1.3661 H   0  0  0  0  0  0  0  0  0  0  0  0
   -1.6248    3.6099    2.4815 H   0  0  0  0  0  0  0  0  0  0  0  0
   -2.2644    3.4949    0.8375 H   0  0  0  0  0  0  0  0  0  0  0  0
   -3.3741    3.5939    2.2175 H   0  0  0  0  0  0  0  0  0  0  0  0
   -0.9750    1.0274    0.1566 N   0  0  0  0  0  0  0  0  0  0  0  0
    0.2023    0.5266   -0.5070 C   0  0  2  0  0  0  0  0  0  0  0  0
   -0.1701    0.2863   -1.9657 C   0  0  0  0  0  0  0  0  0  0  0  0
   -0.7791    1.1099   -2.6452 O   0  0  0  0  0  0  0  0  0  0  0  0
    0.7202   -0.7676    0.1309 C   0  0  0  0  0  0  0  0  0  0  0  0
    1.2505   -0.5579    1.5282 C   0  0  0  0  0  0  0  0  0  0  0  0
    2.5402   -0.0615    1.7178 C   0  0  0  0  0  0  0  0  0  0  0  0
    0.4510   -0.8613    2.6303 C   0  0  0  0  0  0  0  0  0  0  0  0
    3.0303    0.1317    3.0093 C   0  0  0  0  0  0  0  0  0  0  0  0
    0.9411   -0.6681    3.9218 C   0  0  0  0  0  0  0  0  0  0  0  0
    2.2309   -0.1716    4.1113 C   0  0  0  0  0  0  0  0  0  0  0  0
    2.7098    0.0157    5.3715 O   0  0  0  0  0  0  0  0  0  0  0  0
   -1.7582    1.3241   -0.4207 H   0  0  0  0  0  0  0  0  0  0  0  0
    0.9531    1.3238   -0.4550 H   0  0  0  0  0  0  0  0  0  0  0  0
    1.5020   -1.2151   -0.4976 H   0  0  0  0  0  0  0  0  0  0  0  0
   -0.0787   -1.5196    0.1756 H   0  0  0  0  0  0  0  0  0  0  0  0
    3.1699    0.1775    0.8650 H   0  0  0  0  0  0  0  0  0  0  0  0
   -0.5553   -1.2484    2.4921 H   0  0  0  0  0  0  0  0  0  0  0  0
    4.0361    0.5185    3.1504 H   0  0  0  0  0  0  0  0  0  0  0  0
    0.3137   -0.9066    4.7760 H   0  0  0  0  0  0  0  0  0  0  0  0
    2.0408   -0.2389    6.0268 H   0  0  0  0  0  0  0  0  0  0  0  0
    0.3024   -0.9340   -2.4284 N   0  0  0  0  0  0  0  0  0  0  0  0
    0.1076   -1.3984   -3.7830 C   0  0  2  0  0  0  0  0  0  0  0  0
   -1.3697   -1.2510   -4.1229 C   0  0  0  0  0  0  0  0  0  0  0  0
   -2.2524   -1.1980   -3.2690 O   0  0  0  0  0  0  0  0  0  0  0  0
    0.5610   -2.8410   -3.9440 C   0  0  0  0  0  0  0  0  0  0  0  0
    0.8108   -1.5306   -1.7824 H   0  0  0  0  0  0  0  0  0  0  0  0
    0.6992   -0.7421   -4.4306 H   0  0  0  0  0  0  0  0  0  0  0  0
   -0.0204   -3.5136   -3.3028 H   0  0  0  0  0  0  0  0  0  0  0  0
    0.4393   -3.1823   -4.9773 H   0  0  0  0  0  0  0  0  0  0  0  0
    1.6160   -2.9508   -3.6706 H   0  0  0  0  0  0  0  0  0  0  0  0
   -1.5903   -1.2288   -5.4929 N   0  0  0  0  0  0  0  0  0  0  0  0
   -2.9097   -1.1093   -6.0683 C   0  0  0  0  0  0  0  0  0  0  0  0
   -0.7976   -1.2589   -6.1273 H   0  0  0  0  0  0  0  0  0  0  0  0
   -3.3195   -2.1122   -6.2585 H   0  0  0  0  0  0  0  0  0  0  0  0
   -3.5670   -0.5713   -5.3693 H   0  0  0  0  0  0  0  0  0  0  0  0
   -2.8476   -0.5530   -7.0152 H   0  0  0  0  0  0  0  0  0  0  0  0
 23 25  2  0  0  0  0
 22 23  1  0  0  0  0
 24 26  1  0  0  0  0
 22 24  2  0  0  0  0
 25 27  1  0  0  0  0
 26 27  2  0  0  0  0
 21 22  1  0  0  0  0
 27 28  1  0  0  0  0
  1  3  1  0  0  0  0
  1  7  1  0  0  0  0
  1  2  2  0  0  0  0
 39 40  1  0  0  0  0
 40 48  1  0  0  0  0
 40 41  2  0  0  0  0
  8  9  1  0  0  0  0
  9 17  1  0  0  0  0
  9 10  2  0  0  0  0
 18 19  1  0  0  0  0
 19 38  1  0  0  0  0
 19 20  2  0  0  0  0
 39 42  1  0  0  0  0
  8 11  1  0  0  0  0
 48 49  1  0  0  0  0
 18 21  1  0  0  0  0
 38 39  1  0  0  0  0
  7  8  1  0  0  0  0
 17 18  1  0  0  0  0
 23 33  1  0  0  0  0
 24 34  1  0  0  0  0
 25 35  1  0  0  0  0
 26 36  1  0  0  0  0
  3  4  1  0  0  0  0
  3  5  1  0  0  0  0
  3  6  1  0  0  0  0
 42 45  1  0  0  0  0
 42 46  1  0  0  0  0
 42 47  1  0  0  0  0
 11 14  1  0  0  0  0
 11 15  1  0  0  0  0
 11 16  1  0  0  0  0
 49 51  1  0  0  0  0
 49 52  1  0  0  0  0
 49 53  1  0  0  0  0
 21 31  1  0  0  0  0
 21 32  1  0  0  0  0
 39 44  1  0  0  0  0
  8 13  1  0  0  0  0
 18 30  1  0  0  0  0
 48 50  1  0  0  0  0
  7 12  1  0  0  0  0
 38 43  1  0  0  0  0
 17 29  1  0  0  0  0
 28 37  1  0  0  0  0
M  END
$$$$

  -OEChem-05262214473D

 53 53  0     1  0  0  0  0  0999 V2000
   -1.9298    0.2574    3.9747 C   0  0  0  0  0  0  0  0  0  0  0  0
   -0.9825   -0.3573    3.4990 O   0  0  0  0  0  0  0  0  0  0  0  0
   -2.3617   -0.0250    5.3754 C   0  0  0  0  0  0  0  0  0  0  0  0
   -3.1214   -0.8213    5.4288 H   0  0  0  0  0  0  0  0  0  0  0  0
   -1.5305   -0.3726    6.0097 H   0  0  0  0  0  0  0  0  0  0  0  0
   -2.7997    0.8299    5.9150 H   0  0  0  0  0  0  0  0  0  0  0  0
   -2.6795    1.2298    3.3336 N   0  0  0  0  0  0  0  0  0  0  0  0
   -2.4327    1.6559    1.9812 C   0  0  2  0  0  0  0  0  0  0  0  0
   -1.0977    1.0705    1.5400 C   0  0  0  0  0  0  0  0  0  0  0  0
   -0.2256    0.7177    2.3313 O   0  0  0  0  0  0  0  0  0  0  0  0
   -2.4239    3.1726    1.8718 C   0  0  0  0  0  0  0  0  0  0  0  0
   -3.4446    1.6657    3.8454 H   0  0  0  0  0  0  0  0  0  0  0  0
   -3.2368    1.2374    1.3661 H   0  0  0  0  0  0  0  0  0  0  0  0
   -1.6248    3.6099    2.4815 H   0  0  0  0  0  0  0  0  0  0  0  0
   -2.2644    3.4949    0.8375 H   0  0  0  0  0  0  0  0  0  0  0  0
   -3.3741    3.5939    2.2175 H   0  0  0  0  0  0  0  0  0  0  0  0
   -0.9750    1.0274    0.1566 N   0  0  0  0  0  0  0  0  0  0  0  0
    0.2023    0.5266   -0.5070 C   0  0  2  0  0  0  0  0  0  0  0  0
   -0.1701    0.2863   -1.9657 C   0  0  0  0  0  0  0  0  0  0  0  0
   -0.5322    1.1861   -2.7208 O   0  0  0  0  0  0  0  0  0  0  0  0
    0.7202   -0.7676    0.1309 C   0  0  0  0  0  0  0  0  0  0  0  0
    1.2505   -0.5579    1.5282 C   0  0  0  0  0  0  0  0  0  0  0  0
    2.5402   -0.0615    1.7178 C   0  0  0  0  0  0  0  0  0  0  0  0
    0.4510   -0.8613    2.6303 C   0  0  0  0  0  0  0  0  0  0  0  0
    3.0303    0.1317    3.0093 C   0  0  0  0  0  0  0  0  0  0  0  0
    0.9411   -0.6681    3.9218 C   0  0  0  0  0  0  0  0  0  0  0  0
    2.2309   -0.1716    4.1113 C   0  0  0  0  0  0  0  0  0  0  0  0
    2.7098    0.0157    5.3715 O   0  0  0  0  0  0  0  0  0  0  0  0
   -1.7582    1.3241   -0.4207 H   0  0  0  0  0  0  0  0  0  0  0  0
    0.9531    1.3238   -0.4550 H   0  0  0  0  0  0  0  0  0  0  0  0
    1.5020   -1.2151   -0.4976 H   0  0  0  0  0  0  0  0  0  0  0  0
   -0.0787   -1.5196    0.1756 H   0  0  0  0  0  0  0  0  0  0  0  0
    3.1699    0.1775    0.8650 H   0  0  0  0  0  0  0  0  0  0  0  0
   -0.5553   -1.2484    2.4921 H   0  0  0  0  0  0  0  0  0  0  0  0
    4.0361    0.5185    3.1504 H   0  0  0  0  0  0  0  0  0  0  0  0
    0.3137   -0.9066    4.7760 H   0  0  0  0  0  0  0  0  0  0  0  0
    2.0408   -0.2389    6.0268 H   0  0  0  0  0  0  0  0  0  0  0  0
   -0.0013   -1.0414   -2.3331 N   0  0  0  0  0  0  0  0  0  0  0  0
   -0.2611   -1.5351   -3.6664 C   0  0  2  0  0  0  0  0  0  0  0  0
   -1.6431   -1.0519   -4.0859 C   0  0  0  0  0  0  0  0  0  0  0  0
   -2.5124   -0.7249   -3.2806 O   0  0  0  0  0  0  0  0  0  0  0  0
   -0.1761   -3.0525   -3.7210 C   0  0  0  0  0  0  0  0  0  0  0  0
    0.3210   -1.6993   -1.6295 H   0  0  0  0  0  0  0  0  0  0  0  0
    0.4962   -1.0905   -4.3214 H   0  0  0  0  0  0  0  0  0  0  0  0
   -0.9273   -3.5157   -3.0710 H   0  0  0  0  0  0  0  0  0  0  0  0
   -0.3449   -3.4230   -4.7375 H   0  0  0  0  0  0  0  0  0  0  0  0
    0.8088   -3.3998   -3.3906 H   0  0  0  0  0  0  0  0  0  0  0  0
   -1.8062   -1.0698   -5.4640 N   0  0  0  0  0  0  0  0  0  0  0  0
   -3.0347   -0.6686   -6.1090 C   0  0  0  0  0  0  0  0  0  0  0  0
   -1.0256   -1.3375   -6.0561 H   0  0  0  0  0  0  0  0  0  0  0  0
   -3.6748   -1.5502   -6.2604 H   0  0  0  0  0  0  0  0  0  0  0  0
   -3.5599    0.0613   -5.4753 H   0  0  0  0  0  0  0  0  0  0  0  0
   -2.8050   -0.2108   -7.0824 H   0  0  0  0  0  0  0  0  0  0  0  0
 23 25  2  0  0  0  0
 22 23  1  0  0  0  0
 24 26  1  0  0  0  0
 22 24  2  0  0  0  0
 25 27  1  0  0  0  0
 26 27  2  0  0  0  0
 21 22  1  0  0  0  0
 27 28  1  0  0  0  0
  1  3  1  0  0  0  0
  1  7  1  0  0  0  0
  1  2  2  0  0  0  0
 39 40  1  0  0  0  0
 40 48  1  0  0  0  0
 40 41  2  0  0  0  0
  8  9  1  0  0  0  0
  9 17  1  0  0  0  0
  9 10  2  0  0  0  0
 18 19  1  0  0  0  0
 19 38  1  0  0  0  0
 19 20  2  0  0  0  0
 39 42  1  0  0  0  0
  8 11  1  0  0  0  0
 48 49  1  0  0  0  0
 18 21  1  0  0  0  0
 38 39  1  0  0  0  0
  7  8  1  0  0  0  0
 17 18  1  0  0  0  0
 23 33  1  0  0  0  0
 24 34  1  0  0  0  0
 25 35  1  0  0  0  0
 26 36  1  0  0  0  0
  3  4  1  0  0  0  0
  3  5  1  0  0  0  0
  3  6  1  0  0  0  0
 42 45  1  0  0  0  0
 42 46  1  0  0  0  0
 42 47  1  0  0  0  0
 11 14  1  0  0  0  0
 11 15  1  0  0  0  0
 11 16  1  0  0  0  0
 49 51  1  0  0  0  0
 49 52  1  0  0  0  0
 49 53  1  0  0  0  0
 21 31  1  0  0  0  0
 21 32  1  0  0  0  0
 39 44  1  0  0  0  0
  8 13  1  0  0  0  0
 18 30  1  0  0  0  0
 48 50  1  0  0  0  0
  7 12  1  0  0  0  0
 38 43  1  0  0  0  0
 17 29  1  0  0  0  0
 28 37  1  0  0  0  0
M  END
$$$$

  -OEChem-05262214473D

 53 53  0     1  0  0  0  0  0999 V2000
   -1.9298    0.2574    3.9747 C   0  0  0  0  0  0  0  0  0  0  0  0
   -0.9825   -0.3573    3.4990 O   0  0  0  0  0  0  0  0  0  0  0  0
   -2.3617   -0.0250    5.3754 C   0  0  0  0  0  0  0  0  0  0  0  0
   -3.1214   -0.8213    5.4288 H   0  0  0  0  0  0  0  0  0  0  0  0
   -1.5305   -0.3726    6.0097 H   0  0  0  0  0  0  0  0  0  0  0  0
   -2.7997    0.8299    5.9150 H   0  0  0  0  0  0  0  0  0  0  0  0
   -2.6795    1.2298    3.3336 N   0  0  0  0  0  0  0  0  0  0  0  0
   -2.4327    1.6559    1.9812 C   0  0  2  0  0  0  0  0  0  0  0  0
   -1.0977    1.0705    1.5400 C   0  0  0  0  0  0  0  0  0  0  0  0
   -0.2256    0.7177    2.3313 O   0  0  0  0  0  0  0  0  0  0  0  0
   -2.4239    3.1726    1.8718 C   0  0  0  0  0  0  0  0  0  0  0  0
   -3.4446    1.6657    3.8454 H   0  0  0  0  0  0  0  0  0  0  0  0
   -3.2368    1.2374    1.3661 H   0  0  0  0  0  0  0  0  0  0  0  0
   -1.6248    3.6099    2.4815 H   0  0  0  0  0  0  0  0  0  0  0  0
   -2.2644    3.4949    0.8375 H   0  0  0  0  0  0  0  0  0  0  0  0
   -3.3741    3.5939    2.2175 H   0  0  0  0  0  0  0  0  0  0  0  0
   -0.9750    1.0274    0.1566 N   0  0  0  0  0  0  0  0  0  0  0  0
    0.2023    0.5266   -0.5070 C   0  0  2  0  0  0  0  0  0  0  0  0
   -0.1701    0.2863   -1.9657 C   0  0  0  0  0  0  0  0  0  0  0  0
   -0.2718    1.1938   -2.7885 O   0  0  0  0  0  0  0  0  0  0  0  0
    0.7202   -0.7676    0.1309 C   0  0  0  0  0  0  0  0  0  0  0  0
    1.2505   -0.5579    1.5282 C   0  0  0  0  0  0  0  0  0  0  0  0
    2.5402   -0.0615    1.7178 C   0  0  0  0  0  0  0  0  0  0  0  0
    0.4510   -0.8613    2.6303 C   0  0  0  0  0  0  0  0  0  0  0  0
    3.0303    0.1317    3.0093 C   0  0  0  0  0  0  0  0  0  0  0  0
    0.9411   -0.6681    3.9218 C   0  0  0  0  0  0  0  0  0  0  0  0
    2.2309   -0.1716    4.1113 C   0  0  0  0  0  0  0  0  0  0  0  0
    2.7098    0.0157    5.3715 O   0  0  0  0  0  0  0  0  0  0  0  0
   -1.7582    1.3241   -0.4207 H   0  0  0  0  0  0  0  0  0  0  0  0
    0.9531    1.3238   -0.4550 H   0  0  0  0  0  0  0  0  0  0  0  0
    1.5020   -1.2151   -0.4976 H   0  0  0  0  0  0  0  0  0  0  0  0
   -0.0787   -1.5196    0.1756 H   0  0  0  0  0  0  0  0  0  0  0  0
    3.1699    0.1775    0.8650 H   0  0  0  0  0  0  0  0  0  0  0  0
   -0.5553   -1.2484    2.4921 H   0  0  0  0  0  0  0  0  0  0  0  0
    4.0361    0.5185    3.1504 H   0  0  0  0  0  0  0  0  0  0  0  0
    0.3137   -0.9066    4.7760 H   0  0  0  0  0  0  0  0  0  0  0  0
    2.0408   -0.2389    6.0268 H   0  0  0  0  0  0  0  0  0  0  0  0
   -0.3252   -1.0640   -2.2467 N   0  0  0  0  0  0  0  0  0  0  0  0
   -0.6558   -1.5684   -3.5602 C   0  0  2  0  0  0  0  0  0  0  0  0
   -1.8595   -0.7895   -4.0739 C   0  0  0  0  0  0  0  0  0  0  0  0
   -2.6459   -0.2042   -3.3322 O   0  0  0  0  0  0  0  0  0  0  0  0
   -0.9494   -3.0601   -3.5223 C   0  0  0  0  0  0  0  0  0  0  0  0
   -0.2001   -1.7314   -1.4912 H   0  0  0  0  0  0  0  0  0  0  0  0
    0.2094   -1.3700   -4.2021 H   0  0  0  0  0  0  0  0  0  0  0  0
   -1.8133   -3.2784   -2.8839 H   0  0  0  0  0  0  0  0  0  0  0  0
   -1.1717   -3.4462   -4.5226 H   0  0  0  0  0  0  0  0  0  0  0  0
   -0.0934   -3.6158   -3.1246 H   0  0  0  0  0  0  0  0  0  0  0  0
   -1.9766   -0.8608   -5.4549 N   0  0  0  0  0  0  0  0  0  0  0  0
   -3.0446   -0.2145   -6.1812 C   0  0  0  0  0  0  0  0  0  0  0  0
   -1.2681   -1.3524   -5.9917 H   0  0  0  0  0  0  0  0  0  0  0  0
   -3.8787   -0.9195   -6.3122 H   0  0  0  0  0  0  0  0  0  0  0  0
   -3.3921    0.6638   -5.6174 H   0  0  0  0  0  0  0  0  0  0  0  0
   -2.6764    0.1050   -7.1673 H   0  0  0  0  0  0  0  0  0  0  0  0
 23 25  2  0  0  0  0
 22 23  1  0  0  0  0
 24 26  1  0  0  0  0
 22 24  2  0  0  0  0
 25 27  1  0  0  0  0
 26 27  2  0  0  0  0
 21 22  1  0  0  0  0
 27 28  1  0  0  0  0
  1  3  1  0  0  0  0
  1  7  1  0  0  0  0
  1  2  2  0  0  0  0
 39 40  1  0  0  0  0
 40 48  1  0  0  0  0
 40 41  2  0  0  0  0
  8  9  1  0  0  0  0
  9 17  1  0  0  0  0
  9 10  2  0  0  0  0
 18 19  1  0  0  0  0
 19 38  1  0  0  0  0
 19 20  2  0  0  0  0
 39 42  1  0  0  0  0
  8 11  1  0  0  0  0
 48 49  1  0  0  0  0
 18 21  1  0  0  0  0
 38 39  1  0  0  0  0
  7  8  1  0  0  0  0
 17 18  1  0  0  0  0
 23 33  1  0  0  0  0
 24 34  1  0  0  0  0
 25 35  1  0  0  0  0
 26 36  1  0  0  0  0
  3  4  1  0  0  0  0
  3  5  1  0  0  0  0
  3  6  1  0  0  0  0
 42 45  1  0  0  0  0
 42 46  1  0  0  0  0
 42 47  1  0  0  0  0
 11 14  1  0  0  0  0
 11 15  1  0  0  0  0
 11 16  1  0  0  0  0
 49 51  1  0  0  0  0
 49 52  1  0  0  0  0
 49 53  1  0  0  0  0
 21 31  1  0  0  0  0
 21 32  1  0  0  0  0
 39 44  1  0  0  0  0
  8 13  1  0  0  0  0
 18 30  1  0  0  0  0
 48 50  1  0  0  0  0
  7 12  1  0  0  0  0
 38 43  1  0  0  0  0
 17 29  1  0  0  0  0
 28 37  1  0  0  0  0
M  END
$$$$

  -OEChem-05262214473D

 53 53  0     1  0  0  0  0  0999 V2000
   -1.9298    0.2574    3.9747 C   0  0  0  0  0  0  0  0  0  0  0  0
   -0.9825   -0.3573    3.4990 O   0  0  0  0  0  0  0  0  0  0  0  0
   -2.3617   -0.0250    5.3754 C   0  0  0  0  0  0  0  0  0  0  0  0
   -3.1214   -0.8213    5.4288 H   0  0  0  0  0  0  0  0  0  0  0  0
   -1.5305   -0.3726    6.0097 H   0  0  0  0  0  0  0  0  0  0  0  0
   -2.7997    0.8299    5.9150 H   0  0  0  0  0  0  0  0  0  0  0  0
   -2.6795    1.2298    3.3336 N   0  0  0  0  0  0  0  0  0  0  0  0
   -2.4327    1.6559    1.9812 C   0  0  2  0  0  0  0  0  0  0  0  0
   -1.0977    1.0705    1.5400 C   0  0  0  0  0  0  0  0  0  0  0  0
   -0.2256    0.7177    2.3313 O   0  0  0  0  0  0  0  0  0  0  0  0
   -2.4239    3.1726    1.8718 C   0  0  0  0  0  0  0  0  0  0  0  0
   -3.4446    1.6657    3.8454 H   0  0  0  0  0  0  0  0  0  0  0  0
   -3.2368    1.2374    1.3661 H   0  0  0  0  0  0  0  0  0  0  0  0
   -1.6248    3.6099    2.4815 H   0  0  0  0  0  0  0  0  0  0  0  0
   -2.2644    3.4949    0.8375 H   0  0  0  0  0  0  0  0  0  0  0  0
   -3.3741    3.5939    2.2175 H   0  0  0  0  0  0  0  0  0  0  0  0
   -0.9750    1.0274    0.1566 N   0  0  0  0  0  0  0  0  0  0  0  0
    0.2023    0.5266   -0.5070 C   0  0  2  0  0  0  0  0  0  0  0  0
   -0.1701    0.2863   -1.9657 C   0  0  0  0  0  0  0  0  0  0  0  0
   -0.0156    1.1324   -2.8438 O   0  0  0  0  0  0  0  0  0  0  0  0
    0.7202   -0.7676    0.1309 C   0  0  0  0  0  0  0  0  0  0  0  0
    1.2505   -0.5579    1.5282 C   0  0  0  0  0  0  0  0  0  0  0  0
    2.5402   -0.0615    1.7178 C   0  0  0  0  0  0  0  0  0  0  0  0
    0.4510   -0.8613    2.6303 C   0  0  0  0  0  0  0  0  0  0  0  0
    3.0303    0.1317    3.0093 C   0  0  0  0  0  0  0  0  0  0  0  0
    0.9411   -0.6681    3.9218 C   0  0  0  0  0  0  0  0  0  0  0  0
    2.2309   -0.1716    4.1113 C   0  0  0  0  0  0  0  0  0  0  0  0
    2.7098    0.0157    5.3715 O   0  0  0  0  0  0  0  0  0  0  0  0
   -1.7582    1.3241   -0.4207 H   0  0  0  0  0  0  0  0  0  0  0  0
    0.9531    1.3238   -0.4550 H   0  0  0  0  0  0  0  0  0  0  0  0
    1.5020   -1.2151   -0.4976 H   0  0  0  0  0  0  0  0  0  0  0  0
   -0.0787   -1.5196    0.1756 H   0  0  0  0  0  0  0  0  0  0  0  0
    3.1699    0.1775    0.8650 H   0  0  0  0  0  0  0  0  0  0  0  0
   -0.5553   -1.2484    2.4921 H   0  0  0  0  0  0  0  0  0  0  0  0
    4.0361    0.5185    3.1504 H   0  0  0  0  0  0  0  0  0  0  0  0
    0.3137   -0.9066    4.7760 H   0  0  0  0  0  0  0  0  0  0  0  0
    2.0408   -0.2389    6.0268 H   0  0  0  0  0  0  0  0  0  0  0  0
   -0.6472   -1.0002   -2.1750 N   0  0  0  0  0  0  0  0  0  0  0  0
   -1.0496   -1.4961   -3.4715 C   0  0  2  0  0  0  0  0  0  0  0  0
   -2.0040   -0.4817   -4.0877 C   0  0  0  0  0  0  0  0  0  0  0  0
   -2.6439    0.3286   -3.4205 O   0  0  0  0  0  0  0  0  0  0  0  0
   -1.7065   -2.8633   -3.3614 C   0  0  0  0  0  0  0  0  0  0  0  0
   -0.7170   -1.6245   -1.3769 H   0  0  0  0  0  0  0  0  0  0  0  0
   -0.1417   -1.5613   -4.0810 H   0  0  0  0  0  0  0  0  0  0  0  0
   -2.6180   -2.8179   -2.7543 H   0  0  0  0  0  0  0  0  0  0  0  0
   -1.9849   -3.2502   -4.3472 H   0  0  0  0  0  0  0  0  0  0  0  0
   -1.0293   -3.5843   -2.8909 H   0  0  0  0  0  0  0  0  0  0  0  0
   -2.0897   -0.6163   -5.4663 N   0  0  0  0  0  0  0  0  0  0  0  0
   -2.9388    0.2221   -6.2801 C   0  0  0  0  0  0  0  0  0  0  0  0
   -1.5088   -1.3027   -5.9385 H   0  0  0  0  0  0  0  0  0  0  0  0
   -3.9174   -0.2630   -6.4105 H   0  0  0  0  0  0  0  0  0  0  0  0
   -3.0750    1.1953   -5.7859 H   0  0  0  0  0  0  0  0  0  0  0  0
   -2.4704    0.3728   -7.2640 H   0  0  0  0  0  0  0  0  0  0  0  0
 23 25  2  0  0  0  0
 22 23  1  0  0  0  0
 24 26  1  0  0  0  0
 22 24  2  0  0  0  0
 25 27  1  0  0  0  0
 26 27  2  0  0  0  0
 21 22  1  0  0  0  0
 27 28  1  0  0  0  0
  1  3  1  0  0  0  0
  1  7  1  0  0  0  0
  1  2  2  0  0  0  0
 39 40  1  0  0  0  0
 40 48  1  0  0  0  0
 40 41  2  0  0  0  0
  8  9  1  0  0  0  0
  9 17  1  0  0  0  0
  9 10  2  0  0  0  0
 18 19  1  0  0  0  0
 19 38  1  0  0  0  0
 19 20  2  0  0  0  0
 39 42  1  0  0  0  0
  8 11  1  0  0  0  0
 48 49  1  0  0  0  0
 18 21  1  0  0  0  0
 38 39  1  0  0  0  0
  7  8  1  0  0  0  0
 17 18  1  0  0  0  0
 23 33  1  0  0  0  0
 24 34  1  0  0  0  0
 25 35  1  0  0  0  0
 26 36  1  0  0  0  0
  3  4  1  0  0  0  0
  3  5  1  0  0  0  0
  3  6  1  0  0  0  0
 42 45  1  0  0  0  0
 42 46  1  0  0  0  0
 42 47  1  0  0  0  0
 11 14  1  0  0  0  0
 11 15  1  0  0  0  0
 11 16  1  0  0  0  0
 49 51  1  0  0  0  0
 49 52  1  0  0  0  0
 49 53  1  0  0  0  0
 21 31  1  0  0  0  0
 21 32  1  0  0  0  0
 39 44  1  0  0  0  0
  8 13  1  0  0  0  0
 18 30  1  0  0  0  0
 48 50  1  0  0  0  0
  7 12  1  0  0  0  0
 38 43  1  0  0  0  0
 17 29  1  0  0  0  0
 28 37  1  0  0  0  0
M  END
$$$$

  -OEChem-05262214473D

 53 53  0     1  0  0  0  0  0999 V2000
   -1.9298    0.2574    3.9747 C   0  0  0  0  0  0  0  0  0  0  0  0
   -0.9825   -0.3573    3.4990 O   0  0  0  0  0  0  0  0  0  0  0  0
   -2.3617   -0.0250    5.3754 C   0  0  0  0  0  0  0  0  0  0  0  0
   -3.1214   -0.8213    5.4288 H   0  0  0  0  0  0  0  0  0  0  0  0
   -1.5305   -0.3726    6.0097 H   0  0  0  0  0  0  0  0  0  0  0  0
   -2.7997    0.8299    5.9150 H   0  0  0  0  0  0  0  0  0  0  0  0
   -2.6795    1.2298    3.3336 N   0  0  0  0  0  0  0  0  0  0  0  0
   -2.4327    1.6559    1.9812 C   0  0  2  0  0  0  0  0  0  0  0  0
   -1.0977    1.0705    1.5400 C   0  0  0  0  0  0  0  0  0  0  0  0
   -0.2256    0.7177    2.3313 O   0  0  0  0  0  0  0  0  0  0  0  0
   -2.4239    3.1726    1.8718 C   0  0  0  0  0  0  0  0  0  0  0  0
   -3.4446    1.6657    3.8454 H   0  0  0  0  0  0  0  0  0  0  0  0
   -3.2368    1.2374    1.3661 H   0  0  0  0  0  0  0  0  0  0  0  0
   -1.6248    3.6099    2.4815 H   0  0  0  0  0  0  0  0  0  0  0  0
   -2.2644    3.4949    0.8375 H   0  0  0  0  0  0  0  0  0  0  0  0
   -3.3741    3.5939    2.2175 H   0  0  0  0  0  0  0  0  0  0  0  0
   -0.9750    1.0274    0.1566 N   0  0  0  0  0  0  0  0  0  0  0  0
    0.2023    0.5266   -0.5070 C   0  0  2  0  0  0  0  0  0  0  0  0
   -0.1701    0.2863   -1.9657 C   0  0  0  0  0  0  0  0  0  0  0  0
    0.2189    1.0062   -2.8829 O   0  0  0  0  0  0  0  0  0  0  0  0
    0.7202   -0.7676    0.1309 C   0  0  0  0  0  0  0  0  0  0  0  0
    1.2505   -0.5579    1.5282 C   0  0  0  0  0  0  0  0  0  0  0  0
    2.5402   -0.0615    1.7178 C   0  0  0  0  0  0  0  0  0  0  0  0
    0.4510   -0.8613    2.6303 C   0  0  0  0  0  0  0  0  0  0  0  0
    3.0303    0.1317    3.0093 C   0  0  0  0  0  0  0  0  0  0  0  0
    0.9411   -0.6681    3.9218 C   0  0  0  0  0  0  0  0  0  0  0  0
    2.2309   -0.1716    4.1113 C   0  0  0  0  0  0  0  0  0  0  0  0
    2.7098    0.0157    5.3715 O   0  0  0  0  0  0  0  0  0  0  0  0
   -1.7582    1.3241   -0.4207 H   0  0  0  0  0  0  0  0  0  0  0  0
    0.9531    1.3238   -0.4550 H   0  0  0  0  0  0  0  0  0  0  0  0
    1.5020   -1.2151   -0.4976 H   0  0  0  0  0  0  0  0  0  0  0  0
   -0.0787   -1.5196    0.1756 H   0  0  0  0  0  0  0  0  0  0  0  0
    3.1699    0.1775    0.8650 H   0  0  0  0  0  0  0  0  0  0  0  0
   -0.5553   -1.2484    2.4921 H   0  0  0  0  0  0  0  0  0  0  0  0
    4.0361    0.5185    3.1504 H   0  0  0  0  0  0  0  0  0  0  0  0
    0.3137   -0.9066    4.7760 H   0  0  0  0  0  0  0  0  0  0  0  0
    2.0408   -0.2389    6.0268 H   0  0  0  0  0  0  0  0  0  0  0  0
   -0.9453   -0.8542   -2.1230 N   0  0  0  0  0  0  0  0  0  0  0  0
   -1.4157   -1.3232   -3.4065 C   0  0  2  0  0  0  0  0  0  0  0  0
   -2.0668   -0.1495   -4.1263 C   0  0  0  0  0  0  0  0  0  0  0  0
   -2.5063    0.8371   -3.5394 O   0  0  0  0  0  0  0  0  0  0  0  0
   -2.3955   -2.4756   -3.2494 C   0  0  0  0  0  0  0  0  0  0  0  0
   -1.1946   -1.3860   -1.2942 H   0  0  0  0  0  0  0  0  0  0  0  0
   -0.5331   -1.6515   -3.9662 H   0  0  0  0  0  0  0  0  0  0  0  0
   -3.2865   -2.1657   -2.6911 H   0  0  0  0  0  0  0  0  0  0  0  0
   -2.7290   -2.8485   -4.2234 H   0  0  0  0  0  0  0  0  0  0  0  0
   -1.9350   -3.3073   -2.7053 H   0  0  0  0  0  0  0  0  0  0  0  0
   -2.1380   -0.3527   -5.4974 N   0  0  0  0  0  0  0  0  0  0  0  0
   -2.7244    0.6113   -6.3990 C   0  0  0  0  0  0  0  0  0  0  0  0
   -1.7311   -1.1918   -5.9000 H   0  0  0  0  0  0  0  0  0  0  0  0
   -3.7882    0.3745   -6.5485 H   0  0  0  0  0  0  0  0  0  0  0  0
   -2.6302    1.6195   -5.9694 H   0  0  0  0  0  0  0  0  0  0  0  0
   -2.2013    0.5744   -7.3659 H   0  0  0  0  0  0  0  0  0  0  0  0
 23 25  2  0  0  0  0
 22 23  1  0  0  0  0
 24 26  1  0  0  0  0
 22 24  2  0  0  0  0
 25 27  1  0  0  0  0
 26 27  2  0  0  0  0
 21 22  1  0  0  0  0
 27 28  1  0  0  0  0
  1  3  1  0  0  0  0
  1  7  1  0  0  0  0
  1  2  2  0  0  0  0
 39 40  1  0  0  0  0
 40 48  1  0  0  0  0
 40 41  2  0  0  0  0
  8  9  1  0  0  0  0
  9 17  1  0  0  0  0
  9 10  2  0  0  0  0
 18 19  1  0  0  0  0
 19 38  1  0  0  0  0
 19 20  2  0  0  0  0
 39 42  1  0  0  0  0
  8 11  1  0  0  0  0
 48 49  1  0  0  0  0
 18 21  1  0  0  0  0
 38 39  1  0  0  0  0
  7  8  1  0  0  0  0
 17 18  1  0  0  0  0
 23 33  1  0  0  0  0
 24 34  1  0  0  0  0
 25 35  1  0  0  0  0
 26 36  1  0  0  0  0
  3  4  1  0  0  0  0
  3  5  1  0  0  0  0
  3  6  1  0  0  0  0
 42 45  1  0  0  0  0
 42 46  1  0  0  0  0
 42 47  1  0  0  0  0
 11 14  1  0  0  0  0
 11 15  1  0  0  0  0
 11 16  1  0  0  0  0
 49 51  1  0  0  0  0
 49 52  1  0  0  0  0
 49 53  1  0  0  0  0
 21 31  1  0  0  0  0
 21 32  1  0  0  0  0
 39 44  1  0  0  0  0
  8 13  1  0  0  0  0
 18 30  1  0  0  0  0
 48 50  1  0  0  0  0
  7 12  1  0  0  0  0
 38 43  1  0  0  0  0
 17 29  1  0  0  0  0
 28 37  1  0  0  0  0
M  END
$$$$

  -OEChem-05262214473D

 53 53  0     1  0  0  0  0  0999 V2000
   -1.9298    0.2574    3.9747 C   0  0  0  0  0  0  0  0  0  0  0  0
   -0.9825   -0.3573    3.4990 O   0  0  0  0  0  0  0  0  0  0  0  0
   -2.3617   -0.0250    5.3754 C   0  0  0  0  0  0  0  0  0  0  0  0
   -3.1214   -0.8213    5.4288 H   0  0  0  0  0  0  0  0  0  0  0  0
   -1.5305   -0.3726    6.0097 H   0  0  0  0  0  0  0  0  0  0  0  0
   -2.7997    0.8299    5.9150 H   0  0  0  0  0  0  0  0  0  0  0  0
   -2.6795    1.2298    3.3336 N   0  0  0  0  0  0  0  0  0  0  0  0
   -2.4327    1.6559    1.9812 C   0  0  2  0  0  0  0  0  0  0  0  0
   -1.0977    1.0705    1.5400 C   0  0  0  0  0  0  0  0  0  0  0  0
   -0.2256    0.7177    2.3313 O   0  0  0  0  0  0  0  0  0  0  0  0
   -2.4239    3.1726    1.8718 C   0  0  0  0  0  0  0  0  0  0  0  0
   -3.4446    1.6657    3.8454 H   0  0  0  0  0  0  0  0  0  0  0  0
   -3.2368    1.2374    1.3661 H   0  0  0  0  0  0  0  0  0  0  0  0
   -1.6248    3.6099    2.4815 H   0  0  0  0  0  0  0  0  0  0  0  0
   -2.2644    3.4949    0.8375 H   0  0  0  0  0  0  0  0  0  0  0  0
   -3.3741    3.5939    2.2175 H   0  0  0  0  0  0  0  0  0  0  0  0
   -0.9750    1.0274    0.1566 N   0  0  0  0  0  0  0  0  0  0  0  0
    0.2023    0.5266   -0.5070 C   0  0  2  0  0  0  0  0  0  0  0  0
   -0.1701    0.2863   -1.9657 C   0  0  0  0  0  0  0  0  0  0  0  0
    0.4157    0.8238   -2.9031 O   0  0  0  0  0  0  0  0  0  0  0  0
    0.7202   -0.7676    0.1309 C   0  0  0  0  0  0  0  0  0  0  0  0
    1.2505   -0.5579    1.5282 C   0  0  0  0  0  0  0  0  0  0  0  0
    2.5402   -0.0615    1.7178 C   0  0  0  0  0  0  0  0  0  0  0  0
    0.4510   -0.8613    2.6303 C   0  0  0  0  0  0  0  0  0  0  0  0
    3.0303    0.1317    3.0093 C   0  0  0  0  0  0  0  0  0  0  0  0
    0.9411   -0.6681    3.9218 C   0  0  0  0  0  0  0  0  0  0  0  0
    2.2309   -0.1716    4.1113 C   0  0  0  0  0  0  0  0  0  0  0  0
    2.7098    0.0157    5.3715 O   0  0  0  0  0  0  0  0  0  0  0  0
   -1.7582    1.3241   -0.4207 H   0  0  0  0  0  0  0  0  0  0  0  0
    0.9531    1.3238   -0.4550 H   0  0  0  0  0  0  0  0  0  0  0  0
    1.5020   -1.2151   -0.4976 H   0  0  0  0  0  0  0  0  0  0  0  0
   -0.0787   -1.5196    0.1756 H   0  0  0  0  0  0  0  0  0  0  0  0
    3.1699    0.1775    0.8650 H   0  0  0  0  0  0  0  0  0  0  0  0
   -0.5553   -1.2484    2.4921 H   0  0  0  0  0  0  0  0  0  0  0  0
    4.0361    0.5185    3.1504 H   0  0  0  0  0  0  0  0  0  0  0  0
    0.3137   -0.9066    4.7760 H   0  0  0  0  0  0  0  0  0  0  0  0
    2.0408   -0.2389    6.0268 H   0  0  0  0  0  0  0  0  0  0  0  0
   -1.1993   -0.6361   -2.0941 N   0  0  0  0  0  0  0  0  0  0  0  0
   -1.7292   -1.0614   -3.3696 C   0  0  2  0  0  0  0  0  0  0  0  0
   -2.0436    0.1845   -4.1873 C   0  0  0  0  0  0  0  0  0  0  0  0
   -2.2427    1.2867   -3.6807 O   0  0  0  0  0  0  0  0  0  0  0  0
   -2.9697   -1.9234   -3.1938 C   0  0  0  0  0  0  0  0  0  0  0  0
   -1.6001   -1.0322   -1.2490 H   0  0  0  0  0  0  0  0  0  0  0  0
   -0.9382   -1.6345   -3.8656 H   0  0  0  0  0  0  0  0  0  0  0  0
   -3.7732   -1.3662   -2.6985 H   0  0  0  0  0  0  0  0  0  0  0  0
   -3.3534   -2.2683   -4.1596 H   0  0  0  0  0  0  0  0  0  0  0  0
   -2.7488   -2.8037   -2.5805 H   0  0  0  0  0  0  0  0  0  0  0  0
   -2.1181   -0.0881   -5.5461 N   0  0  0  0  0  0  0  0  0  0  0  0
   -2.4162    0.9266   -6.5296 C   0  0  0  0  0  0  0  0  0  0  0  0
   -1.9199   -1.0271   -5.8789 H   0  0  0  0  0  0  0  0  0  0  0  0
   -3.4999    0.9495   -6.7168 H   0  0  0  0  0  0  0  0  0  0  0  0
   -2.0881    1.9075   -6.1552 H   0  0  0  0  0  0  0  0  0  0  0  0
   -1.8872    0.6960   -7.4661 H   0  0  0  0  0  0  0  0  0  0  0  0
 23 25  2  0  0  0  0
 22 23  1  0  0  0  0
 24 26  1  0  0  0  0
 22 24  2  0  0  0  0
 25 27  1  0  0  0  0
 26 27  2  0  0  0  0
 21 22  1  0  0  0  0
 27 28  1  0  0  0  0
  1  3  1  0  0  0  0
  1  7  1  0  0  0  0
  1  2  2  0  0  0  0
 39 40  1  0  0  0  0
 40 48  1  0  0  0  0
 40 41  2  0  0  0  0
  8  9  1  0  0  0  0
  9 17  1  0  0  0  0
  9 10  2  0  0  0  0
 18 19  1  0  0  0  0
 19 38  1  0  0  0  0
 19 20  2  0  0  0  0
 39 42  1  0  0  0  0
  8 11  1  0  0  0  0
 48 49  1  0  0  0  0
 18 21  1  0  0  0  0
 38 39  1  0  0  0  0
  7  8  1  0  0  0  0
 17 18  1  0  0  0  0
 23 33  1  0  0  0  0
 24 34  1  0  0  0  0
 25 35  1  0  0  0  0
 26 36  1  0  0  0  0
  3  4  1  0  0  0  0
  3  5  1  0  0  0  0
  3  6  1  0  0  0  0
 42 45  1  0  0  0  0
 42 46  1  0  0  0  0
 42 47  1  0  0  0  0
 11 14  1  0  0  0  0
 11 15  1  0  0  0  0
 11 16  1  0  0  0  0
 49 51  1  0  0  0  0
 49 52  1  0  0  0  0
 49 53  1  0  0  0  0
 21 31  1  0  0  0  0
 21 32  1  0  0  0  0
 39 44  1  0  0  0  0
  8 13  1  0  0  0  0
 18 30  1  0  0  0  0
 48 50  1  0  0  0  0
  7 12  1  0  0  0  0
 38 43  1  0  0  0  0
 17 29  1  0  0  0  0
 28 37  1  0  0  0  0
M  END
$$$$

  -OEChem-05262214473D

 53 53  0     1  0  0  0  0  0999 V2000
   -1.9298    0.2574    3.9747 C   0  0  0  0  0  0  0  0  0  0  0  0
   -0.9825   -0.3573    3.4990 O   0  0  0  0  0  0  0  0  0  0  0  0
   -2.3617   -0.0250    5.3754 C   0  0  0  0  0  0  0  0  0  0  0  0
   -3.1214   -0.8213    5.4288 H   0  0  0  0  0  0  0  0  0  0  0  0
   -1.5305   -0.3726    6.0097 H   0  0  0  0  0  0  0  0  0  0  0  0
   -2.7997    0.8299    5.9150 H   0  0  0  0  0  0  0  0  0  0  0  0
   -2.6795    1.2298    3.3336 N   0  0  0  0  0  0  0  0  0  0  0  0
   -2.4327    1.6559    1.9812 C   0  0  2  0  0  0  0  0  0  0  0  0
   -1.0977    1.0705    1.5400 C   0  0  0  0  0  0  0  0  0  0  0  0
   -0.2256    0.7177    2.3313 O   0  0  0  0  0  0  0  0  0  0  0  0
   -2.4239    3.1726    1.8718 C   0  0  0  0  0  0  0  0  0  0  0  0
   -3.4446    1.6657    3.8454 H   0  0  0  0  0  0  0  0  0  0  0  0
   -3.2368    1.2374    1.3661 H   0  0  0  0  0  0  0  0  0  0  0  0
   -1.6248    3.6099    2.4815 H   0  0  0  0  0  0  0  0  0  0  0  0
   -2.2644    3.4949    0.8375 H   0  0  0  0  0  0  0  0  0  0  0  0
   -3.3741    3.5939    2.2175 H   0  0  0  0  0  0  0  0  0  0  0  0
   -0.9750    1.0274    0.1566 N   0  0  0  0  0  0  0  0  0  0  0  0
    0.2023    0.5266   -0.5070 C   0  0  2  0  0  0  0  0  0  0  0  0
   -0.1701    0.2863   -1.9657 C   0  0  0  0  0  0  0  0  0  0  0  0
    0.5616    0.5975   -2.9031 O   0  0  0  0  0  0  0  0  0  0  0  0
    0.7202   -0.7676    0.1309 C   0  0  0  0  0  0  0  0  0  0  0  0
    1.2505   -0.5579    1.5282 C   0  0  0  0  0  0  0  0  0  0  0  0
    2.5402   -0.0615    1.7178 C   0  0  0  0  0  0  0  0  0  0  0  0
    0.4510   -0.8613    2.6303 C   0  0  0  0  0  0  0  0  0  0  0  0
    3.0303    0.1317    3.0093 C   0  0  0  0  0  0  0  0  0  0  0  0
    0.9411   -0.6681    3.9218 C   0  0  0  0  0  0  0  0  0  0  0  0
    2.2309   -0.1716    4.1113 C   0  0  0  0  0  0  0  0  0  0  0  0
    2.7098    0.0157    5.3715 O   0  0  0  0  0  0  0  0  0  0  0  0
   -1.7582    1.3241   -0.4207 H   0  0  0  0  0  0  0  0  0  0  0  0
    0.9531    1.3238   -0.4550 H   0  0  0  0  0  0  0  0  0  0  0  0
    1.5020   -1.2151   -0.4976 H   0  0  0  0  0  0  0  0  0  0  0  0
   -0.0787   -1.5196    0.1756 H   0  0  0  0  0  0  0  0  0  0  0  0
    3.1699    0.1775    0.8650 H   0  0  0  0  0  0  0  0  0  0  0  0
   -0.5553   -1.2484    2.4921 H   0  0  0  0  0  0  0  0  0  0  0  0
    4.0361    0.5185    3.1504 H   0  0  0  0  0  0  0  0  0  0  0  0
    0.3137   -0.9066    4.7760 H   0  0  0  0  0  0  0  0  0  0  0  0
    2.0408   -0.2389    6.0268 H   0  0  0  0  0  0  0  0  0  0  0  0
   -1.3917   -0.3607   -2.0903 N   0  0  0  0  0  0  0  0  0  0  0  0
   -1.9687   -0.7285   -3.3633 C   0  0  2  0  0  0  0  0  0  0  0  0
   -1.9360    0.4975   -4.2663 C   0  0  0  0  0  0  0  0  0  0  0  0
   -1.8710    1.6467   -3.8350 O   0  0  0  0  0  0  0  0  0  0  0  0
   -3.3898   -1.2443   -3.1984 C   0  0  0  0  0  0  0  0  0  0  0  0
   -1.9061   -0.5872   -1.2442 H   0  0  0  0  0  0  0  0  0  0  0  0
   -1.3294   -1.5113   -3.7860 H   0  0  0  0  0  0  0  0  0  0  0  0
   -4.0451   -0.4738   -2.7761 H   0  0  0  0  0  0  0  0  0  0  0  0
   -3.8153   -1.5493   -4.1601 H   0  0  0  0  0  0  0  0  0  0  0  0
   -3.4153   -2.1079   -2.5250 H   0  0  0  0  0  0  0  0  0  0  0  0
   -2.0314    0.1594   -5.6090 N   0  0  0  0  0  0  0  0  0  0  0  0
   -2.0350    1.1466   -6.6632 C   0  0  0  0  0  0  0  0  0  0  0  0
   -2.0623   -0.8200   -5.8767 H   0  0  0  0  0  0  0  0  0  0  0  0
   -3.0721    1.4229   -6.9040 H   0  0  0  0  0  0  0  0  0  0  0  0
   -1.4855    2.0397   -6.3308 H   0  0  0  0  0  0  0  0  0  0  0  0
   -1.5496    0.7293   -7.5578 H   0  0  0  0  0  0  0  0  0  0  0  0
 23 25  2  0  0  0  0
 22 23  1  0  0  0  0
 24 26  1  0  0  0  0
 22 24  2  0  0  0  0
 25 27  1  0  0  0  0
 26 27  2  0  0  0  0
 21 22  1  0  0  0  0
 27 28  1  0  0  0  0
  1  3  1  0  0  0  0
  1  7  1  0  0  0  0
  1  2  2  0  0  0  0
 39 40  1  0  0  0  0
 40 48  1  0  0  0  0
 40 41  2  0  0  0  0
  8  9  1  0  0  0  0
  9 17  1  0  0  0  0
  9 10  2  0  0  0  0
 18 19  1  0  0  0  0
 19 38  1  0  0  0  0
 19 20  2  0  0  0  0
 39 42  1  0  0  0  0
  8 11  1  0  0  0  0
 48 49  1  0  0  0  0
 18 21  1  0  0  0  0
 38 39  1  0  0  0  0
  7  8  1  0  0  0  0
 17 18  1  0  0  0  0
 23 33  1  0  0  0  0
 24 34  1  0  0  0  0
 25 35  1  0  0  0  0
 26 36  1  0  0  0  0
  3  4  1  0  0  0  0
  3  5  1  0  0  0  0
  3  6  1  0  0  0  0
 42 45  1  0  0  0  0
 42 46  1  0  0  0  0
 42 47  1  0  0  0  0
 11 14  1  0  0  0  0
 11 15  1  0  0  0  0
 11 16  1  0  0  0  0
 49 51  1  0  0  0  0
 49 52  1  0  0  0  0
 49 53  1  0  0  0  0
 21 31  1  0  0  0  0
 21 32  1  0  0  0  0
 39 44  1  0  0  0  0
  8 13  1  0  0  0  0
 18 30  1  0  0  0  0
 48 50  1  0  0  0  0
  7 12  1  0  0  0  0
 38 43  1  0  0  0  0
 17 29  1  0  0  0  0
 28 37  1  0  0  0  0
M  END
$$$$

  -OEChem-05262214473D

 53 53  0     1  0  0  0  0  0999 V2000
   -1.9298    0.2574    3.9747 C   0  0  0  0  0  0  0  0  0  0  0  0
   -0.9825   -0.3573    3.4990 O   0  0  0  0  0  0  0  0  0  0  0  0
   -2.3617   -0.0250    5.3754 C   0  0  0  0  0  0  0  0  0  0  0  0
   -3.1214   -0.8213    5.4288 H   0  0  0  0  0  0  0  0  0  0  0  0
   -1.5305   -0.3726    6.0097 H   0  0  0  0  0  0  0  0  0  0  0  0
   -2.7997    0.8299    5.9150 H   0  0  0  0  0  0  0  0  0  0  0  0
   -2.6795    1.2298    3.3336 N   0  0  0  0  0  0  0  0  0  0  0  0
   -2.4327    1.6559    1.9812 C   0  0  2  0  0  0  0  0  0  0  0  0
   -1.0977    1.0705    1.5400 C   0  0  0  0  0  0  0  0  0  0  0  0
   -0.2256    0.7177    2.3313 O   0  0  0  0  0  0  0  0  0  0  0  0
   -2.4239    3.1726    1.8718 C   0  0  0  0  0  0  0  0  0  0  0  0
   -3.4446    1.6657    3.8454 H   0  0  0  0  0  0  0  0  0  0  0  0
   -3.2368    1.2374    1.3661 H   0  0  0  0  0  0  0  0  0  0  0  0
   -1.6248    3.6099    2.4815 H   0  0  0  0  0  0  0  0  0  0  0  0
   -2.2644    3.4949    0.8375 H   0  0  0  0  0  0  0  0  0  0  0  0
   -3.3741    3.5939    2.2175 H   0  0  0  0  0  0  0  0  0  0  0  0
   -0.9750    1.0274    0.1566 N   0  0  0  0  0  0  0  0  0  0  0  0
    0.2023    0.5266   -0.5070 C   0  0  2  0  0  0  0  0  0  0  0  0
   -0.1701    0.2863   -1.9657 C   0  0  0  0  0  0  0  0  0  0  0  0
    0.6464    0.3429   -2.8828 O   0  0  0  0  0  0  0  0  0  0  0  0
    0.7202   -0.7676    0.1309 C   0  0  0  0  0  0  0  0  0  0  0  0
    1.2505   -0.5579    1.5282 C   0  0  0  0  0  0  0  0  0  0  0  0
    2.5402   -0.0615    1.7178 C   0  0  0  0  0  0  0  0  0  0  0  0
    0.4510   -0.8613    2.6303 C   0  0  0  0  0  0  0  0  0  0  0  0
    3.0303    0.1317    3.0093 C   0  0  0  0  0  0  0  0  0  0  0  0
    0.9411   -0.6681    3.9218 C   0  0  0  0  0  0  0  0  0  0  0  0
    2.2309   -0.1716    4.1113 C   0  0  0  0  0  0  0  0  0  0  0  0
    2.7098    0.0157    5.3715 O   0  0  0  0  0  0  0  0  0  0  0  0
   -1.7582    1.3241   -0.4207 H   0  0  0  0  0  0  0  0  0  0  0  0
    0.9531    1.3238   -0.4550 H   0  0  0  0  0  0  0  0  0  0  0  0
    1.5020   -1.2151   -0.4976 H   0  0  0  0  0  0  0  0  0  0  0  0
   -0.0787   -1.5196    0.1756 H   0  0  0  0  0  0  0  0  0  0  0  0
    3.1699    0.1775    0.8650 H   0  0  0  0  0  0  0  0  0  0  0  0
   -0.5553   -1.2484    2.4921 H   0  0  0  0  0  0  0  0  0  0  0  0
    4.0361    0.5185    3.1504 H   0  0  0  0  0  0  0  0  0  0  0  0
    0.3137   -0.9066    4.7760 H   0  0  0  0  0  0  0  0  0  0  0  0
    2.0408   -0.2389    6.0268 H   0  0  0  0  0  0  0  0  0  0  0  0
   -1.5096   -0.0468   -2.1119 N   0  0  0  0  0  0  0  0  0  0  0  0
   -2.1179   -0.3473   -3.3880 C   0  0  2  0  0  0  0  0  0  0  0  0
   -1.7513    0.7682   -4.3580 C   0  0  0  0  0  0  0  0  0  0  0  0
   -1.4164    1.8927   -3.9915 O   0  0  0  0  0  0  0  0  0  0  0  0
   -3.6272   -0.4846   -3.2629 C   0  0  0  0  0  0  0  0  0  0  0  0
   -2.0916   -0.0812   -1.2802 H   0  0  0  0  0  0  0  0  0  0  0  0
   -1.6801   -1.2904   -3.7328 H   0  0  0  0  0  0  0  0  0  0  0  0
   -4.0836    0.4506   -2.9185 H   0  0  0  0  0  0  0  0  0  0  0  0
   -4.0835   -0.7404   -4.2249 H   0  0  0  0  0  0  0  0  0  0  0  0
   -3.8890   -1.2672   -2.5425 H   0  0  0  0  0  0  0  0  0  0  0  0
   -1.8838    0.3730   -5.6819 N   0  0  0  0  0  0  0  0  0  0  0  0
   -1.6068    1.2563   -6.7905 C   0  0  0  0  0  0  0  0  0  0  0  0
   -2.1487   -0.5844   -5.8934 H   0  0  0  0  0  0  0  0  0  0  0  0
   -2.5341    1.7624   -7.0973 H   0  0  0  0  0  0  0  0  0  0  0  0
   -0.8635    2.0071   -6.4842 H   0  0  0  0  0  0  0  0  0  0  0  0
   -1.2116    0.6722   -7.6347 H   0  0  0  0  0  0  0  0  0  0  0  0
 23 25  2  0  0  0  0
 22 23  1  0  0  0  0
 24 26  1  0  0  0  0
 22 24  2  0  0  0  0
 25 27  1  0  0  0  0
 26 27  2  0  0  0  0
 21 22  1  0  0  0  0
 27 28  1  0  0  0  0
  1  3  1  0  0  0  0
  1  7  1  0  0  0  0
  1  2  2  0  0  0  0
 39 40  1  0  0  0  0
 40 48  1  0  0  0  0
 40 41  2  0  0  0  0
  8  9  1  0  0  0  0
  9 17  1  0  0  0  0
  9 10  2  0  0  0  0
 18 19  1  0  0  0  0
 19 38  1  0  0  0  0
 19 20  2  0  0  0  0
 39 42  1  0  0  0  0
  8 11  1  0  0  0  0
 48 49  1  0  0  0  0
 18 21  1  0  0  0  0
 38 39  1  0  0  0  0
  7  8  1  0  0  0  0
 17 18  1  0  0  0  0
 23 33  1  0  0  0  0
 24 34  1  0  0  0  0
 25 35  1  0  0  0  0
 26 36  1  0  0  0  0
  3  4  1  0  0  0  0
  3  5  1  0  0  0  0
  3  6  1  0  0  0  0
 42 45  1  0  0  0  0
 42 46  1  0  0  0  0
 42 47  1  0  0  0  0
 11 14  1  0  0  0  0
 11 15  1  0  0  0  0
 11 16  1  0  0  0  0
 49 51  1  0  0  0  0
 49 52  1  0  0  0  0
 49 53  1  0  0  0  0
 21 31  1  0  0  0  0
 21 32  1  0  0  0  0
 39 44  1  0  0  0  0
  8 13  1  0  0  0  0
 18 30  1  0  0  0  0
 48 50  1  0  0  0  0
  7 12  1  0  0  0  0
 38 43  1  0  0  0  0
 17 29  1  0  0  0  0
 28 37  1  0  0  0  0
M  END
$$$$

  -OEChem-05262214473D

 53 53  0     1  0  0  0  0  0999 V2000
   -1.9298    0.2574    3.9747 C   0  0  0  0  0  0  0  0  0  0  0  0
   -0.9825   -0.3573    3.4990 O   0  0  0  0  0  0  0  0  0  0  0  0
   -2.3617   -0.0250    5.3754 C   0  0  0  0  0  0  0  0  0  0  0  0
   -3.1214   -0.8213    5.4288 H   0  0  0  0  0  0  0  0  0  0  0  0
   -1.5305   -0.3726    6.0097 H   0  0  0  0  0  0  0  0  0  0  0  0
   -2.7997    0.8299    5.9150 H   0  0  0  0  0  0  0  0  0  0  0  0
   -2.6795    1.2298    3.3336 N   0  0  0  0  0  0  0  0  0  0  0  0
   -2.4327    1.6559    1.9812 C   0  0  2  0  0  0  0  0  0  0  0  0
   -1.0977    1.0705    1.5400 C   0  0  0  0  0  0  0  0  0  0  0  0
   -0.2256    0.7177    2.3313 O   0  0  0  0  0  0  0  0  0  0  0  0
   -2.4239    3.1726    1.8718 C   0  0  0  0  0  0  0  0  0  0  0  0
   -3.4446    1.6657    3.8454 H   0  0  0  0  0  0  0  0  0  0  0  0
   -3.2368    1.2374    1.3661 H   0  0  0  0  0  0  0  0  0  0  0  0
   -1.6248    3.6099    2.4815 H   0  0  0  0  0  0  0  0  0  0  0  0
   -2.2644    3.4949    0.8375 H   0  0  0  0  0  0  0  0  0  0  0  0
   -3.3741    3.5939    2.2175 H   0  0  0  0  0  0  0  0  0  0  0  0
   -0.9750    1.0274    0.1566 N   0  0  0  0  0  0  0  0  0  0  0  0
    0.2023    0.5266   -0.5070 C   0  0  2  0  0  0  0  0  0  0  0  0
   -0.1701    0.2863   -1.9657 C   0  0  0  0  0  0  0  0  0  0  0  0
    0.6644    0.0772   -2.8436 O   0  0  0  0  0  0  0  0  0  0  0  0
    0.7202   -0.7676    0.1309 C   0  0  0  0  0  0  0  0  0  0  0  0
    1.2505   -0.5579    1.5282 C   0  0  0  0  0  0  0  0  0  0  0  0
    2.5402   -0.0615    1.7178 C   0  0  0  0  0  0  0  0  0  0  0  0
    0.4510   -0.8613    2.6303 C   0  0  0  0  0  0  0  0  0  0  0  0
    3.0303    0.1317    3.0093 C   0  0  0  0  0  0  0  0  0  0  0  0
    0.9411   -0.6681    3.9218 C   0  0  0  0  0  0  0  0  0  0  0  0
    2.2309   -0.1716    4.1113 C   0  0  0  0  0  0  0  0  0  0  0  0
    2.7098    0.0157    5.3715 O   0  0  0  0  0  0  0  0  0  0  0  0
   -1.7582    1.3241   -0.4207 H   0  0  0  0  0  0  0  0  0  0  0  0
    0.9531    1.3238   -0.4550 H   0  0  0  0  0  0  0  0  0  0  0  0
    1.5020   -1.2151   -0.4976 H   0  0  0  0  0  0  0  0  0  0  0  0
   -0.0787   -1.5196    0.1756 H   0  0  0  0  0  0  0  0  0  0  0  0
    3.1699    0.1775    0.8650 H   0  0  0  0  0  0  0  0  0  0  0  0
   -0.5553   -1.2484    2.4921 H   0  0  0  0  0  0  0  0  0  0  0  0
    4.0361    0.5185    3.1504 H   0  0  0  0  0  0  0  0  0  0  0  0
    0.3137   -0.9066    4.7760 H   0  0  0  0  0  0  0  0  0  0  0  0
    2.0408   -0.2389    6.0268 H   0  0  0  0  0  0  0  0  0  0  0  0
   -1.5448    0.2842   -2.1575 N   0  0  0  0  0  0  0  0  0  0  0  0
   -2.1665    0.0563   -3.4421 C   0  0  2  0  0  0  0  0  0  0  0  0
   -1.5022    0.9781   -4.4562 C   0  0  0  0  0  0  0  0  0  0  0  0
   -0.9101    2.0078   -4.1397 O   0  0  0  0  0  0  0  0  0  0  0  0
   -3.6658    0.3039   -3.3829 C   0  0  0  0  0  0  0  0  0  0  0  0
   -2.1440    0.4512   -1.3545 H   0  0  0  0  0  0  0  0  0  0  0  0
   -1.9662   -0.9869   -3.7098 H   0  0  0  0  0  0  0  0  0  0  0  0
   -3.8860    1.3440   -3.1161 H   0  0  0  0  0  0  0  0  0  0  0  0
   -4.1395    0.1033   -4.3496 H   0  0  0  0  0  0  0  0  0  0  0  0
   -4.1376   -0.3389   -2.6320 H   0  0  0  0  0  0  0  0  0  0  0  0
   -1.6853    0.5382   -5.7597 N   0  0  0  0  0  0  0  0  0  0  0  0
   -1.1609    1.2482   -6.9030 C   0  0  0  0  0  0  0  0  0  0  0  0
   -2.1732   -0.3366   -5.9280 H   0  0  0  0  0  0  0  0  0  0  0  0
   -1.9224    1.9449   -7.2835 H   0  0  0  0  0  0  0  0  0  0  0  0
   -0.2646    1.8118   -6.6050 H   0  0  0  0  0  0  0  0  0  0  0  0
   -0.8961    0.5284   -7.6915 H   0  0  0  0  0  0  0  0  0  0  0  0
 23 25  2  0  0  0  0
 22 23  1  0  0  0  0
 24 26  1  0  0  0  0
 22 24  2  0  0  0  0
 25 27  1  0  0  0  0
 26 27  2  0  0  0  0
 21 22  1  0  0  0  0
 27 28  1  0  0  0  0
  1  3  1  0  0  0  0
  1  7  1  0  0  0  0
  1  2  2  0  0  0  0
 39 40  1  0  0  0  0
 40 48  1  0  0  0  0
 40 41  2  0  0  0  0
  8  9  1  0  0  0  0
  9 17  1  0  0  0  0
  9 10  2  0  0  0  0
 18 19  1  0  0  0  0
 19 38  1  0  0  0  0
 19 20  2  0  0  0  0
 39 42  1  0  0  0  0
  8 11  1  0  0  0  0
 48 49  1  0  0  0  0
 18 21  1  0  0  0  0
 38 39  1  0  0  0  0
  7  8  1  0  0  0  0
 17 18  1  0  0  0  0
 23 33  1  0  0  0  0
 24 34  1  0  0  0  0
 25 35  1  0  0  0  0
 26 36  1  0  0  0  0
  3  4  1  0  0  0  0
  3  5  1  0  0  0  0
  3  6  1  0  0  0  0
 42 45  1  0  0  0  0
 42 46  1  0  0  0  0
 42 47  1  0  0  0  0
 11 14  1  0  0  0  0
 11 15  1  0  0  0  0
 11 16  1  0  0  0  0
 49 51  1  0  0  0  0
 49 52  1  0  0  0  0
 49 53  1  0  0  0  0
 21 31  1  0  0  0  0
 21 32  1  0  0  0  0
 39 44  1  0  0  0  0
  8 13  1  0  0  0  0
 18 30  1  0  0  0  0
 48 50  1  0  0  0  0
  7 12  1  0  0  0  0
 38 43  1  0  0  0  0
 17 29  1  0  0  0  0
 28 37  1  0  0  0  0
M  END
$$$$

  -OEChem-05262214473D

 53 53  0     1  0  0  0  0  0999 V2000
   -1.9298    0.2574    3.9747 C   0  0  0  0  0  0  0  0  0  0  0  0
   -0.9825   -0.3573    3.4990 O   0  0  0  0  0  0  0  0  0  0  0  0
   -2.3617   -0.0250    5.3754 C   0  0  0  0  0  0  0  0  0  0  0  0
   -3.1214   -0.8213    5.4288 H   0  0  0  0  0  0  0  0  0  0  0  0
   -1.5305   -0.3726    6.0097 H   0  0  0  0  0  0  0  0  0  0  0  0
   -2.7997    0.8299    5.9150 H   0  0  0  0  0  0  0  0  0  0  0  0
   -2.6795    1.2298    3.3336 N   0  0  0  0  0  0  0  0  0  0  0  0
   -2.4327    1.6559    1.9812 C   0  0  2  0  0  0  0  0  0  0  0  0
   -1.0977    1.0705    1.5400 C   0  0  0  0  0  0  0  0  0  0  0  0
   -0.2256    0.7177    2.3313 O   0  0  0  0  0  0  0  0  0  0  0  0
   -2.4239    3.1726    1.8718 C   0  0  0  0  0  0  0  0  0  0  0  0
   -3.4446    1.6657    3.8454 H   0  0  0  0  0  0  0  0  0  0  0  0
   -3.2368    1.2374    1.3661 H   0  0  0  0  0  0  0  0  0  0  0  0
   -1.6248    3.6099    2.4815 H   0  0  0  0  0  0  0  0  0  0  0  0
   -2.2644    3.4949    0.8375 H   0  0  0  0  0  0  0  0  0  0  0  0
   -3.3741    3.5939    2.2175 H   0  0  0  0  0  0  0  0  0  0  0  0
   -0.9750    1.0274    0.1566 N   0  0  0  0  0  0  0  0  0  0  0  0
    0.2023    0.5266   -0.5070 C   0  0  2  0  0  0  0  0  0  0  0  0
   -0.1701    0.2863   -1.9657 C   0  0  0  0  0  0  0  0  0  0  0  0
    0.6144   -0.1814   -2.7883 O   0  0  0  0  0  0  0  0  0  0  0  0
    0.7202   -0.7676    0.1309 C   0  0  0  0  0  0  0  0  0  0  0  0
    1.2505   -0.5579    1.5282 C   0  0  0  0  0  0  0  0  0  0  0  0
    2.5402   -0.0615    1.7178 C   0  0  0  0  0  0  0  0  0  0  0  0
    0.4510   -0.8613    2.6303 C   0  0  0  0  0  0  0  0  0  0  0  0
    3.0303    0.1317    3.0093 C   0  0  0  0  0  0  0  0  0  0  0  0
    0.9411   -0.6681    3.9218 C   0  0  0  0  0  0  0  0  0  0  0  0
    2.2309   -0.1716    4.1113 C   0  0  0  0  0  0  0  0  0  0  0  0
    2.7098    0.0157    5.3715 O   0  0  0  0  0  0  0  0  0  0  0  0
   -1.7582    1.3241   -0.4207 H   0  0  0  0  0  0  0  0  0  0  0  0
    0.9531    1.3238   -0.4550 H   0  0  0  0  0  0  0  0  0  0  0  0
    1.5020   -1.2151   -0.4976 H   0  0  0  0  0  0  0  0  0  0  0  0
   -0.0787   -1.5196    0.1756 H   0  0  0  0  0  0  0  0  0  0  0  0
    3.1699    0.1775    0.8650 H   0  0  0  0  0  0  0  0  0  0  0  0
   -0.5553   -1.2484    2.4921 H   0  0  0  0  0  0  0  0  0  0  0  0
    4.0361    0.5185    3.1504 H   0  0  0  0  0  0  0  0  0  0  0  0
    0.3137   -0.9066    4.7760 H   0  0  0  0  0  0  0  0  0  0  0  0
    2.0408   -0.2389    6.0268 H   0  0  0  0  0  0  0  0  0  0  0  0
   -1.4950    0.6098   -2.2238 N   0  0  0  0  0  0  0  0  0  0  0  0
   -2.1113    0.4548   -3.5218 C   0  0  2  0  0  0  0  0  0  0  0  0
   -1.2055    1.1130   -4.5542 C   0  0  0  0  0  0  0  0  0  0  0  0
   -0.3864    1.9843   -4.2695 O   0  0  0  0  0  0  0  0  0  0  0  0
   -3.5029    1.0675   -3.5503 C   0  0  0  0  0  0  0  0  0  0  0  0
   -2.0598    0.9737   -1.4620 H   0  0  0  0  0  0  0  0  0  0  0  0
   -2.1684   -0.6214   -3.7184 H   0  0  0  0  0  0  0  0  0  0  0  0
   -3.4659    2.1455   -3.3554 H   0  0  0  0  0  0  0  0  0  0  0  0
   -3.9797    0.9242   -4.5256 H   0  0  0  0  0  0  0  0  0  0  0  0
   -4.1443    0.6136   -2.7872 H   0  0  0  0  0  0  0  0  0  0  0  0
   -1.4495    0.6437   -5.8373 N   0  0  0  0  0  0  0  0  0  0  0  0
   -0.7276    1.1227   -6.9930 C   0  0  0  0  0  0  0  0  0  0  0  0
   -2.1340   -0.0934   -5.9781 H   0  0  0  0  0  0  0  0  0  0  0  0
   -1.2788    1.9579   -7.4499 H   0  0  0  0  0  0  0  0  0  0  0  0
    0.2705    1.4673   -6.6848 H   0  0  0  0  0  0  0  0  0  0  0  0
   -0.6246    0.3077   -7.7245 H   0  0  0  0  0  0  0  0  0  0  0  0
 23 25  2  0  0  0  0
 22 23  1  0  0  0  0
 24 26  1  0  0  0  0
 22 24  2  0  0  0  0
 25 27  1  0  0  0  0
 26 27  2  0  0  0  0
 21 22  1  0  0  0  0
 27 28  1  0  0  0  0
  1  3  1  0  0  0  0
  1  7  1  0  0  0  0
  1  2  2  0  0  0  0
 39 40  1  0  0  0  0
 40 48  1  0  0  0  0
 40 41  2  0  0  0  0
  8  9  1  0  0  0  0
  9 17  1  0  0  0  0
  9 10  2  0  0  0  0
 18 19  1  0  0  0  0
 19 38  1  0  0  0  0
 19 20  2  0  0  0  0
 39 42  1  0  0  0  0
  8 11  1  0  0  0  0
 48 49  1  0  0  0  0
 18 21  1  0  0  0  0
 38 39  1  0  0  0  0
  7  8  1  0  0  0  0
 17 18  1  0  0  0  0
 23 33  1  0  0  0  0
 24 34  1  0  0  0  0
 25 35  1  0  0  0  0
 26 36  1  0  0  0  0
  3  4  1  0  0  0  0
  3  5  1  0  0  0  0
  3  6  1  0  0  0  0
 42 45  1  0  0  0  0
 42 46  1  0  0  0  0
 42 47  1  0  0  0  0
 11 14  1  0  0  0  0
 11 15  1  0  0  0  0
 11 16  1  0  0  0  0
 49 51  1  0  0  0  0
 49 52  1  0  0  0  0
 49 53  1  0  0  0  0
 21 31  1  0  0  0  0
 21 32  1  0  0  0  0
 39 44  1  0  0  0  0
  8 13  1  0  0  0  0
 18 30  1  0  0  0  0
 48 50  1  0  0  0  0
  7 12  1  0  0  0  0
 38 43  1  0  0  0  0
 17 29  1  0  0  0  0
 28 37  1  0  0  0  0
M  END
$$$$

  -OEChem-05262214473D

 53 53  0     1  0  0  0  0  0999 V2000
   -1.9298    0.2574    3.9747 C   0  0  0  0  0  0  0  0  0  0  0  0
   -0.9825   -0.3573    3.4990 O   0  0  0  0  0  0  0  0  0  0  0  0
   -2.3617   -0.0250    5.3754 C   0  0  0  0  0  0  0  0  0  0  0  0
   -3.1214   -0.8213    5.4288 H   0  0  0  0  0  0  0  0  0  0  0  0
   -1.5305   -0.3726    6.0097 H   0  0  0  0  0  0  0  0  0  0  0  0
   -2.7997    0.8299    5.9150 H   0  0  0  0  0  0  0  0  0  0  0  0
   -2.6795    1.2298    3.3336 N   0  0  0  0  0  0  0  0  0  0  0  0
   -2.4327    1.6559    1.9812 C   0  0  2  0  0  0  0  0  0  0  0  0
   -1.0977    1.0705    1.5400 C   0  0  0  0  0  0  0  0  0  0  0  0
   -0.2256    0.7177    2.3313 O   0  0  0  0  0  0  0  0  0  0  0  0
   -2.4239    3.1726    1.8718 C   0  0  0  0  0  0  0  0  0  0  0  0
   -3.4446    1.6657    3.8454 H   0  0  0  0  0  0  0  0  0  0  0  0
   -3.2368    1.2374    1.3661 H   0  0  0  0  0  0  0  0  0  0  0  0
   -1.6248    3.6099    2.4815 H   0  0  0  0  0  0  0  0  0  0  0  0
   -2.2644    3.4949    0.8375 H   0  0  0  0  0  0  0  0  0  0  0  0
   -3.3741    3.5939    2.2175 H   0  0  0  0  0  0  0  0  0  0  0  0
   -0.9750    1.0274    0.1566 N   0  0  0  0  0  0  0  0  0  0  0  0
    0.2023    0.5266   -0.5070 C   0  0  2  0  0  0  0  0  0  0  0  0
   -0.1701    0.2863   -1.9657 C   0  0  0  0  0  0  0  0  0  0  0  0
    0.4998   -0.4154   -2.7205 O   0  0  0  0  0  0  0  0  0  0  0  0
    0.7202   -0.7676    0.1309 C   0  0  0  0  0  0  0  0  0  0  0  0
    1.2505   -0.5579    1.5282 C   0  0  0  0  0  0  0  0  0  0  0  0
    2.5402   -0.0615    1.7178 C   0  0  0  0  0  0  0  0  0  0  0  0
    0.4510   -0.8613    2.6303 C   0  0  0  0  0  0  0  0  0  0  0  0
    3.0303    0.1317    3.0093 C   0  0  0  0  0  0  0  0  0  0  0  0
    0.9411   -0.6681    3.9218 C   0  0  0  0  0  0  0  0  0  0  0  0
    2.2309   -0.1716    4.1113 C   0  0  0  0  0  0  0  0  0  0  0  0
    2.7098    0.0157    5.3715 O   0  0  0  0  0  0  0  0  0  0  0  0
   -1.7582    1.3241   -0.4207 H   0  0  0  0  0  0  0  0  0  0  0  0
    0.9531    1.3238   -0.4550 H   0  0  0  0  0  0  0  0  0  0  0  0
    1.5020   -1.2151   -0.4976 H   0  0  0  0  0  0  0  0  0  0  0  0
   -0.0787   -1.5196    0.1756 H   0  0  0  0  0  0  0  0  0  0  0  0
    3.1699    0.1775    0.8650 H   0  0  0  0  0  0  0  0  0  0  0  0
   -0.5553   -1.2484    2.4921 H   0  0  0  0  0  0  0  0  0  0  0  0
    4.0361    0.5185    3.1504 H   0  0  0  0  0  0  0  0  0  0  0  0
    0.3137   -0.9066    4.7760 H   0  0  0  0  0  0  0  0  0  0  0  0
    2.0408   -0.2389    6.0268 H   0  0  0  0  0  0  0  0  0  0  0  0
   -1.3635    0.9077   -2.3064 N   0  0  0  0  0  0  0  0  0  0  0  0
   -1.9561    0.8210   -3.6218 C   0  0  2  0  0  0  0  0  0  0  0  0
   -0.8816    1.1636   -4.6452 C   0  0  0  0  0  0  0  0  0  0  0  0
    0.1188    1.8237   -4.3721 O   0  0  0  0  0  0  0  0  0  0  0  0
   -3.1496    1.7542   -3.7536 C   0  0  0  0  0  0  0  0  0  0  0  0
   -1.8447    1.4508   -1.5956 H   0  0  0  0  0  0  0  0  0  0  0  0
   -2.2728   -0.2188   -3.7580 H   0  0  0  0  0  0  0  0  0  0  0  0
   -2.8518    2.8006   -3.6201 H   0  0  0  0  0  0  0  0  0  0  0  0
   -3.6148    1.6664   -4.7410 H   0  0  0  0  0  0  0  0  0  0  0  0
   -3.9085    1.5256   -2.9976 H   0  0  0  0  0  0  0  0  0  0  0  0
   -1.1924    0.6823   -5.9093 N   0  0  0  0  0  0  0  0  0  0  0  0
   -0.3365    0.8886   -7.0543 C   0  0  0  0  0  0  0  0  0  0  0  0
   -2.0339    0.1287   -6.0402 H   0  0  0  0  0  0  0  0  0  0  0  0
   -0.6471    1.8005   -7.5853 H   0  0  0  0  0  0  0  0  0  0  0  0
    0.7053    0.9969   -6.7183 H   0  0  0  0  0  0  0  0  0  0  0  0
   -0.4156    0.0253   -7.7313 H   0  0  0  0  0  0  0  0  0  0  0  0
 23 25  2  0  0  0  0
 22 23  1  0  0  0  0
 24 26  1  0  0  0  0
 22 24  2  0  0  0  0
 25 27  1  0  0  0  0
 26 27  2  0  0  0  0
 21 22  1  0  0  0  0
 27 28  1  0  0  0  0
  1  3  1  0  0  0  0
  1  7  1  0  0  0  0
  1  2  2  0  0  0  0
 39 40  1  0  0  0  0
 40 48  1  0  0  0  0
 40 41  2  0  0  0  0
  8  9  1  0  0  0  0
  9 17  1  0  0  0  0
  9 10  2  0  0  0  0
 18 19  1  0  0  0  0
 19 38  1  0  0  0  0
 19 20  2  0  0  0  0
 39 42  1  0  0  0  0
  8 11  1  0  0  0  0
 48 49  1  0  0  0  0
 18 21  1  0  0  0  0
 38 39  1  0  0  0  0
  7  8  1  0  0  0  0
 17 18  1  0  0  0  0
 23 33  1  0  0  0  0
 24 34  1  0  0  0  0
 25 35  1  0  0  0  0
 26 36  1  0  0  0  0
  3  4  1  0  0  0  0
  3  5  1  0  0  0  0
  3  6  1  0  0  0  0
 42 45  1  0  0  0  0
 42 46  1  0  0  0  0
 42 47  1  0  0  0  0
 11 14  1  0  0  0  0
 11 15  1  0  0  0  0
 11 16  1  0  0  0  0
 49 51  1  0  0  0  0
 49 52  1  0  0  0  0
 49 53  1  0  0  0  0
 21 31  1  0  0  0  0
 21 32  1  0  0  0  0
 39 44  1  0  0  0  0
  8 13  1  0  0  0  0
 18 30  1  0  0  0  0
 48 50  1  0  0  0  0
  7 12  1  0  0  0  0
 38 43  1  0  0  0  0
 17 29  1  0  0  0  0
 28 37  1  0  0  0  0
M  END
$$$$

  -OEChem-05262214473D

 53 53  0     1  0  0  0  0  0999 V2000
   -1.9298    0.2574    3.9747 C   0  0  0  0  0  0  0  0  0  0  0  0
   -0.9825   -0.3573    3.4990 O   0  0  0  0  0  0  0  0  0  0  0  0
   -2.3617   -0.0250    5.3754 C   0  0  0  0  0  0  0  0  0  0  0  0
   -3.1214   -0.8213    5.4288 H   0  0  0  0  0  0  0  0  0  0  0  0
   -1.5305   -0.3726    6.0097 H   0  0  0  0  0  0  0  0  0  0  0  0
   -2.7997    0.8299    5.9150 H   0  0  0  0  0  0  0  0  0  0  0  0
   -2.6795    1.2298    3.3336 N   0  0  0  0  0  0  0  0  0  0  0  0
   -2.4327    1.6559    1.9812 C   0  0  2  0  0  0  0  0  0  0  0  0
   -1.0977    1.0705    1.5400 C   0  0  0  0  0  0  0  0  0  0  0  0
   -0.2256    0.7177    2.3313 O   0  0  0  0  0  0  0  0  0  0  0  0
   -2.4239    3.1726    1.8718 C   0  0  0  0  0  0  0  0  0  0  0  0
   -3.4446    1.6657    3.8454 H   0  0  0  0  0  0  0  0  0  0  0  0
   -3.2368    1.2374    1.3661 H   0  0  0  0  0  0  0  0  0  0  0  0
   -1.6248    3.6099    2.4815 H   0  0  0  0  0  0  0  0  0  0  0  0
   -2.2644    3.4949    0.8375 H   0  0  0  0  0  0  0  0  0  0  0  0
   -3.3741    3.5939    2.2175 H   0  0  0  0  0  0  0  0  0  0  0  0
   -0.9750    1.0274    0.1566 N   0  0  0  0  0  0  0  0  0  0  0  0
    0.2023    0.5266   -0.5070 C   0  0  2  0  0  0  0  0  0  0  0  0
   -0.1701    0.2863   -1.9657 C   0  0  0  0  0  0  0  0  0  0  0  0
    0.3284   -0.6087   -2.6449 O   0  0  0  0  0  0  0  0  0  0  0  0
    0.7202   -0.7676    0.1309 C   0  0  0  0  0  0  0  0  0  0  0  0
    1.2505   -0.5579    1.5282 C   0  0  0  0  0  0  0  0  0  0  0  0
    2.5402   -0.0615    1.7178 C   0  0  0  0  0  0  0  0  0  0  0  0
    0.4510   -0.8613    2.6303 C   0  0  0  0  0  0  0  0  0  0  0  0
    3.0303    0.1317    3.0093 C   0  0  0  0  0  0  0  0  0  0  0  0
    0.9411   -0.6681    3.9218 C   0  0  0  0  0  0  0  0  0  0  0  0
    2.2309   -0.1716    4.1113 C   0  0  0  0  0  0  0  0  0  0  0  0
    2.7098    0.0157    5.3715 O   0  0  0  0  0  0  0  0  0  0  0  0
   -1.7582    1.3241   -0.4207 H   0  0  0  0  0  0  0  0  0  0  0  0
    0.9531    1.3238   -0.4550 H   0  0  0  0  0  0  0  0  0  0  0  0
    1.5020   -1.2151   -0.4976 H   0  0  0  0  0  0  0  0  0  0  0  0
   -0.0787   -1.5196    0.1756 H   0  0  0  0  0  0  0  0  0  0  0  0
    3.1699    0.1775    0.8650 H   0  0  0  0  0  0  0  0  0  0  0  0
   -0.5553   -1.2484    2.4921 H   0  0  0  0  0  0  0  0  0  0  0  0
    4.0361    0.5185    3.1504 H   0  0  0  0  0  0  0  0  0  0  0  0
    0.3137   -0.9066    4.7760 H   0  0  0  0  0  0  0  0  0  0  0  0
    2.0408   -0.2389    6.0268 H   0  0  0  0  0  0  0  0  0  0  0  0
   -1.1594    1.1578   -2.3997 N   0  0  0  0  0  0  0  0  0  0  0  0
   -1.7114    1.1300   -3.7351 C   0  0  2  0  0  0  0  0  0  0  0  0
   -0.5524    1.1265   -4.7231 C   0  0  0  0  0  0  0  0  0  0  0  0
    0.5713    1.5369   -4.4404 O   0  0  0  0  0  0  0  0  0  0  0  0
   -2.6300    2.3171   -3.9790 C   0  0  0  0  0  0  0  0  0  0  0  0
   -1.5133    1.8499   -1.7459 H   0  0  0  0  0  0  0  0  0  0  0  0
   -2.2723    0.1934   -3.8261 H   0  0  0  0  0  0  0  0  0  0  0  0
   -2.0857    3.2646   -3.8921 H   0  0  0  0  0  0  0  0  0  0  0  0
   -3.0697    2.2793   -4.9811 H   0  0  0  0  0  0  0  0  0  0  0  0
   -3.4463    2.3347   -3.2489 H   0  0  0  0  0  0  0  0  0  0  0  0
   -0.9316    0.6514   -5.9708 N   0  0  0  0  0  0  0  0  0  0  0  0
   -0.0142    0.5617   -7.0827 C   0  0  0  0  0  0  0  0  0  0  0  0
   -1.8796    0.3145   -6.1102 H   0  0  0  0  0  0  0  0  0  0  0  0
   -0.0703    1.4835   -7.6803 H   0  0  0  0  0  0  0  0  0  0  0  0
    1.0102    0.4327   -6.7032 H   0  0  0  0  0  0  0  0  0  0  0  0
   -0.2835   -0.2997   -7.7115 H   0  0  0  0  0  0  0  0  0  0  0  0
 23 25  2  0  0  0  0
 22 23  1  0  0  0  0
 24 26  1  0  0  0  0
 22 24  2  0  0  0  0
 25 27  1  0  0  0  0
 26 27  2  0  0  0  0
 21 22  1  0  0  0  0
 27 28  1  0  0  0  0
  1  3  1  0  0  0  0
  1  7  1  0  0  0  0
  1  2  2  0  0  0  0
 39 40  1  0  0  0  0
 40 48  1  0  0  0  0
 40 41  2  0  0  0  0
  8  9  1  0  0  0  0
  9 17  1  0  0  0  0
  9 10  2  0  0  0  0
 18 19  1  0  0  0  0
 19 38  1  0  0  0  0
 19 20  2  0  0  0  0
 39 42  1  0  0  0  0
  8 11  1  0  0  0  0
 48 49  1  0  0  0  0
 18 21  1  0  0  0  0
 38 39  1  0  0  0  0
  7  8  1  0  0  0  0
 17 18  1  0  0  0  0
 23 33  1  0  0  0  0
 24 34  1  0  0  0  0
 25 35  1  0  0  0  0
 26 36  1  0  0  0  0
  3  4  1  0  0  0  0
  3  5  1  0  0  0  0
  3  6  1  0  0  0  0
 42 45  1  0  0  0  0
 42 46  1  0  0  0  0
 42 47  1  0  0  0  0
 11 14  1  0  0  0  0
 11 15  1  0  0  0  0
 11 16  1  0  0  0  0
 49 51  1  0  0  0  0
 49 52  1  0  0  0  0
 49 53  1  0  0  0  0
 21 31  1  0  0  0  0
 21 32  1  0  0  0  0
 39 44  1  0  0  0  0
  8 13  1  0  0  0  0
 18 30  1  0  0  0  0
 48 50  1  0  0  0  0
  7 12  1  0  0  0  0
 38 43  1  0  0  0  0
 17 29  1  0  0  0  0
 28 37  1  0  0  0  0
M  END
$$$$

  -OEChem-05262214473D

 53 53  0     1  0  0  0  0  0999 V2000
   -1.9298    0.2574    3.9747 C   0  0  0  0  0  0  0  0  0  0  0  0
   -0.9825   -0.3573    3.4990 O   0  0  0  0  0  0  0  0  0  0  0  0
   -2.3617   -0.0250    5.3754 C   0  0  0  0  0  0  0  0  0  0  0  0
   -3.1214   -0.8213    5.4288 H   0  0  0  0  0  0  0  0  0  0  0  0
   -1.5305   -0.3726    6.0097 H   0  0  0  0  0  0  0  0  0  0  0  0
   -2.7997    0.8299    5.9150 H   0  0  0  0  0  0  0  0  0  0  0  0
   -2.6795    1.2298    3.3336 N   0  0  0  0  0  0  0  0  0  0  0  0
   -2.4327    1.6559    1.9812 C   0  0  2  0  0  0  0  0  0  0  0  0
   -1.0977    1.0705    1.5400 C   0  0  0  0  0  0  0  0  0  0  0  0
   -0.2256    0.7177    2.3313 O   0  0  0  0  0  0  0  0  0  0  0  0
   -2.4239    3.1726    1.8718 C   0  0  0  0  0  0  0  0  0  0  0  0
   -3.4446    1.6657    3.8454 H   0  0  0  0  0  0  0  0  0  0  0  0
   -3.2368    1.2374    1.3661 H   0  0  0  0  0  0  0  0  0  0  0  0
   -1.6248    3.6099    2.4815 H   0  0  0  0  0  0  0  0  0  0  0  0
   -2.2644    3.4949    0.8375 H   0  0  0  0  0  0  0  0  0  0  0  0
   -3.3741    3.5939    2.2175 H   0  0  0  0  0  0  0  0  0  0  0  0
   -0.9750    1.0274    0.1566 N   0  0  0  0  0  0  0  0  0  0  0  0
    0.2023    0.5266   -0.5070 C   0  0  2  0  0  0  0  0  0  0  0  0
   -0.1701    0.2863   -1.9657 C   0  0  0  0  0  0  0  0  0  0  0  0
    0.1119   -0.7482   -2.5666 O   0  0  0  0  0  0  0  0  0  0  0  0
    0.7202   -0.7676    0.1309 C   0  0  0  0  0  0  0  0  0  0  0  0
    1.2505   -0.5579    1.5282 C   0  0  0  0  0  0  0  0  0  0  0  0
    2.5402   -0.0615    1.7178 C   0  0  0  0  0  0  0  0  0  0  0  0
    0.4510   -0.8613    2.6303 C   0  0  0  0  0  0  0  0  0  0  0  0
    3.0303    0.1317    3.0093 C   0  0  0  0  0  0  0  0  0  0  0  0
    0.9411   -0.6681    3.9218 C   0  0  0  0  0  0  0  0  0  0  0  0
    2.2309   -0.1716    4.1113 C   0  0  0  0  0  0  0  0  0  0  0  0
    2.7098    0.0157    5.3715 O   0  0  0  0  0  0  0  0  0  0  0  0
   -1.7582    1.3241   -0.4207 H   0  0  0  0  0  0  0  0  0  0  0  0
    0.9531    1.3238   -0.4550 H   0  0  0  0  0  0  0  0  0  0  0  0
    1.5020   -1.2151   -0.4976 H   0  0  0  0  0  0  0  0  0  0  0  0
   -0.0787   -1.5196    0.1756 H   0  0  0  0  0  0  0  0  0  0  0  0
    3.1699    0.1775    0.8650 H   0  0  0  0  0  0  0  0  0  0  0  0
   -0.5553   -1.2484    2.4921 H   0  0  0  0  0  0  0  0  0  0  0  0
    4.0361    0.5185    3.1504 H   0  0  0  0  0  0  0  0  0  0  0  0
    0.3137   -0.9066    4.7760 H   0  0  0  0  0  0  0  0  0  0  0  0
    2.0408   -0.2389    6.0268 H   0  0  0  0  0  0  0  0  0  0  0  0
   -0.8965    1.3428   -2.4973 N   0  0  0  0  0  0  0  0  0  0  0  0
   -1.3939    1.3606   -3.8542 C   0  0  2  0  0  0  0  0  0  0  0  0
   -0.2405    1.0043   -4.7826 C   0  0  0  0  0  0  0  0  0  0  0  0
    0.9401    1.1435   -4.4697 O   0  0  0  0  0  0  0  0  0  0  0  0
   -1.9795    2.7180   -4.2111 C   0  0  0  0  0  0  0  0  0  0  0  0
   -1.0882    2.1438   -1.9028 H   0  0  0  0  0  0  0  0  0  0  0  0
   -2.1670    0.5872   -3.9178 H   0  0  0  0  0  0  0  0  0  0  0  0
   -1.2196    3.5058   -4.1529 H   0  0  0  0  0  0  0  0  0  0  0  0
   -2.3817    2.7212   -5.2296 H   0  0  0  0  0  0  0  0  0  0  0  0
   -2.7893    2.9860   -3.5239 H   0  0  0  0  0  0  0  0  0  0  0  0
   -0.6848    0.5531   -6.0176 N   0  0  0  0  0  0  0  0  0  0  0  0
    0.2174    0.1644   -7.0764 C   0  0  0  0  0  0  0  0  0  0  0  0
   -1.6818    0.4514   -6.1833 H   0  0  0  0  0  0  0  0  0  0  0  0
    0.4121    1.0285   -7.7285 H   0  0  0  0  0  0  0  0  0  0  0  0
    1.1643   -0.1867   -6.6406 H   0  0  0  0  0  0  0  0  0  0  0  0
   -0.2371   -0.6451   -7.6665 H   0  0  0  0  0  0  0  0  0  0  0  0
 23 25  2  0  0  0  0
 22 23  1  0  0  0  0
 24 26  1  0  0  0  0
 22 24  2  0  0  0  0
 25 27  1  0  0  0  0
 26 27  2  0  0  0  0
 21 22  1  0  0  0  0
 27 28  1  0  0  0  0
  1  3  1  0  0  0  0
  1  7  1  0  0  0  0
  1  2  2  0  0  0  0
 39 40  1  0  0  0  0
 40 48  1  0  0  0  0
 40 41  2  0  0  0  0
  8  9  1  0  0  0  0
  9 17  1  0  0  0  0
  9 10  2  0  0  0  0
 18 19  1  0  0  0  0
 19 38  1  0  0  0  0
 19 20  2  0  0  0  0
 39 42  1  0  0  0  0
  8 11  1  0  0  0  0
 48 49  1  0  0  0  0
 18 21  1  0  0  0  0
 38 39  1  0  0  0  0
  7  8  1  0  0  0  0
 17 18  1  0  0  0  0
 23 33  1  0  0  0  0
 24 34  1  0  0  0  0
 25 35  1  0  0  0  0
 26 36  1  0  0  0  0
  3  4  1  0  0  0  0
  3  5  1  0  0  0  0
  3  6  1  0  0  0  0
 42 45  1  0  0  0  0
 42 46  1  0  0  0  0
 42 47  1  0  0  0  0
 11 14  1  0  0  0  0
 11 15  1  0  0  0  0
 11 16  1  0  0  0  0
 49 51  1  0  0  0  0
 49 52  1  0  0  0  0
 49 53  1  0  0  0  0
 21 31  1  0  0  0  0
 21 32  1  0  0  0  0
 39 44  1  0  0  0  0
  8 13  1  0  0  0  0
 18 30  1  0  0  0  0
 48 50  1  0  0  0  0
  7 12  1  0  0  0  0
 38 43  1  0  0  0  0
 17 29  1  0  0  0  0
 28 37  1  0  0  0  0
M  END
$$$$

  -OEChem-05262214473D

 53 53  0     1  0  0  0  0  0999 V2000
   -1.9298    0.2574    3.9747 C   0  0  0  0  0  0  0  0  0  0  0  0
   -0.9825   -0.3573    3.4990 O   0  0  0  0  0  0  0  0  0  0  0  0
   -2.3617   -0.0250    5.3754 C   0  0  0  0  0  0  0  0  0  0  0  0
   -3.1214   -0.8213    5.4288 H   0  0  0  0  0  0  0  0  0  0  0  0
   -1.5305   -0.3726    6.0097 H   0  0  0  0  0  0  0  0  0  0  0  0
   -2.7997    0.8299    5.9150 H   0  0  0  0  0  0  0  0  0  0  0  0
   -2.6795    1.2298    3.3336 N   0  0  0  0  0  0  0  0  0  0  0  0
   -2.4327    1.6559    1.9812 C   0  0  2  0  0  0  0  0  0  0  0  0
   -1.0977    1.0705    1.5400 C   0  0  0  0  0  0  0  0  0  0  0  0
   -0.2256    0.7177    2.3313 O   0  0  0  0  0  0  0  0  0  0  0  0
   -2.4239    3.1726    1.8718 C   0  0  0  0  0  0  0  0  0  0  0  0
   -3.4446    1.6657    3.8454 H   0  0  0  0  0  0  0  0  0  0  0  0
   -3.2368    1.2374    1.3661 H   0  0  0  0  0  0  0  0  0  0  0  0
   -1.6248    3.6099    2.4815 H   0  0  0  0  0  0  0  0  0  0  0  0
   -2.2644    3.4949    0.8375 H   0  0  0  0  0  0  0  0  0  0  0  0
   -3.3741    3.5939    2.2175 H   0  0  0  0  0  0  0  0  0  0  0  0
   -0.9750    1.0274    0.1566 N   0  0  0  0  0  0  0  0  0  0  0  0
    0.2023    0.5266   -0.5070 C   0  0  2  0  0  0  0  0  0  0  0  0
   -0.1701    0.2863   -1.9657 C   0  0  0  0  0  0  0  0  0  0  0  0
   -0.1349   -0.8244   -2.4911 O   0  0  0  0  0  0  0  0  0  0  0  0
    0.7202   -0.7676    0.1309 C   0  0  0  0  0  0  0  0  0  0  0  0
    1.2505   -0.5579    1.5282 C   0  0  0  0  0  0  0  0  0  0  0  0
    2.5402   -0.0615    1.7178 C   0  0  0  0  0  0  0  0  0  0  0  0
    0.4510   -0.8613    2.6303 C   0  0  0  0  0  0  0  0  0  0  0  0
    3.0303    0.1317    3.0093 C   0  0  0  0  0  0  0  0  0  0  0  0
    0.9411   -0.6681    3.9218 C   0  0  0  0  0  0  0  0  0  0  0  0
    2.2309   -0.1716    4.1113 C   0  0  0  0  0  0  0  0  0  0  0  0
    2.7098    0.0157    5.3715 O   0  0  0  0  0  0  0  0  0  0  0  0
   -1.7582    1.3241   -0.4207 H   0  0  0  0  0  0  0  0  0  0  0  0
    0.9531    1.3238   -0.4550 H   0  0  0  0  0  0  0  0  0  0  0  0
    1.5020   -1.2151   -0.4976 H   0  0  0  0  0  0  0  0  0  0  0  0
   -0.0787   -1.5196    0.1756 H   0  0  0  0  0  0  0  0  0  0  0  0
    3.1699    0.1775    0.8650 H   0  0  0  0  0  0  0  0  0  0  0  0
   -0.5553   -1.2484    2.4921 H   0  0  0  0  0  0  0  0  0  0  0  0
    4.0361    0.5185    3.1504 H   0  0  0  0  0  0  0  0  0  0  0  0
    0.3137   -0.9066    4.7760 H   0  0  0  0  0  0  0  0  0  0  0  0
    2.0408   -0.2389    6.0268 H   0  0  0  0  0  0  0  0  0  0  0  0
   -0.5928    1.4503   -2.5926 N   0  0  0  0  0  0  0  0  0  0  0  0
   -1.0253    1.4973   -3.9708 C   0  0  2  0  0  0  0  0  0  0  0  0
    0.0330    0.8052   -4.8197 C   0  0  0  0  0  0  0  0  0  0  0  0
    1.2002    0.6704   -4.4582 O   0  0  0  0  0  0  0  0  0  0  0  0
   -1.2425    2.9294   -4.4341 C   0  0  0  0  0  0  0  0  0  0  0  0
   -0.5984    2.3125   -2.0557 H   0  0  0  0  0  0  0  0  0  0  0  0
   -1.9641    0.9356   -4.0270 H   0  0  0  0  0  0  0  0  0  0  0  0
   -0.3127    3.5078   -4.3848 H   0  0  0  0  0  0  0  0  0  0  0  0
   -1.5975    2.9620   -5.4694 H   0  0  0  0  0  0  0  0  0  0  0  0
   -1.9821    3.4349   -3.8039 H   0  0  0  0  0  0  0  0  0  0  0  0
   -0.4689    0.3940   -6.0465 N   0  0  0  0  0  0  0  0  0  0  0  0
    0.3424   -0.2764   -7.0357 C   0  0  0  0  0  0  0  0  0  0  0  0
   -1.4538    0.5300   -6.2544 H   0  0  0  0  0  0  0  0  0  0  0  0
    0.7674    0.4665   -7.7267 H   0  0  0  0  0  0  0  0  0  0  0  0
    1.1573   -0.8193   -6.5346 H   0  0  0  0  0  0  0  0  0  0  0  0
   -0.2797   -0.9873   -7.5992 H   0  0  0  0  0  0  0  0  0  0  0  0
 23 25  2  0  0  0  0
 22 23  1  0  0  0  0
 24 26  1  0  0  0  0
 22 24  2  0  0  0  0
 25 27  1  0  0  0  0
 26 27  2  0  0  0  0
 21 22  1  0  0  0  0
 27 28  1  0  0  0  0
  1  3  1  0  0  0  0
  1  7  1  0  0  0  0
  1  2  2  0  0  0  0
 39 40  1  0  0  0  0
 40 48  1  0  0  0  0
 40 41  2  0  0  0  0
  8  9  1  0  0  0  0
  9 17  1  0  0  0  0
  9 10  2  0  0  0  0
 18 19  1  0  0  0  0
 19 38  1  0  0  0  0
 19 20  2  0  0  0  0
 39 42  1  0  0  0  0
  8 11  1  0  0  0  0
 48 49  1  0  0  0  0
 18 21  1  0  0  0  0
 38 39  1  0  0  0  0
  7  8  1  0  0  0  0
 17 18  1  0  0  0  0
 23 33  1  0  0  0  0
 24 34  1  0  0  0  0
 25 35  1  0  0  0  0
 26 36  1  0  0  0  0
  3  4  1  0  0  0  0
  3  5  1  0  0  0  0
  3  6  1  0  0  0  0
 42 45  1  0  0  0  0
 42 46  1  0  0  0  0
 42 47  1  0  0  0  0
 11 14  1  0  0  0  0
 11 15  1  0  0  0  0
 11 16  1  0  0  0  0
 49 51  1  0  0  0  0
 49 52  1  0  0  0  0
 49 53  1  0  0  0  0
 21 31  1  0  0  0  0
 21 32  1  0  0  0  0
 39 44  1  0  0  0  0
  8 13  1  0  0  0  0
 18 30  1  0  0  0  0
 48 50  1  0  0  0  0
  7 12  1  0  0  0  0
 38 43  1  0  0  0  0
 17 29  1  0  0  0  0
 28 37  1  0  0  0  0
M  END
$$$$

  -OEChem-05262214473D

 53 53  0     1  0  0  0  0  0999 V2000
   -1.9298    0.2574    3.9747 C   0  0  0  0  0  0  0  0  0  0  0  0
   -0.9825   -0.3573    3.4990 O   0  0  0  0  0  0  0  0  0  0  0  0
   -2.3617   -0.0250    5.3754 C   0  0  0  0  0  0  0  0  0  0  0  0
   -3.1214   -0.8213    5.4288 H   0  0  0  0  0  0  0  0  0  0  0  0
   -1.5305   -0.3726    6.0097 H   0  0  0  0  0  0  0  0  0  0  0  0
   -2.7997    0.8299    5.9150 H   0  0  0  0  0  0  0  0  0  0  0  0
   -2.6795    1.2298    3.3336 N   0  0  0  0  0  0  0  0  0  0  0  0
   -2.4327    1.6559    1.9812 C   0  0  2  0  0  0  0  0  0  0  0  0
   -1.0977    1.0705    1.5400 C   0  0  0  0  0  0  0  0  0  0  0  0
   -0.2256    0.7177    2.3313 O   0  0  0  0  0  0  0  0  0  0  0  0
   -2.4239    3.1726    1.8718 C   0  0  0  0  0  0  0  0  0  0  0  0
   -3.4446    1.6657    3.8454 H   0  0  0  0  0  0  0  0  0  0  0  0
   -3.2368    1.2374    1.3661 H   0  0  0  0  0  0  0  0  0  0  0  0
   -1.6248    3.6099    2.4815 H   0  0  0  0  0  0  0  0  0  0  0  0
   -2.2644    3.4949    0.8375 H   0  0  0  0  0  0  0  0  0  0  0  0
   -3.3741    3.5939    2.2175 H   0  0  0  0  0  0  0  0  0  0  0  0
   -0.9750    1.0274    0.1566 N   0  0  0  0  0  0  0  0  0  0  0  0
    0.2023    0.5266   -0.5070 C   0  0  2  0  0  0  0  0  0  0  0  0
   -0.1701    0.2863   -1.9657 C   0  0  0  0  0  0  0  0  0  0  0  0
   -0.3953   -0.8321   -2.4233 O   0  0  0  0  0  0  0  0  0  0  0  0
    0.7202   -0.7676    0.1309 C   0  0  0  0  0  0  0  0  0  0  0  0
    1.2505   -0.5579    1.5282 C   0  0  0  0  0  0  0  0  0  0  0  0
    2.5402   -0.0615    1.7178 C   0  0  0  0  0  0  0  0  0  0  0  0
    0.4510   -0.8613    2.6303 C   0  0  0  0  0  0  0  0  0  0  0  0
    3.0303    0.1317    3.0093 C   0  0  0  0  0  0  0  0  0  0  0  0
    0.9411   -0.6681    3.9218 C   0  0  0  0  0  0  0  0  0  0  0  0
    2.2309   -0.1716    4.1113 C   0  0  0  0  0  0  0  0  0  0  0  0
    2.7098    0.0157    5.3715 O   0  0  0  0  0  0  0  0  0  0  0  0
   -1.7582    1.3241   -0.4207 H   0  0  0  0  0  0  0  0  0  0  0  0
    0.9531    1.3238   -0.4550 H   0  0  0  0  0  0  0  0  0  0  0  0
    1.5020   -1.2151   -0.4976 H   0  0  0  0  0  0  0  0  0  0  0  0
   -0.0787   -1.5196    0.1756 H   0  0  0  0  0  0  0  0  0  0  0  0
    3.1699    0.1775    0.8650 H   0  0  0  0  0  0  0  0  0  0  0  0
   -0.5553   -1.2484    2.4921 H   0  0  0  0  0  0  0  0  0  0  0  0
    4.0361    0.5185    3.1504 H   0  0  0  0  0  0  0  0  0  0  0  0
    0.3137   -0.9066    4.7760 H   0  0  0  0  0  0  0  0  0  0  0  0
    2.0408   -0.2389    6.0268 H   0  0  0  0  0  0  0  0  0  0  0  0
   -0.2689    1.4729   -2.6790 N   0  0  0  0  0  0  0  0  0  0  0  0
   -0.6306    1.5306   -4.0771 C   0  0  2  0  0  0  0  0  0  0  0  0
    0.2494    0.5428   -4.8317 C   0  0  0  0  0  0  0  0  0  0  0  0
    1.3337    0.1497   -4.4065 O   0  0  0  0  0  0  0  0  0  0  0  0
   -0.4691    2.9370   -4.6328 C   0  0  0  0  0  0  0  0  0  0  0  0
   -0.0773    2.3446   -2.1940 H   0  0  0  0  0  0  0  0  0  0  0  0
   -1.6773    1.2150   -4.1463 H   0  0  0  0  0  0  0  0  0  0  0  0
    0.5733    3.2705   -4.5719 H   0  0  0  0  0  0  0  0  0  0  0  0
   -0.7706    2.9852   -5.6843 H   0  0  0  0  0  0  0  0  0  0  0  0
   -1.0799    3.6510   -4.0698 H   0  0  0  0  0  0  0  0  0  0  0  0
   -0.2986    0.1851   -6.0556 N   0  0  0  0  0  0  0  0  0  0  0  0
    0.3523   -0.7305   -6.9634 C   0  0  0  0  0  0  0  0  0  0  0  0
   -1.2112    0.5449   -6.3188 H   0  0  0  0  0  0  0  0  0  0  0  0
    0.9714   -0.1642   -7.6748 H   0  0  0  0  0  0  0  0  0  0  0  0
    0.9895   -1.4219   -6.3925 H   0  0  0  0  0  0  0  0  0  0  0  0
   -0.4084   -1.3031   -7.5144 H   0  0  0  0  0  0  0  0  0  0  0  0
 23 25  2  0  0  0  0
 22 23  1  0  0  0  0
 24 26  1  0  0  0  0
 22 24  2  0  0  0  0
 25 27  1  0  0  0  0
 26 27  2  0  0  0  0
 21 22  1  0  0  0  0
 27 28  1  0  0  0  0
  1  3  1  0  0  0  0
  1  7  1  0  0  0  0
  1  2  2  0  0  0  0
 39 40  1  0  0  0  0
 40 48  1  0  0  0  0
 40 41  2  0  0  0  0
  8  9  1  0  0  0  0
  9 17  1  0  0  0  0
  9 10  2  0  0  0  0
 18 19  1  0  0  0  0
 19 38  1  0  0  0  0
 19 20  2  0  0  0  0
 39 42  1  0  0  0  0
  8 11  1  0  0  0  0
 48 49  1  0  0  0  0
 18 21  1  0  0  0  0
 38 39  1  0  0  0  0
  7  8  1  0  0  0  0
 17 18  1  0  0  0  0
 23 33  1  0  0  0  0
 24 34  1  0  0  0  0
 25 35  1  0  0  0  0
 26 36  1  0  0  0  0
  3  4  1  0  0  0  0
  3  5  1  0  0  0  0
  3  6  1  0  0  0  0
 42 45  1  0  0  0  0
 42 46  1  0  0  0  0
 42 47  1  0  0  0  0
 11 14  1  0  0  0  0
 11 15  1  0  0  0  0
 11 16  1  0  0  0  0
 49 51  1  0  0  0  0
 49 52  1  0  0  0  0
 49 53  1  0  0  0  0
 21 31  1  0  0  0  0
 21 32  1  0  0  0  0
 39 44  1  0  0  0  0
  8 13  1  0  0  0  0
 18 30  1  0  0  0  0
 48 50  1  0  0  0  0
  7 12  1  0  0  0  0
 38 43  1  0  0  0  0
 17 29  1  0  0  0  0
 28 37  1  0  0  0  0
M  END
$$$$

  -OEChem-05262214473D

 53 53  0     1  0  0  0  0  0999 V2000
   -1.9298    0.2574    3.9747 C   0  0  0  0  0  0  0  0  0  0  0  0
   -0.9825   -0.3573    3.4990 O   0  0  0  0  0  0  0  0  0  0  0  0
   -2.3617   -0.0250    5.3754 C   0  0  0  0  0  0  0  0  0  0  0  0
   -3.1214   -0.8213    5.4288 H   0  0  0  0  0  0  0  0  0  0  0  0
   -1.5305   -0.3726    6.0097 H   0  0  0  0  0  0  0  0  0  0  0  0
   -2.7997    0.8299    5.9150 H   0  0  0  0  0  0  0  0  0  0  0  0
   -2.6795    1.2298    3.3336 N   0  0  0  0  0  0  0  0  0  0  0  0
   -2.4327    1.6559    1.9812 C   0  0  2  0  0  0  0  0  0  0  0  0
   -1.0977    1.0705    1.5400 C   0  0  0  0  0  0  0  0  0  0  0  0
   -0.2256    0.7177    2.3313 O   0  0  0  0  0  0  0  0  0  0  0  0
   -2.4239    3.1726    1.8718 C   0  0  0  0  0  0  0  0  0  0  0  0
   -3.4446    1.6657    3.8454 H   0  0  0  0  0  0  0  0  0  0  0  0
   -3.2368    1.2374    1.3661 H   0  0  0  0  0  0  0  0  0  0  0  0
   -1.6248    3.6099    2.4815 H   0  0  0  0  0  0  0  0  0  0  0  0
   -2.2644    3.4949    0.8375 H   0  0  0  0  0  0  0  0  0  0  0  0
   -3.3741    3.5939    2.2175 H   0  0  0  0  0  0  0  0  0  0  0  0
   -0.9750    1.0274    0.1566 N   0  0  0  0  0  0  0  0  0  0  0  0
    0.2023    0.5266   -0.5070 C   0  0  2  0  0  0  0  0  0  0  0  0
   -0.1701    0.2863   -1.9657 C   0  0  0  0  0  0  0  0  0  0  0  0
   -0.6515   -0.7707   -2.3680 O   0  0  0  0  0  0  0  0  0  0  0  0
    0.7202   -0.7676    0.1309 C   0  0  0  0  0  0  0  0  0  0  0  0
    1.2505   -0.5579    1.5282 C   0  0  0  0  0  0  0  0  0  0  0  0
    2.5402   -0.0615    1.7178 C   0  0  0  0  0  0  0  0  0  0  0  0
    0.4510   -0.8613    2.6303 C   0  0  0  0  0  0  0  0  0  0  0  0
    3.0303    0.1317    3.0093 C   0  0  0  0  0  0  0  0  0  0  0  0
    0.9411   -0.6681    3.9218 C   0  0  0  0  0  0  0  0  0  0  0  0
    2.2309   -0.1716    4.1113 C   0  0  0  0  0  0  0  0  0  0  0  0
    2.7098    0.0157    5.3715 O   0  0  0  0  0  0  0  0  0  0  0  0
   -1.7582    1.3241   -0.4207 H   0  0  0  0  0  0  0  0  0  0  0  0
    0.9531    1.3238   -0.4550 H   0  0  0  0  0  0  0  0  0  0  0  0
    1.5020   -1.2151   -0.4976 H   0  0  0  0  0  0  0  0  0  0  0  0
   -0.0787   -1.5196    0.1756 H   0  0  0  0  0  0  0  0  0  0  0  0
    3.1699    0.1775    0.8650 H   0  0  0  0  0  0  0  0  0  0  0  0
   -0.5553   -1.2484    2.4921 H   0  0  0  0  0  0  0  0  0  0  0  0
    4.0361    0.5185    3.1504 H   0  0  0  0  0  0  0  0  0  0  0  0
    0.3137   -0.9066    4.7760 H   0  0  0  0  0  0  0  0  0  0  0  0
    2.0408   -0.2389    6.0268 H   0  0  0  0  0  0  0  0  0  0  0  0
    0.0531    1.4090   -2.7507 N   0  0  0  0  0  0  0  0  0  0  0  0
   -0.2367    1.4584   -4.1657 C   0  0  2  0  0  0  0  0  0  0  0  0
    0.3939    0.2350   -4.8179 C   0  0  0  0  0  0  0  0  0  0  0  0
    1.3316   -0.3830   -4.3182 O   0  0  0  0  0  0  0  0  0  0  0  0
    0.2879    2.7402   -4.7936 C   0  0  0  0  0  0  0  0  0  0  0  0
    0.4396    2.2377   -2.3083 H   0  0  0  0  0  0  0  0  0  0  0  0
   -1.3262    1.4064   -4.2674 H   0  0  0  0  0  0  0  0  0  0  0  0
    1.3780    2.8100   -4.7015 H   0  0  0  0  0  0  0  0  0  0  0  0
    0.0426    2.7892   -5.8597 H   0  0  0  0  0  0  0  0  0  0  0  0
   -0.1440    3.6195   -4.3035 H   0  0  0  0  0  0  0  0  0  0  0  0
   -0.1854   -0.0595   -6.0442 N   0  0  0  0  0  0  0  0  0  0  0  0
    0.2465   -1.1670   -6.8645 C   0  0  0  0  0  0  0  0  0  0  0  0
   -0.9706    0.4952   -6.3720 H   0  0  0  0  0  0  0  0  0  0  0  0
    1.0100   -0.8207   -7.5766 H   0  0  0  0  0  0  0  0  0  0  0  0
    0.6724   -1.9534   -6.2240 H   0  0  0  0  0  0  0  0  0  0  0  0
   -0.6143   -1.5709   -7.4177 H   0  0  0  0  0  0  0  0  0  0  0  0
 23 25  2  0  0  0  0
 22 23  1  0  0  0  0
 24 26  1  0  0  0  0
 22 24  2  0  0  0  0
 25 27  1  0  0  0  0
 26 27  2  0  0  0  0
 21 22  1  0  0  0  0
 27 28  1  0  0  0  0
  1  3  1  0  0  0  0
  1  7  1  0  0  0  0
  1  2  2  0  0  0  0
 39 40  1  0  0  0  0
 40 48  1  0  0  0  0
 40 41  2  0  0  0  0
  8  9  1  0  0  0  0
  9 17  1  0  0  0  0
  9 10  2  0  0  0  0
 18 19  1  0  0  0  0
 19 38  1  0  0  0  0
 19 20  2  0  0  0  0
 39 42  1  0  0  0  0
  8 11  1  0  0  0  0
 48 49  1  0  0  0  0
 18 21  1  0  0  0  0
 38 39  1  0  0  0  0
  7  8  1  0  0  0  0
 17 18  1  0  0  0  0
 23 33  1  0  0  0  0
 24 34  1  0  0  0  0
 25 35  1  0  0  0  0
 26 36  1  0  0  0  0
  3  4  1  0  0  0  0
  3  5  1  0  0  0  0
  3  6  1  0  0  0  0
 42 45  1  0  0  0  0
 42 46  1  0  0  0  0
 42 47  1  0  0  0  0
 11 14  1  0  0  0  0
 11 15  1  0  0  0  0
 11 16  1  0  0  0  0
 49 51  1  0  0  0  0
 49 52  1  0  0  0  0
 49 53  1  0  0  0  0
 21 31  1  0  0  0  0
 21 32  1  0  0  0  0
 39 44  1  0  0  0  0
  8 13  1  0  0  0  0
 18 30  1  0  0  0  0
 48 50  1  0  0  0  0
  7 12  1  0  0  0  0
 38 43  1  0  0  0  0
 17 29  1  0  0  0  0
 28 37  1  0  0  0  0
M  END
$$$$

  -OEChem-05262214473D

 53 53  0     1  0  0  0  0  0999 V2000
   -1.9298    0.2574    3.9747 C   0  0  0  0  0  0  0  0  0  0  0  0
   -0.9825   -0.3573    3.4990 O   0  0  0  0  0  0  0  0  0  0  0  0
   -2.3617   -0.0250    5.3754 C   0  0  0  0  0  0  0  0  0  0  0  0
   -3.1214   -0.8213    5.4288 H   0  0  0  0  0  0  0  0  0  0  0  0
   -1.5305   -0.3726    6.0097 H   0  0  0  0  0  0  0  0  0  0  0  0
   -2.7997    0.8299    5.9150 H   0  0  0  0  0  0  0  0  0  0  0  0
   -2.6795    1.2298    3.3336 N   0  0  0  0  0  0  0  0  0  0  0  0
   -2.4327    1.6559    1.9812 C   0  0  2  0  0  0  0  0  0  0  0  0
   -1.0977    1.0705    1.5400 C   0  0  0  0  0  0  0  0  0  0  0  0
   -0.2256    0.7177    2.3313 O   0  0  0  0  0  0  0  0  0  0  0  0
   -2.4239    3.1726    1.8718 C   0  0  0  0  0  0  0  0  0  0  0  0
   -3.4446    1.6657    3.8454 H   0  0  0  0  0  0  0  0  0  0  0  0
   -3.2368    1.2374    1.3661 H   0  0  0  0  0  0  0  0  0  0  0  0
   -1.6248    3.6099    2.4815 H   0  0  0  0  0  0  0  0  0  0  0  0
   -2.2644    3.4949    0.8375 H   0  0  0  0  0  0  0  0  0  0  0  0
   -3.3741    3.5939    2.2175 H   0  0  0  0  0  0  0  0  0  0  0  0
   -0.9750    1.0274    0.1566 N   0  0  0  0  0  0  0  0  0  0  0  0
    0.2023    0.5266   -0.5070 C   0  0  2  0  0  0  0  0  0  0  0  0
   -0.1701    0.2863   -1.9657 C   0  0  0  0  0  0  0  0  0  0  0  0
   -0.8860   -0.6445   -2.3289 O   0  0  0  0  0  0  0  0  0  0  0  0
    0.7202   -0.7676    0.1309 C   0  0  0  0  0  0  0  0  0  0  0  0
    1.2505   -0.5579    1.5282 C   0  0  0  0  0  0  0  0  0  0  0  0
    2.5402   -0.0615    1.7178 C   0  0  0  0  0  0  0  0  0  0  0  0
    0.4510   -0.8613    2.6303 C   0  0  0  0  0  0  0  0  0  0  0  0
    3.0303    0.1317    3.0093 C   0  0  0  0  0  0  0  0  0  0  0  0
    0.9411   -0.6681    3.9218 C   0  0  0  0  0  0  0  0  0  0  0  0
    2.2309   -0.1716    4.1113 C   0  0  0  0  0  0  0  0  0  0  0  0
    2.7098    0.0157    5.3715 O   0  0  0  0  0  0  0  0  0  0  0  0
   -1.7582    1.3241   -0.4207 H   0  0  0  0  0  0  0  0  0  0  0  0
    0.9531    1.3238   -0.4550 H   0  0  0  0  0  0  0  0  0  0  0  0
    1.5020   -1.2151   -0.4976 H   0  0  0  0  0  0  0  0  0  0  0  0
   -0.0787   -1.5196    0.1756 H   0  0  0  0  0  0  0  0  0  0  0  0
    3.1699    0.1775    0.8650 H   0  0  0  0  0  0  0  0  0  0  0  0
   -0.5553   -1.2484    2.4921 H   0  0  0  0  0  0  0  0  0  0  0  0
    4.0361    0.5185    3.1504 H   0  0  0  0  0  0  0  0  0  0  0  0
    0.3137   -0.9066    4.7760 H   0  0  0  0  0  0  0  0  0  0  0  0
    2.0408   -0.2389    6.0268 H   0  0  0  0  0  0  0  0  0  0  0  0
    0.3512    1.2631   -2.8027 N   0  0  0  0  0  0  0  0  0  0  0  0
    0.1294    1.2854   -4.2307 C   0  0  2  0  0  0  0  0  0  0  0  0
    0.4566   -0.0972   -4.7792 C   0  0  0  0  0  0  0  0  0  0  0  0
    1.1941   -0.8915   -4.1993 O   0  0  0  0  0  0  0  0  0  0  0  0
    0.9770    2.3525   -4.9057 C   0  0  0  0  0  0  0  0  0  0  0  0
    0.9171    1.9992   -2.3910 H   0  0  0  0  0  0  0  0  0  0  0  0
   -0.9348    1.4966   -4.3822 H   0  0  0  0  0  0  0  0  0  0  0  0
    2.0464    2.1578   -4.7647 H   0  0  0  0  0  0  0  0  0  0  0  0
    0.7867    2.3874   -5.9834 H   0  0  0  0  0  0  0  0  0  0  0  0
    0.7617    3.3425   -4.4891 H   0  0  0  0  0  0  0  0  0  0  0  0
   -0.1371   -0.3231   -6.0131 N   0  0  0  0  0  0  0  0  0  0  0  0
    0.0321   -1.5562   -6.7457 C   0  0  0  0  0  0  0  0  0  0  0  0
   -0.7483    0.3842   -6.4105 H   0  0  0  0  0  0  0  0  0  0  0  0
    0.8808   -1.4582   -7.4386 H   0  0  0  0  0  0  0  0  0  0  0  0
    0.2276   -2.3776   -6.0405 H   0  0  0  0  0  0  0  0  0  0  0  0
   -0.8834   -1.7725   -7.3158 H   0  0  0  0  0  0  0  0  0  0  0  0
 23 25  2  0  0  0  0
 22 23  1  0  0  0  0
 24 26  1  0  0  0  0
 22 24  2  0  0  0  0
 25 27  1  0  0  0  0
 26 27  2  0  0  0  0
 21 22  1  0  0  0  0
 27 28  1  0  0  0  0
  1  3  1  0  0  0  0
  1  7  1  0  0  0  0
  1  2  2  0  0  0  0
 39 40  1  0  0  0  0
 40 48  1  0  0  0  0
 40 41  2  0  0  0  0
  8  9  1  0  0  0  0
  9 17  1  0  0  0  0
  9 10  2  0  0  0  0
 18 19  1  0  0  0  0
 19 38  1  0  0  0  0
 19 20  2  0  0  0  0
 39 42  1  0  0  0  0
  8 11  1  0  0  0  0
 48 49  1  0  0  0  0
 18 21  1  0  0  0  0
 38 39  1  0  0  0  0
  7  8  1  0  0  0  0
 17 18  1  0  0  0  0
 23 33  1  0  0  0  0
 24 34  1  0  0  0  0
 25 35  1  0  0  0  0
 26 36  1  0  0  0  0
  3  4  1  0  0  0  0
  3  5  1  0  0  0  0
  3  6  1  0  0  0  0
 42 45  1  0  0  0  0
 42 46  1  0  0  0  0
 42 47  1  0  0  0  0
 11 14  1  0  0  0  0
 11 15  1  0  0  0  0
 11 16  1  0  0  0  0
 49 51  1  0  0  0  0
 49 52  1  0  0  0  0
 49 53  1  0  0  0  0
 21 31  1  0  0  0  0
 21 32  1  0  0  0  0
 39 44  1  0  0  0  0
  8 13  1  0  0  0  0
 18 30  1  0  0  0  0
 48 50  1  0  0  0  0
  7 12  1  0  0  0  0
 38 43  1  0  0  0  0
 17 29  1  0  0  0  0
 28 37  1  0  0  0  0
M  END
$$$$

  -OEChem-05262214473D

 53 53  0     1  0  0  0  0  0999 V2000
   -1.9298    0.2574    3.9747 C   0  0  0  0  0  0  0  0  0  0  0  0
   -0.9825   -0.3573    3.4990 O   0  0  0  0  0  0  0  0  0  0  0  0
   -2.3617   -0.0250    5.3754 C   0  0  0  0  0  0  0  0  0  0  0  0
   -3.1214   -0.8213    5.4288 H   0  0  0  0  0  0  0  0  0  0  0  0
   -1.5305   -0.3726    6.0097 H   0  0  0  0  0  0  0  0  0  0  0  0
   -2.7997    0.8299    5.9150 H   0  0  0  0  0  0  0  0  0  0  0  0
   -2.6795    1.2298    3.3336 N   0  0  0  0  0  0  0  0  0  0  0  0
   -2.4327    1.6559    1.9812 C   0  0  2  0  0  0  0  0  0  0  0  0
   -1.0977    1.0705    1.5400 C   0  0  0  0  0  0  0  0  0  0  0  0
   -0.2256    0.7177    2.3313 O   0  0  0  0  0  0  0  0  0  0  0  0
   -2.4239    3.1726    1.8718 C   0  0  0  0  0  0  0  0  0  0  0  0
   -3.4446    1.6657    3.8454 H   0  0  0  0  0  0  0  0  0  0  0  0
   -3.2368    1.2374    1.3661 H   0  0  0  0  0  0  0  0  0  0  0  0
   -1.6248    3.6099    2.4815 H   0  0  0  0  0  0  0  0  0  0  0  0
   -2.2644    3.4949    0.8375 H   0  0  0  0  0  0  0  0  0  0  0  0
   -3.3741    3.5939    2.2175 H   0  0  0  0  0  0  0  0  0  0  0  0
   -0.9750    1.0274    0.1566 N   0  0  0  0  0  0  0  0  0  0  0  0
    0.2023    0.5266   -0.5070 C   0  0  2  0  0  0  0  0  0  0  0  0
   -0.1701    0.2863   -1.9657 C   0  0  0  0  0  0  0  0  0  0  0  0
   -1.0829   -0.4621   -2.3087 O   0  0  0  0  0  0  0  0  0  0  0  0
    0.7202   -0.7676    0.1309 C   0  0  0  0  0  0  0  0  0  0  0  0
    1.2505   -0.5579    1.5282 C   0  0  0  0  0  0  0  0  0  0  0  0
    2.5402   -0.0615    1.7178 C   0  0  0  0  0  0  0  0  0  0  0  0
    0.4510   -0.8613    2.6303 C   0  0  0  0  0  0  0  0  0  0  0  0
    3.0303    0.1317    3.0093 C   0  0  0  0  0  0  0  0  0  0  0  0
    0.9411   -0.6681    3.9218 C   0  0  0  0  0  0  0  0  0  0  0  0
    2.2309   -0.1716    4.1113 C   0  0  0  0  0  0  0  0  0  0  0  0
    2.7098    0.0157    5.3715 O   0  0  0  0  0  0  0  0  0  0  0  0
   -1.7582    1.3241   -0.4207 H   0  0  0  0  0  0  0  0  0  0  0  0
    0.9531    1.3238   -0.4550 H   0  0  0  0  0  0  0  0  0  0  0  0
    1.5020   -1.2151   -0.4976 H   0  0  0  0  0  0  0  0  0  0  0  0
   -0.0787   -1.5196    0.1756 H   0  0  0  0  0  0  0  0  0  0  0  0
    3.1699    0.1775    0.8650 H   0  0  0  0  0  0  0  0  0  0  0  0
   -0.5553   -1.2484    2.4921 H   0  0  0  0  0  0  0  0  0  0  0  0
    4.0361    0.5185    3.1504 H   0  0  0  0  0  0  0  0  0  0  0  0
    0.3137   -0.9066    4.7760 H   0  0  0  0  0  0  0  0  0  0  0  0
    2.0408   -0.2389    6.0268 H   0  0  0  0  0  0  0  0  0  0  0  0
    0.6052    1.0450   -2.8316 N   0  0  0  0  0  0  0  0  0  0  0  0
    0.4429    1.0236   -4.2676 C   0  0  2  0  0  0  0  0  0  0  0  0
    0.4335   -0.4311   -4.7182 C   0  0  0  0  0  0  0  0  0  0  0  0
    0.9305   -1.3411   -4.0580 O   0  0  0  0  0  0  0  0  0  0  0  0
    1.5512    1.8003   -4.9613 C   0  0  0  0  0  0  0  0  0  0  0  0
    1.3227    1.6454   -2.4362 H   0  0  0  0  0  0  0  0  0  0  0  0
   -0.5296    1.4796   -4.4828 H   0  0  0  0  0  0  0  0  0  0  0  0
    2.5332    1.3583   -4.7573 H   0  0  0  0  0  0  0  0  0  0  0  0
    1.4110    1.8073   -6.0473 H   0  0  0  0  0  0  0  0  0  0  0  0
    1.5755    2.8389   -4.6139 H   0  0  0  0  0  0  0  0  0  0  0  0
   -0.1570   -0.5876   -5.9644 N   0  0  0  0  0  0  0  0  0  0  0  0
   -0.2762   -1.8716   -6.6150 C   0  0  0  0  0  0  0  0  0  0  0  0
   -0.5595    0.2195   -6.4316 H   0  0  0  0  0  0  0  0  0  0  0  0
    0.5925   -2.0332   -7.2702 H   0  0  0  0  0  0  0  0  0  0  0  0
   -0.3146   -2.6656   -5.8547 H   0  0  0  0  0  0  0  0  0  0  0  0
   -1.1975   -1.8941   -7.2155 H   0  0  0  0  0  0  0  0  0  0  0  0
 23 25  2  0  0  0  0
 22 23  1  0  0  0  0
 24 26  1  0  0  0  0
 22 24  2  0  0  0  0
 25 27  1  0  0  0  0
 26 27  2  0  0  0  0
 21 22  1  0  0  0  0
 27 28  1  0  0  0  0
  1  3  1  0  0  0  0
  1  7  1  0  0  0  0
  1  2  2  0  0  0  0
 39 40  1  0  0  0  0
 40 48  1  0  0  0  0
 40 41  2  0  0  0  0
  8  9  1  0  0  0  0
  9 17  1  0  0  0  0
  9 10  2  0  0  0  0
 18 19  1  0  0  0  0
 19 38  1  0  0  0  0
 19 20  2  0  0  0  0
 39 42  1  0  0  0  0
  8 11  1  0  0  0  0
 48 49  1  0  0  0  0
 18 21  1  0  0  0  0
 38 39  1  0  0  0  0
  7  8  1  0  0  0  0
 17 18  1  0  0  0  0
 23 33  1  0  0  0  0
 24 34  1  0  0  0  0
 25 35  1  0  0  0  0
 26 36  1  0  0  0  0
  3  4  1  0  0  0  0
  3  5  1  0  0  0  0
  3  6  1  0  0  0  0
 42 45  1  0  0  0  0
 42 46  1  0  0  0  0
 42 47  1  0  0  0  0
 11 14  1  0  0  0  0
 11 15  1  0  0  0  0
 11 16  1  0  0  0  0
 49 51  1  0  0  0  0
 49 52  1  0  0  0  0
 49 53  1  0  0  0  0
 21 31  1  0  0  0  0
 21 32  1  0  0  0  0
 39 44  1  0  0  0  0
  8 13  1  0  0  0  0
 18 30  1  0  0  0  0
 48 50  1  0  0  0  0
  7 12  1  0  0  0  0
 38 43  1  0  0  0  0
 17 29  1  0  0  0  0
 28 37  1  0  0  0  0
M  END
$$$$

  -OEChem-05262214473D

 53 53  0     1  0  0  0  0  0999 V2000
   -1.9298    0.2574    3.9747 C   0  0  0  0  0  0  0  0  0  0  0  0
   -0.9825   -0.3573    3.4990 O   0  0  0  0  0  0  0  0  0  0  0  0
   -2.3617   -0.0250    5.3754 C   0  0  0  0  0  0  0  0  0  0  0  0
   -3.1214   -0.8213    5.4288 H   0  0  0  0  0  0  0  0  0  0  0  0
   -1.5305   -0.3726    6.0097 H   0  0  0  0  0  0  0  0  0  0  0  0
   -2.7997    0.8299    5.9150 H   0  0  0  0  0  0  0  0  0  0  0  0
   -2.6795    1.2298    3.3336 N   0  0  0  0  0  0  0  0  0  0  0  0
   -2.4327    1.6559    1.9812 C   0  0  2  0  0  0  0  0  0  0  0  0
   -1.0977    1.0705    1.5400 C   0  0  0  0  0  0  0  0  0  0  0  0
   -0.2256    0.7177    2.3313 O   0  0  0  0  0  0  0  0  0  0  0  0
   -2.4239    3.1726    1.8718 C   0  0  0  0  0  0  0  0  0  0  0  0
   -3.4446    1.6657    3.8454 H   0  0  0  0  0  0  0  0  0  0  0  0
   -3.2368    1.2374    1.3661 H   0  0  0  0  0  0  0  0  0  0  0  0
   -1.6248    3.6099    2.4815 H   0  0  0  0  0  0  0  0  0  0  0  0
   -2.2644    3.4949    0.8375 H   0  0  0  0  0  0  0  0  0  0  0  0
   -3.3741    3.5939    2.2175 H   0  0  0  0  0  0  0  0  0  0  0  0
   -0.9750    1.0274    0.1566 N   0  0  0  0  0  0  0  0  0  0  0  0
    0.2023    0.5266   -0.5070 C   0  0  2  0  0  0  0  0  0  0  0  0
   -0.1701    0.2863   -1.9657 C   0  0  0  0  0  0  0  0  0  0  0  0
   -1.2287   -0.2358   -2.3088 O   0  0  0  0  0  0  0  0  0  0  0  0
    0.7202   -0.7676    0.1309 C   0  0  0  0  0  0  0  0  0  0  0  0
    1.2505   -0.5579    1.5282 C   0  0  0  0  0  0  0  0  0  0  0  0
    2.5402   -0.0615    1.7178 C   0  0  0  0  0  0  0  0  0  0  0  0
    0.4510   -0.8613    2.6303 C   0  0  0  0  0  0  0  0  0  0  0  0
    3.0303    0.1317    3.0093 C   0  0  0  0  0  0  0  0  0  0  0  0
    0.9411   -0.6681    3.9218 C   0  0  0  0  0  0  0  0  0  0  0  0
    2.2309   -0.1716    4.1113 C   0  0  0  0  0  0  0  0  0  0  0  0
    2.7098    0.0157    5.3715 O   0  0  0  0  0  0  0  0  0  0  0  0
   -1.7582    1.3241   -0.4207 H   0  0  0  0  0  0  0  0  0  0  0  0
    0.9531    1.3238   -0.4550 H   0  0  0  0  0  0  0  0  0  0  0  0
    1.5020   -1.2151   -0.4976 H   0  0  0  0  0  0  0  0  0  0  0  0
   -0.0787   -1.5196    0.1756 H   0  0  0  0  0  0  0  0  0  0  0  0
    3.1699    0.1775    0.8650 H   0  0  0  0  0  0  0  0  0  0  0  0
   -0.5553   -1.2484    2.4921 H   0  0  0  0  0  0  0  0  0  0  0  0
    4.0361    0.5185    3.1504 H   0  0  0  0  0  0  0  0  0  0  0  0
    0.3137   -0.9066    4.7760 H   0  0  0  0  0  0  0  0  0  0  0  0
    2.0408   -0.2389    6.0268 H   0  0  0  0  0  0  0  0  0  0  0  0
    0.7976    0.7696   -2.8354 N   0  0  0  0  0  0  0  0  0  0  0  0
    0.6824    0.6908   -4.2739 C   0  0  2  0  0  0  0  0  0  0  0  0
    0.3259   -0.7441   -4.6392 C   0  0  0  0  0  0  0  0  0  0  0  0
    0.5587   -1.7012   -3.9038 O   0  0  0  0  0  0  0  0  0  0  0  0
    1.9713    1.1213   -4.9567 C   0  0  0  0  0  0  0  0  0  0  0  0
    1.6287    1.2004   -2.4410 H   0  0  0  0  0  0  0  0  0  0  0  0
   -0.1384    1.3564   -4.5624 H   0  0  0  0  0  0  0  0  0  0  0  0
    2.8051    0.4659   -4.6797 H   0  0  0  0  0  0  0  0  0  0  0  0
    1.8730    1.0882   -6.0468 H   0  0  0  0  0  0  0  0  0  0  0  0
    2.2420    2.1430   -4.6695 H   0  0  0  0  0  0  0  0  0  0  0  0
   -0.2437   -0.8352   -5.9015 N   0  0  0  0  0  0  0  0  0  0  0  0
   -0.6574   -2.0916   -6.4815 C   0  0  0  0  0  0  0  0  0  0  0  0
   -0.4171    0.0124   -6.4338 H   0  0  0  0  0  0  0  0  0  0  0  0
    0.1647   -2.5066   -7.0831 H   0  0  0  0  0  0  0  0  0  0  0  0
   -0.9172   -2.7978   -5.6791 H   0  0  0  0  0  0  0  0  0  0  0  0
   -1.5351   -1.9275   -7.1239 H   0  0  0  0  0  0  0  0  0  0  0  0
 23 25  2  0  0  0  0
 22 23  1  0  0  0  0
 24 26  1  0  0  0  0
 22 24  2  0  0  0  0
 25 27  1  0  0  0  0
 26 27  2  0  0  0  0
 21 22  1  0  0  0  0
 27 28  1  0  0  0  0
  1  3  1  0  0  0  0
  1  7  1  0  0  0  0
  1  2  2  0  0  0  0
 39 40  1  0  0  0  0
 40 48  1  0  0  0  0
 40 41  2  0  0  0  0
  8  9  1  0  0  0  0
  9 17  1  0  0  0  0
  9 10  2  0  0  0  0
 18 19  1  0  0  0  0
 19 38  1  0  0  0  0
 19 20  2  0  0  0  0
 39 42  1  0  0  0  0
  8 11  1  0  0  0  0
 48 49  1  0  0  0  0
 18 21  1  0  0  0  0
 38 39  1  0  0  0  0
  7  8  1  0  0  0  0
 17 18  1  0  0  0  0
 23 33  1  0  0  0  0
 24 34  1  0  0  0  0
 25 35  1  0  0  0  0
 26 36  1  0  0  0  0
  3  4  1  0  0  0  0
  3  5  1  0  0  0  0
  3  6  1  0  0  0  0
 42 45  1  0  0  0  0
 42 46  1  0  0  0  0
 42 47  1  0  0  0  0
 11 14  1  0  0  0  0
 11 15  1  0  0  0  0
 11 16  1  0  0  0  0
 49 51  1  0  0  0  0
 49 52  1  0  0  0  0
 49 53  1  0  0  0  0
 21 31  1  0  0  0  0
 21 32  1  0  0  0  0
 39 44  1  0  0  0  0
  8 13  1  0  0  0  0
 18 30  1  0  0  0  0
 48 50  1  0  0  0  0
  7 12  1  0  0  0  0
 38 43  1  0  0  0  0
 17 29  1  0  0  0  0
 28 37  1  0  0  0  0
M  END
$$$$

  -OEChem-05262214473D

 53 53  0     1  0  0  0  0  0999 V2000
   -1.9298    0.2574    3.9747 C   0  0  0  0  0  0  0  0  0  0  0  0
   -0.9825   -0.3573    3.4990 O   0  0  0  0  0  0  0  0  0  0  0  0
   -2.3617   -0.0250    5.3754 C   0  0  0  0  0  0  0  0  0  0  0  0
   -3.1214   -0.8213    5.4288 H   0  0  0  0  0  0  0  0  0  0  0  0
   -1.5305   -0.3726    6.0097 H   0  0  0  0  0  0  0  0  0  0  0  0
   -2.7997    0.8299    5.9150 H   0  0  0  0  0  0  0  0  0  0  0  0
   -2.6795    1.2298    3.3336 N   0  0  0  0  0  0  0  0  0  0  0  0
   -2.4327    1.6559    1.9812 C   0  0  2  0  0  0  0  0  0  0  0  0
   -1.0977    1.0705    1.5400 C   0  0  0  0  0  0  0  0  0  0  0  0
   -0.2256    0.7177    2.3313 O   0  0  0  0  0  0  0  0  0  0  0  0
   -2.4239    3.1726    1.8718 C   0  0  0  0  0  0  0  0  0  0  0  0
   -3.4446    1.6657    3.8454 H   0  0  0  0  0  0  0  0  0  0  0  0
   -3.2368    1.2374    1.3661 H   0  0  0  0  0  0  0  0  0  0  0  0
   -1.6248    3.6099    2.4815 H   0  0  0  0  0  0  0  0  0  0  0  0
   -2.2644    3.4949    0.8375 H   0  0  0  0  0  0  0  0  0  0  0  0
   -3.3741    3.5939    2.2175 H   0  0  0  0  0  0  0  0  0  0  0  0
   -0.9750    1.0274    0.1566 N   0  0  0  0  0  0  0  0  0  0  0  0
    0.2023    0.5266   -0.5070 C   0  0  2  0  0  0  0  0  0  0  0  0
   -0.1701    0.2863   -1.9657 C   0  0  0  0  0  0  0  0  0  0  0  0
   -1.3135    0.0189   -2.3291 O   0  0  0  0  0  0  0  0  0  0  0  0
    0.7202   -0.7676    0.1309 C   0  0  0  0  0  0  0  0  0  0  0  0
    1.2505   -0.5579    1.5282 C   0  0  0  0  0  0  0  0  0  0  0  0
    2.5402   -0.0615    1.7178 C   0  0  0  0  0  0  0  0  0  0  0  0
    0.4510   -0.8613    2.6303 C   0  0  0  0  0  0  0  0  0  0  0  0
    3.0303    0.1317    3.0093 C   0  0  0  0  0  0  0  0  0  0  0  0
    0.9411   -0.6681    3.9218 C   0  0  0  0  0  0  0  0  0  0  0  0
    2.2309   -0.1716    4.1113 C   0  0  0  0  0  0  0  0  0  0  0  0
    2.7098    0.0157    5.3715 O   0  0  0  0  0  0  0  0  0  0  0  0
   -1.7582    1.3241   -0.4207 H   0  0  0  0  0  0  0  0  0  0  0  0
    0.9531    1.3238   -0.4550 H   0  0  0  0  0  0  0  0  0  0  0  0
    1.5020   -1.2151   -0.4976 H   0  0  0  0  0  0  0  0  0  0  0  0
   -0.0787   -1.5196    0.1756 H   0  0  0  0  0  0  0  0  0  0  0  0
    3.1699    0.1775    0.8650 H   0  0  0  0  0  0  0  0  0  0  0  0
   -0.5553   -1.2484    2.4921 H   0  0  0  0  0  0  0  0  0  0  0  0
    4.0361    0.5185    3.1504 H   0  0  0  0  0  0  0  0  0  0  0  0
    0.3137   -0.9066    4.7760 H   0  0  0  0  0  0  0  0  0  0  0  0
    2.0408   -0.2389    6.0268 H   0  0  0  0  0  0  0  0  0  0  0  0
    0.9155    0.4557   -2.8138 N   0  0  0  0  0  0  0  0  0  0  0  0
    0.8315    0.3095   -4.2492 C   0  0  2  0  0  0  0  0  0  0  0  0
    0.1412   -1.0148   -4.5475 C   0  0  0  0  0  0  0  0  0  0  0  0
    0.1042   -1.9472   -3.7472 O   0  0  0  0  0  0  0  0  0  0  0  0
    2.2087    0.3616   -4.8922 C   0  0  0  0  0  0  0  0  0  0  0  0
    1.8142    0.6944   -2.4050 H   0  0  0  0  0  0  0  0  0  0  0  0
    0.2122    1.1355   -4.6155 H   0  0  0  0  0  0  0  0  0  0  0  0
    2.8436   -0.4585   -4.5373 H   0  0  0  0  0  0  0  0  0  0  0  0
    2.1411    0.2793   -5.9820 H   0  0  0  0  0  0  0  0  0  0  0  0
    2.7157    1.3023   -4.6519 H   0  0  0  0  0  0  0  0  0  0  0  0
   -0.3914   -1.0488   -5.8286 N   0  0  0  0  0  0  0  0  0  0  0  0
   -1.0855   -2.2013   -6.3541 C   0  0  0  0  0  0  0  0  0  0  0  0
   -0.3307   -0.2231   -6.4171 H   0  0  0  0  0  0  0  0  0  0  0  0
   -0.3733   -2.8461   -6.8898 H   0  0  0  0  0  0  0  0  0  0  0  0
   -1.5391   -2.7651   -5.5257 H   0  0  0  0  0  0  0  0  0  0  0  0
   -1.8731   -1.8703   -7.0470 H   0  0  0  0  0  0  0  0  0  0  0  0
 23 25  2  0  0  0  0
 22 23  1  0  0  0  0
 24 26  1  0  0  0  0
 22 24  2  0  0  0  0
 25 27  1  0  0  0  0
 26 27  2  0  0  0  0
 21 22  1  0  0  0  0
 27 28  1  0  0  0  0
  1  3  1  0  0  0  0
  1  7  1  0  0  0  0
  1  2  2  0  0  0  0
 39 40  1  0  0  0  0
 40 48  1  0  0  0  0
 40 41  2  0  0  0  0
  8  9  1  0  0  0  0
  9 17  1  0  0  0  0
  9 10  2  0  0  0  0
 18 19  1  0  0  0  0
 19 38  1  0  0  0  0
 19 20  2  0  0  0  0
 39 42  1  0  0  0  0
  8 11  1  0  0  0  0
 48 49  1  0  0  0  0
 18 21  1  0  0  0  0
 38 39  1  0  0  0  0
  7  8  1  0  0  0  0
 17 18  1  0  0  0  0
 23 33  1  0  0  0  0
 24 34  1  0  0  0  0
 25 35  1  0  0  0  0
 26 36  1  0  0  0  0
  3  4  1  0  0  0  0
  3  5  1  0  0  0  0
  3  6  1  0  0  0  0
 42 45  1  0  0  0  0
 42 46  1  0  0  0  0
 42 47  1  0  0  0  0
 11 14  1  0  0  0  0
 11 15  1  0  0  0  0
 11 16  1  0  0  0  0
 49 51  1  0  0  0  0
 49 52  1  0  0  0  0
 49 53  1  0  0  0  0
 21 31  1  0  0  0  0
 21 32  1  0  0  0  0
 39 44  1  0  0  0  0
  8 13  1  0  0  0  0
 18 30  1  0  0  0  0
 48 50  1  0  0  0  0
  7 12  1  0  0  0  0
 38 43  1  0  0  0  0
 17 29  1  0  0  0  0
 28 37  1  0  0  0  0
M  END
$$$$

  -OEChem-05262214473D

 53 53  0     1  0  0  0  0  0999 V2000
   -1.9298    0.2574    3.9747 C   0  0  0  0  0  0  0  0  0  0  0  0
   -0.9825   -0.3573    3.4990 O   0  0  0  0  0  0  0  0  0  0  0  0
   -2.3617   -0.0250    5.3754 C   0  0  0  0  0  0  0  0  0  0  0  0
   -3.1214   -0.8213    5.4288 H   0  0  0  0  0  0  0  0  0  0  0  0
   -1.5305   -0.3726    6.0097 H   0  0  0  0  0  0  0  0  0  0  0  0
   -2.7997    0.8299    5.9150 H   0  0  0  0  0  0  0  0  0  0  0  0
   -2.6795    1.2298    3.3336 N   0  0  0  0  0  0  0  0  0  0  0  0
   -2.4327    1.6559    1.9812 C   0  0  2  0  0  0  0  0  0  0  0  0
   -1.0977    1.0705    1.5400 C   0  0  0  0  0  0  0  0  0  0  0  0
   -0.2256    0.7177    2.3313 O   0  0  0  0  0  0  0  0  0  0  0  0
   -2.4239    3.1726    1.8718 C   0  0  0  0  0  0  0  0  0  0  0  0
   -3.4446    1.6657    3.8454 H   0  0  0  0  0  0  0  0  0  0  0  0
   -3.2368    1.2374    1.3661 H   0  0  0  0  0  0  0  0  0  0  0  0
   -1.6248    3.6099    2.4815 H   0  0  0  0  0  0  0  0  0  0  0  0
   -2.2644    3.4949    0.8375 H   0  0  0  0  0  0  0  0  0  0  0  0
   -3.3741    3.5939    2.2175 H   0  0  0  0  0  0  0  0  0  0  0  0
   -0.9750    1.0274    0.1566 N   0  0  0  0  0  0  0  0  0  0  0  0
    0.2023    0.5266   -0.5070 C   0  0  2  0  0  0  0  0  0  0  0  0
   -0.1701    0.2863   -1.9657 C   0  0  0  0  0  0  0  0  0  0  0  0
   -1.3315    0.2845   -2.3682 O   0  0  0  0  0  0  0  0  0  0  0  0
    0.7202   -0.7676    0.1309 C   0  0  0  0  0  0  0  0  0  0  0  0
    1.2505   -0.5579    1.5282 C   0  0  0  0  0  0  0  0  0  0  0  0
    2.5402   -0.0615    1.7178 C   0  0  0  0  0  0  0  0  0  0  0  0
    0.4510   -0.8613    2.6303 C   0  0  0  0  0  0  0  0  0  0  0  0
    3.0303    0.1317    3.0093 C   0  0  0  0  0  0  0  0  0  0  0  0
    0.9411   -0.6681    3.9218 C   0  0  0  0  0  0  0  0  0  0  0  0
    2.2309   -0.1716    4.1113 C   0  0  0  0  0  0  0  0  0  0  0  0
    2.7098    0.0157    5.3715 O   0  0  0  0  0  0  0  0  0  0  0  0
   -1.7582    1.3241   -0.4207 H   0  0  0  0  0  0  0  0  0  0  0  0
    0.9531    1.3238   -0.4550 H   0  0  0  0  0  0  0  0  0  0  0  0
    1.5020   -1.2151   -0.4976 H   0  0  0  0  0  0  0  0  0  0  0  0
   -0.0787   -1.5196    0.1756 H   0  0  0  0  0  0  0  0  0  0  0  0
    3.1699    0.1775    0.8650 H   0  0  0  0  0  0  0  0  0  0  0  0
   -0.5553   -1.2484    2.4921 H   0  0  0  0  0  0  0  0  0  0  0  0
    4.0361    0.5185    3.1504 H   0  0  0  0  0  0  0  0  0  0  0  0
    0.3137   -0.9066    4.7760 H   0  0  0  0  0  0  0  0  0  0  0  0
    2.0408   -0.2389    6.0268 H   0  0  0  0  0  0  0  0  0  0  0  0
    0.9507    0.1247   -2.7683 N   0  0  0  0  0  0  0  0  0  0  0  0
    0.8802   -0.0941   -4.1951 C   0  0  2  0  0  0  0  0  0  0  0  0
   -0.1080   -1.2248   -4.4493 C   0  0  0  0  0  0  0  0  0  0  0  0
   -0.4022   -2.0623   -3.5990 O   0  0  0  0  0  0  0  0  0  0  0  0
    2.2473   -0.4270   -4.7721 C   0  0  0  0  0  0  0  0  0  0  0  0
    1.8666    0.1620   -2.3307 H   0  0  0  0  0  0  0  0  0  0  0  0
    0.4983    0.8320   -4.6386 H   0  0  0  0  0  0  0  0  0  0  0  0
    2.6460   -1.3519   -4.3397 H   0  0  0  0  0  0  0  0  0  0  0  0
    2.1972   -0.5643   -5.8573 H   0  0  0  0  0  0  0  0  0  0  0  0
    2.9643    0.3741   -4.5625 H   0  0  0  0  0  0  0  0  0  0  0  0
   -0.5899   -1.2140   -5.7508 N   0  0  0  0  0  0  0  0  0  0  0  0
   -1.5314   -2.1931   -6.2416 C   0  0  0  0  0  0  0  0  0  0  0  0
   -0.3062   -0.4709   -6.3825 H   0  0  0  0  0  0  0  0  0  0  0  0
   -0.9850   -3.0286   -6.7036 H   0  0  0  0  0  0  0  0  0  0  0  0
   -2.1381   -2.5699   -5.4049 H   0  0  0  0  0  0  0  0  0  0  0  0
   -2.1887   -1.7265   -6.9901 H   0  0  0  0  0  0  0  0  0  0  0  0
 23 25  2  0  0  0  0
 22 23  1  0  0  0  0
 24 26  1  0  0  0  0
 22 24  2  0  0  0  0
 25 27  1  0  0  0  0
 26 27  2  0  0  0  0
 21 22  1  0  0  0  0
 27 28  1  0  0  0  0
  1  3  1  0  0  0  0
  1  7  1  0  0  0  0
  1  2  2  0  0  0  0
 39 40  1  0  0  0  0
 40 48  1  0  0  0  0
 40 41  2  0  0  0  0
  8  9  1  0  0  0  0
  9 17  1  0  0  0  0
  9 10  2  0  0  0  0
 18 19  1  0  0  0  0
 19 38  1  0  0  0  0
 19 20  2  0  0  0  0
 39 42  1  0  0  0  0
  8 11  1  0  0  0  0
 48 49  1  0  0  0  0
 18 21  1  0  0  0  0
 38 39  1  0  0  0  0
  7  8  1  0  0  0  0
 17 18  1  0  0  0  0
 23 33  1  0  0  0  0
 24 34  1  0  0  0  0
 25 35  1  0  0  0  0
 26 36  1  0  0  0  0
  3  4  1  0  0  0  0
  3  5  1  0  0  0  0
  3  6  1  0  0  0  0
 42 45  1  0  0  0  0
 42 46  1  0  0  0  0
 42 47  1  0  0  0  0
 11 14  1  0  0  0  0
 11 15  1  0  0  0  0
 11 16  1  0  0  0  0
 49 51  1  0  0  0  0
 49 52  1  0  0  0  0
 49 53  1  0  0  0  0
 21 31  1  0  0  0  0
 21 32  1  0  0  0  0
 39 44  1  0  0  0  0
  8 13  1  0  0  0  0
 18 30  1  0  0  0  0
 48 50  1  0  0  0  0
  7 12  1  0  0  0  0
 38 43  1  0  0  0  0
 17 29  1  0  0  0  0
 28 37  1  0  0  0  0
M  END
$$$$
